data_str_m2_o2_o10_pcu_sym.67
_audit_creation_date              2020-01-03
_audit_creation_method            'Materials Studio'
_symmetry_space_group_name_H-M    'P1'
_symmetry_Int_Tables_number       1
_symmetry_cell_setting            triclinic
loop_
_symmetry_equiv_pos_as_xyz
  x,y,z
_cell_length_a                    26.1521
_cell_length_b                    30.2947
_cell_length_c                    27.7119
_cell_angle_alpha                 90.6444
_cell_angle_beta                  98.0945
_cell_angle_gamma                 89.9837
loop_
_atom_site_label
_atom_site_type_symbol
_atom_site_fract_x
_atom_site_fract_y
_atom_site_fract_z
_atom_site_U_iso_or_equiv
_atom_site_adp_type
_atom_site_occupancy
C1     C     0.16565   0.16489   0.24950   0.00000  Uiso   1.00
C2     C     0.18411   0.28828   0.44864   0.00000  Uiso   1.00
C3     C     0.16457   0.25072   0.02694   0.00000  Uiso   1.00
C4     C     0.16556   0.25148   0.47249   0.00000  Uiso   1.00
C5     C     0.06787   0.24997   0.23751   0.00000  Uiso   1.00
C6     C     0.26547   0.25002   0.26249   0.00000  Uiso   1.00
C7     C     0.01257   0.24990   0.23064   0.00000  Uiso   1.00
C8     C     0.32078   0.25006   0.26939   0.00000  Uiso   1.00
C9     C     0.18580   0.04828   0.29181   0.00000  Uiso   1.00
C10    C     0.18541   0.45176   0.21289   0.00000  Uiso   1.00
C11    C     0.18477   0.09410   0.29131   0.00000  Uiso   1.00
C12    C     0.16570   0.33512   0.25024   0.00000  Uiso   1.00
C13    C     0.18446   0.40593   0.21323   0.00000  Uiso   1.00
C14    C     0.16510   0.11652   0.24864   0.00000  Uiso   1.00
C15    C     0.16520   0.38350   0.25094   0.00000  Uiso   1.00
C16    C     0.14568   0.09210   0.20617   0.00000  Uiso   1.00
C17    C     0.14617   0.40794   0.28844   0.00000  Uiso   1.00
C18    C     0.14727   0.04619   0.20700   0.00000  Uiso   1.00
C19    C     0.14772   0.45384   0.28791   0.00000  Uiso   1.00
C20    C     0.16725   0.02416   0.24962   0.00000  Uiso   1.00
C21    C     0.16725   0.47588   0.25034   0.00000  Uiso   1.00
C22    C     0.06905   0.22966   0.01774   0.00000  Uiso   1.00
C23    C     0.20983   0.26077   0.05902   0.00000  Uiso   1.00
C24    C     0.04795   0.25794   0.48012   0.00000  Uiso   1.00
C25    C     0.00050   0.24803   0.45211   0.00000  Uiso   1.00
C26    C     0.30627   0.21055   0.46211   0.00000  Uiso   1.00
C27    C     0.32639   0.18260   0.49981   0.00000  Uiso   1.00
C28    C     0.04090   0.19195   0.02741   0.00000  Uiso   1.00
C29    C     0.20107   0.32990   0.47506   0.00000  Uiso   1.00
C30    C     0.16918   0.35142   0.00478   0.00000  Uiso   1.00
C31    C     0.18569   0.39028   0.02991   0.00000  Uiso   1.00
C32    C     0.23386   0.40831   0.02523   0.00000  Uiso   1.00
C33    C     0.26550   0.38761   0.49523   0.00000  Uiso   1.00
C34    C     0.14834   0.21443   0.44363   0.00000  Uiso   1.00
C35    C     0.24917   0.34870   0.47010   0.00000  Uiso   1.00
C36    C     0.20988   0.26099   0.10971   0.00000  Uiso   1.00
C37    C     0.14835   0.21462   0.39297   0.00000  Uiso   1.00
C38    C     0.12249   0.23892   0.09922   0.00000  Uiso   1.00
C39    C     0.18509   0.28596   0.39775   0.00000  Uiso   1.00
C40    C     0.11964   0.23964   0.04782   0.00000  Uiso   1.00
Cl41   Cl    0.11639   0.11674   0.15180   0.00000  Uiso   1.00
Cl42   Cl    0.11736   0.38338   0.33540   0.00000  Uiso   1.00
Cu43   Cu    0.16667   0.24999   0.29822   0.00000  Uiso   1.00
Cu44   Cu    0.16667   0.25000   0.20179   0.00000  Uiso   1.00
H45    H     0.32583   0.24970   0.19353   0.00000  Uiso   1.00
H46    H     0.13453   0.18539   0.46023   0.00000  Uiso   1.00
H47    H     0.24493   0.27002   0.13313   0.00000  Uiso   1.00
H48    H     0.13364   0.18613   0.37163   0.00000  Uiso   1.00
H49    H     0.08845   0.23013   0.11495   0.00000  Uiso   1.00
H50    H     0.19973   0.31369   0.37963   0.00000  Uiso   1.00
H51    H     0.06809   0.28759   0.47226   0.00000  Uiso   1.00
H52    H     0.31842   0.26941   0.42257   0.00000  Uiso   1.00
H53    H     0.26940   0.20313   0.44058   0.00000  Uiso   1.00
H54    H     0.30502   0.15351   0.00752   0.00000  Uiso   1.00
H55    H     0.05613   0.16957   0.05611   0.00000  Uiso   1.00
H56    H     0.00755   0.25022   0.30651   0.00000  Uiso   1.00
H57    H     0.13157   0.33824   0.00862   0.00000  Uiso   1.00
H58    H     0.16109   0.40646   0.05297   0.00000  Uiso   1.00
H59    H     0.24659   0.43840   0.04471   0.00000  Uiso   1.00
H60    H     0.30274   0.40168   0.49146   0.00000  Uiso   1.00
H61    H     0.27423   0.33314   0.44711   0.00000  Uiso   1.00
H62    H     0.20152   0.03162   0.32501   0.00000  Uiso   1.00
H63    H     0.20078   0.46842   0.18366   0.00000  Uiso   1.00
H64    H     0.19994   0.11204   0.32427   0.00000  Uiso   1.00
H65    H     0.19933   0.38802   0.18414   0.00000  Uiso   1.00
H66    H     0.13173   0.02758   0.17462   0.00000  Uiso   1.00
H67    H     0.13247   0.47245   0.31632   0.00000  Uiso   1.00
H68    H     0.24522   0.26873   0.04486   0.00000  Uiso   1.00
N69    N     0.16667   0.25001   0.12934   0.00000  Uiso   1.00
N70    N     0.16667   0.24999   0.37066   0.00000  Uiso   1.00
O71    O     0.16667   0.18572   0.29072   0.00000  Uiso   1.00
O72    O     0.16666   0.31427   0.20929   0.00000  Uiso   1.00
O73    O     0.16667   0.18573   0.20928   0.00000  Uiso   1.00
O74    O     0.16666   0.31427   0.29072   0.00000  Uiso   1.00
O75    O     0.09161   0.24999   0.28132   0.00000  Uiso   1.00
O76    O     0.24172   0.25000   0.21868   0.00000  Uiso   1.00
O77    O     0.09161   0.25000   0.19989   0.00000  Uiso   1.00
O78    O     0.24172   0.25000   0.30011   0.00000  Uiso   1.00
C79    C     0.49899   0.16489   0.24950   0.00000  Uiso   1.00
C80    C     0.51744   0.28828   0.44864   0.00000  Uiso   1.00
C81    C     0.49790   0.25072   0.02694   0.00000  Uiso   1.00
C82    C     0.49889   0.25148   0.47249   0.00000  Uiso   1.00
C83    C     0.40121   0.24997   0.23751   0.00000  Uiso   1.00
C84    C     0.59880   0.25002   0.26249   0.00000  Uiso   1.00
C85    C     0.34591   0.24990   0.23064   0.00000  Uiso   1.00
C86    C     0.65411   0.25006   0.26939   0.00000  Uiso   1.00
C87    C     0.51914   0.04828   0.29181   0.00000  Uiso   1.00
C88    C     0.51875   0.45176   0.21289   0.00000  Uiso   1.00
C89    C     0.51811   0.09410   0.29131   0.00000  Uiso   1.00
C90    C     0.49904   0.33512   0.25024   0.00000  Uiso   1.00
C91    C     0.51779   0.40593   0.21323   0.00000  Uiso   1.00
C92    C     0.49843   0.11652   0.24864   0.00000  Uiso   1.00
C93    C     0.49853   0.38350   0.25094   0.00000  Uiso   1.00
C94    C     0.47901   0.09210   0.20617   0.00000  Uiso   1.00
C95    C     0.47950   0.40794   0.28844   0.00000  Uiso   1.00
C96    C     0.48060   0.04619   0.20700   0.00000  Uiso   1.00
C97    C     0.48105   0.45384   0.28791   0.00000  Uiso   1.00
C98    C     0.50059   0.02416   0.24962   0.00000  Uiso   1.00
C99    C     0.50059   0.47588   0.25034   0.00000  Uiso   1.00
C100   C     0.40239   0.22966   0.01774   0.00000  Uiso   1.00
C101   C     0.54316   0.26077   0.05902   0.00000  Uiso   1.00
C102   C     0.38128   0.25794   0.48012   0.00000  Uiso   1.00
C103   C     0.33384   0.24803   0.45211   0.00000  Uiso   1.00
C104   C     0.63961   0.21055   0.46211   0.00000  Uiso   1.00
C105   C     0.65972   0.18260   0.49981   0.00000  Uiso   1.00
C106   C     0.37423   0.19195   0.02741   0.00000  Uiso   1.00
C107   C     0.53440   0.32990   0.47506   0.00000  Uiso   1.00
C108   C     0.50251   0.35142   0.00478   0.00000  Uiso   1.00
C109   C     0.51903   0.39028   0.02991   0.00000  Uiso   1.00
C110   C     0.56720   0.40831   0.02523   0.00000  Uiso   1.00
C111   C     0.59884   0.38761   0.49523   0.00000  Uiso   1.00
C112   C     0.48167   0.21443   0.44363   0.00000  Uiso   1.00
C113   C     0.58250   0.34870   0.47010   0.00000  Uiso   1.00
C114   C     0.54321   0.26099   0.10971   0.00000  Uiso   1.00
C115   C     0.48168   0.21462   0.39297   0.00000  Uiso   1.00
C116   C     0.45582   0.23892   0.09922   0.00000  Uiso   1.00
C117   C     0.51842   0.28596   0.39775   0.00000  Uiso   1.00
C118   C     0.45298   0.23964   0.04782   0.00000  Uiso   1.00
Cl119  Cl    0.44972   0.11674   0.15180   0.00000  Uiso   1.00
Cl120  Cl    0.45069   0.38338   0.33540   0.00000  Uiso   1.00
Cu121  Cu    0.50000   0.24999   0.29822   0.00000  Uiso   1.00
Cu122  Cu    0.50000   0.25000   0.20179   0.00000  Uiso   1.00
H123   H     0.65916   0.24970   0.19353   0.00000  Uiso   1.00
H124   H     0.46787   0.18539   0.46023   0.00000  Uiso   1.00
H125   H     0.57826   0.27002   0.13313   0.00000  Uiso   1.00
H126   H     0.46697   0.18613   0.37163   0.00000  Uiso   1.00
H127   H     0.42179   0.23013   0.11495   0.00000  Uiso   1.00
H128   H     0.53307   0.31369   0.37963   0.00000  Uiso   1.00
H129   H     0.40142   0.28759   0.47226   0.00000  Uiso   1.00
H130   H     0.65176   0.26941   0.42257   0.00000  Uiso   1.00
H131   H     0.60273   0.20313   0.44058   0.00000  Uiso   1.00
H132   H     0.63835   0.15351   0.00752   0.00000  Uiso   1.00
H133   H     0.38947   0.16957   0.05611   0.00000  Uiso   1.00
H134   H     0.34089   0.25022   0.30651   0.00000  Uiso   1.00
H135   H     0.46491   0.33824   0.00862   0.00000  Uiso   1.00
H136   H     0.49442   0.40646   0.05297   0.00000  Uiso   1.00
H137   H     0.57992   0.43840   0.04471   0.00000  Uiso   1.00
H138   H     0.63607   0.40168   0.49146   0.00000  Uiso   1.00
H139   H     0.60756   0.33314   0.44711   0.00000  Uiso   1.00
H140   H     0.53485   0.03162   0.32501   0.00000  Uiso   1.00
H141   H     0.53412   0.46842   0.18366   0.00000  Uiso   1.00
H142   H     0.53328   0.11204   0.32427   0.00000  Uiso   1.00
H143   H     0.53266   0.38802   0.18414   0.00000  Uiso   1.00
H144   H     0.46506   0.02758   0.17462   0.00000  Uiso   1.00
H145   H     0.46580   0.47245   0.31632   0.00000  Uiso   1.00
H146   H     0.57855   0.26873   0.04486   0.00000  Uiso   1.00
N147   N     0.50000   0.25001   0.12934   0.00000  Uiso   1.00
N148   N     0.50000   0.24999   0.37066   0.00000  Uiso   1.00
O149   O     0.50000   0.18572   0.29072   0.00000  Uiso   1.00
O150   O     0.50000   0.31427   0.20929   0.00000  Uiso   1.00
O151   O     0.50000   0.18573   0.20928   0.00000  Uiso   1.00
O152   O     0.50000   0.31427   0.29072   0.00000  Uiso   1.00
O153   O     0.42495   0.24999   0.28132   0.00000  Uiso   1.00
O154   O     0.57505   0.25000   0.21868   0.00000  Uiso   1.00
O155   O     0.42495   0.25000   0.19989   0.00000  Uiso   1.00
O156   O     0.57505   0.25000   0.30011   0.00000  Uiso   1.00
C157   C     0.83232   0.16489   0.24950   0.00000  Uiso   1.00
C158   C     0.85078   0.28828   0.44864   0.00000  Uiso   1.00
C159   C     0.83124   0.25072   0.02694   0.00000  Uiso   1.00
C160   C     0.83222   0.25148   0.47249   0.00000  Uiso   1.00
C161   C     0.73454   0.24997   0.23751   0.00000  Uiso   1.00
C162   C     0.93213   0.25002   0.26249   0.00000  Uiso   1.00
C163   C     0.67924   0.24990   0.23064   0.00000  Uiso   1.00
C164   C     0.98745   0.25006   0.26939   0.00000  Uiso   1.00
C165   C     0.85247   0.04828   0.29181   0.00000  Uiso   1.00
C166   C     0.85208   0.45176   0.21289   0.00000  Uiso   1.00
C167   C     0.85144   0.09410   0.29131   0.00000  Uiso   1.00
C168   C     0.83237   0.33512   0.25024   0.00000  Uiso   1.00
C169   C     0.85112   0.40593   0.21323   0.00000  Uiso   1.00
C170   C     0.83177   0.11652   0.24864   0.00000  Uiso   1.00
C171   C     0.83186   0.38350   0.25094   0.00000  Uiso   1.00
C172   C     0.81234   0.09210   0.20617   0.00000  Uiso   1.00
C173   C     0.81283   0.40794   0.28844   0.00000  Uiso   1.00
C174   C     0.81394   0.04619   0.20700   0.00000  Uiso   1.00
C175   C     0.81438   0.45384   0.28791   0.00000  Uiso   1.00
C176   C     0.83392   0.02416   0.24962   0.00000  Uiso   1.00
C177   C     0.83392   0.47588   0.25034   0.00000  Uiso   1.00
C178   C     0.73572   0.22966   0.01774   0.00000  Uiso   1.00
C179   C     0.87649   0.26077   0.05902   0.00000  Uiso   1.00
C180   C     0.71462   0.25794   0.48012   0.00000  Uiso   1.00
C181   C     0.66717   0.24803   0.45211   0.00000  Uiso   1.00
C182   C     0.97294   0.21055   0.46211   0.00000  Uiso   1.00
C183   C     0.99306   0.18260   0.49981   0.00000  Uiso   1.00
C184   C     0.70756   0.19195   0.02741   0.00000  Uiso   1.00
C185   C     0.86773   0.32990   0.47506   0.00000  Uiso   1.00
C186   C     0.83584   0.35142   0.00478   0.00000  Uiso   1.00
C187   C     0.85236   0.39028   0.02991   0.00000  Uiso   1.00
C188   C     0.90053   0.40831   0.02523   0.00000  Uiso   1.00
C189   C     0.93217   0.38761   0.49523   0.00000  Uiso   1.00
C190   C     0.81500   0.21443   0.44363   0.00000  Uiso   1.00
C191   C     0.91584   0.34870   0.47010   0.00000  Uiso   1.00
C192   C     0.87654   0.26099   0.10971   0.00000  Uiso   1.00
C193   C     0.81502   0.21462   0.39297   0.00000  Uiso   1.00
C194   C     0.78915   0.23892   0.09922   0.00000  Uiso   1.00
C195   C     0.85175   0.28596   0.39775   0.00000  Uiso   1.00
C196   C     0.78631   0.23964   0.04782   0.00000  Uiso   1.00
Cl197  Cl    0.78305   0.11674   0.15180   0.00000  Uiso   1.00
Cl198  Cl    0.78402   0.38338   0.33540   0.00000  Uiso   1.00
Cu199  Cu    0.83333   0.24999   0.29822   0.00000  Uiso   1.00
Cu200  Cu    0.83333   0.25000   0.20179   0.00000  Uiso   1.00
H201   H     0.99249   0.24970   0.19353   0.00000  Uiso   1.00
H202   H     0.80120   0.18539   0.46023   0.00000  Uiso   1.00
H203   H     0.91160   0.27002   0.13313   0.00000  Uiso   1.00
H204   H     0.80030   0.18613   0.37163   0.00000  Uiso   1.00
H205   H     0.75512   0.23013   0.11495   0.00000  Uiso   1.00
H206   H     0.86640   0.31369   0.37963   0.00000  Uiso   1.00
H207   H     0.73476   0.28759   0.47226   0.00000  Uiso   1.00
H208   H     0.98509   0.26941   0.42257   0.00000  Uiso   1.00
H209   H     0.93606   0.20313   0.44058   0.00000  Uiso   1.00
H210   H     0.97169   0.15351   0.00752   0.00000  Uiso   1.00
H211   H     0.72280   0.16957   0.05611   0.00000  Uiso   1.00
H212   H     0.67422   0.25022   0.30651   0.00000  Uiso   1.00
H213   H     0.79824   0.33824   0.00862   0.00000  Uiso   1.00
H214   H     0.82775   0.40646   0.05297   0.00000  Uiso   1.00
H215   H     0.91326   0.43840   0.04471   0.00000  Uiso   1.00
H216   H     0.96941   0.40168   0.49146   0.00000  Uiso   1.00
H217   H     0.94090   0.33314   0.44711   0.00000  Uiso   1.00
H218   H     0.86818   0.03162   0.32501   0.00000  Uiso   1.00
H219   H     0.86745   0.46842   0.18366   0.00000  Uiso   1.00
H220   H     0.86661   0.11204   0.32427   0.00000  Uiso   1.00
H221   H     0.86600   0.38802   0.18414   0.00000  Uiso   1.00
H222   H     0.79839   0.02758   0.17462   0.00000  Uiso   1.00
H223   H     0.79914   0.47245   0.31632   0.00000  Uiso   1.00
H224   H     0.91189   0.26873   0.04486   0.00000  Uiso   1.00
N225   N     0.83333   0.25001   0.12934   0.00000  Uiso   1.00
N226   N     0.83333   0.24999   0.37066   0.00000  Uiso   1.00
O227   O     0.83334   0.18572   0.29072   0.00000  Uiso   1.00
O228   O     0.83333   0.31427   0.20929   0.00000  Uiso   1.00
O229   O     0.83334   0.18573   0.20928   0.00000  Uiso   1.00
O230   O     0.83333   0.31427   0.29072   0.00000  Uiso   1.00
O231   O     0.75828   0.24999   0.28132   0.00000  Uiso   1.00
O232   O     0.90839   0.25000   0.21868   0.00000  Uiso   1.00
O233   O     0.75828   0.25000   0.19989   0.00000  Uiso   1.00
O234   O     0.90839   0.25000   0.30011   0.00000  Uiso   1.00
C235   C     0.16565   0.66489   0.24950   0.00000  Uiso   1.00
C236   C     0.18411   0.78828   0.44864   0.00000  Uiso   1.00
C237   C     0.16457   0.75072   0.02694   0.00000  Uiso   1.00
C238   C     0.16556   0.75148   0.47249   0.00000  Uiso   1.00
C239   C     0.06787   0.74997   0.23751   0.00000  Uiso   1.00
C240   C     0.26547   0.75002   0.26249   0.00000  Uiso   1.00
C241   C     0.01257   0.74990   0.23064   0.00000  Uiso   1.00
C242   C     0.32078   0.75006   0.26939   0.00000  Uiso   1.00
C243   C     0.18580   0.54828   0.29181   0.00000  Uiso   1.00
C244   C     0.18541   0.95176   0.21289   0.00000  Uiso   1.00
C245   C     0.18477   0.59410   0.29131   0.00000  Uiso   1.00
C246   C     0.16570   0.83512   0.25024   0.00000  Uiso   1.00
C247   C     0.18446   0.90593   0.21323   0.00000  Uiso   1.00
C248   C     0.16510   0.61652   0.24864   0.00000  Uiso   1.00
C249   C     0.16520   0.88350   0.25094   0.00000  Uiso   1.00
C250   C     0.14568   0.59210   0.20617   0.00000  Uiso   1.00
C251   C     0.14617   0.90794   0.28844   0.00000  Uiso   1.00
C252   C     0.14727   0.54619   0.20700   0.00000  Uiso   1.00
C253   C     0.14772   0.95384   0.28791   0.00000  Uiso   1.00
C254   C     0.16725   0.52416   0.24962   0.00000  Uiso   1.00
C255   C     0.16725   0.97588   0.25034   0.00000  Uiso   1.00
C256   C     0.06905   0.72966   0.01774   0.00000  Uiso   1.00
C257   C     0.20983   0.76077   0.05902   0.00000  Uiso   1.00
C258   C     0.04795   0.75794   0.48012   0.00000  Uiso   1.00
C259   C     0.00050   0.74803   0.45211   0.00000  Uiso   1.00
C260   C     0.30627   0.71055   0.46211   0.00000  Uiso   1.00
C261   C     0.32639   0.68260   0.49981   0.00000  Uiso   1.00
C262   C     0.04090   0.69195   0.02741   0.00000  Uiso   1.00
C263   C     0.20107   0.82990   0.47506   0.00000  Uiso   1.00
C264   C     0.16918   0.85142   0.00478   0.00000  Uiso   1.00
C265   C     0.18569   0.89028   0.02991   0.00000  Uiso   1.00
C266   C     0.23386   0.90831   0.02523   0.00000  Uiso   1.00
C267   C     0.26550   0.88761   0.49523   0.00000  Uiso   1.00
C268   C     0.14834   0.71443   0.44363   0.00000  Uiso   1.00
C269   C     0.24917   0.84870   0.47010   0.00000  Uiso   1.00
C270   C     0.20988   0.76099   0.10971   0.00000  Uiso   1.00
C271   C     0.14835   0.71462   0.39297   0.00000  Uiso   1.00
C272   C     0.12249   0.73892   0.09922   0.00000  Uiso   1.00
C273   C     0.18509   0.78596   0.39775   0.00000  Uiso   1.00
C274   C     0.11964   0.73964   0.04782   0.00000  Uiso   1.00
Cl275  Cl    0.11639   0.61674   0.15180   0.00000  Uiso   1.00
Cl276  Cl    0.11736   0.88338   0.33540   0.00000  Uiso   1.00
Cu277  Cu    0.16667   0.74999   0.29822   0.00000  Uiso   1.00
Cu278  Cu    0.16667   0.75000   0.20179   0.00000  Uiso   1.00
H279   H     0.32583   0.74970   0.19353   0.00000  Uiso   1.00
H280   H     0.13453   0.68539   0.46023   0.00000  Uiso   1.00
H281   H     0.24493   0.77002   0.13313   0.00000  Uiso   1.00
H282   H     0.13364   0.68613   0.37163   0.00000  Uiso   1.00
H283   H     0.08845   0.73013   0.11495   0.00000  Uiso   1.00
H284   H     0.19973   0.81369   0.37963   0.00000  Uiso   1.00
H285   H     0.06809   0.78759   0.47226   0.00000  Uiso   1.00
H286   H     0.31842   0.76941   0.42257   0.00000  Uiso   1.00
H287   H     0.26940   0.70313   0.44058   0.00000  Uiso   1.00
H288   H     0.30502   0.65351   0.00752   0.00000  Uiso   1.00
H289   H     0.05613   0.66957   0.05611   0.00000  Uiso   1.00
H290   H     0.00755   0.75022   0.30651   0.00000  Uiso   1.00
H291   H     0.13157   0.83824   0.00862   0.00000  Uiso   1.00
H292   H     0.16109   0.90646   0.05297   0.00000  Uiso   1.00
H293   H     0.24659   0.93840   0.04471   0.00000  Uiso   1.00
H294   H     0.30274   0.90168   0.49146   0.00000  Uiso   1.00
H295   H     0.27423   0.83314   0.44711   0.00000  Uiso   1.00
H296   H     0.20152   0.53162   0.32501   0.00000  Uiso   1.00
H297   H     0.20078   0.96842   0.18366   0.00000  Uiso   1.00
H298   H     0.19994   0.61204   0.32427   0.00000  Uiso   1.00
H299   H     0.19933   0.88802   0.18414   0.00000  Uiso   1.00
H300   H     0.13173   0.52758   0.17462   0.00000  Uiso   1.00
H301   H     0.13247   0.97245   0.31632   0.00000  Uiso   1.00
H302   H     0.24522   0.76873   0.04486   0.00000  Uiso   1.00
N303   N     0.16667   0.75001   0.12934   0.00000  Uiso   1.00
N304   N     0.16667   0.74999   0.37066   0.00000  Uiso   1.00
O305   O     0.16667   0.68572   0.29072   0.00000  Uiso   1.00
O306   O     0.16666   0.81427   0.20929   0.00000  Uiso   1.00
O307   O     0.16667   0.68573   0.20928   0.00000  Uiso   1.00
O308   O     0.16666   0.81427   0.29072   0.00000  Uiso   1.00
O309   O     0.09161   0.74999   0.28132   0.00000  Uiso   1.00
O310   O     0.24172   0.75000   0.21868   0.00000  Uiso   1.00
O311   O     0.09161   0.75000   0.19989   0.00000  Uiso   1.00
O312   O     0.24172   0.75000   0.30011   0.00000  Uiso   1.00
C313   C     0.49899   0.66489   0.24950   0.00000  Uiso   1.00
C314   C     0.51744   0.78828   0.44864   0.00000  Uiso   1.00
C315   C     0.49790   0.75072   0.02694   0.00000  Uiso   1.00
C316   C     0.49889   0.75148   0.47249   0.00000  Uiso   1.00
C317   C     0.40121   0.74997   0.23751   0.00000  Uiso   1.00
C318   C     0.59880   0.75002   0.26249   0.00000  Uiso   1.00
C319   C     0.34591   0.74990   0.23064   0.00000  Uiso   1.00
C320   C     0.65411   0.75006   0.26939   0.00000  Uiso   1.00
C321   C     0.51914   0.54828   0.29181   0.00000  Uiso   1.00
C322   C     0.51875   0.95176   0.21289   0.00000  Uiso   1.00
C323   C     0.51811   0.59410   0.29131   0.00000  Uiso   1.00
C324   C     0.49904   0.83512   0.25024   0.00000  Uiso   1.00
C325   C     0.51779   0.90593   0.21323   0.00000  Uiso   1.00
C326   C     0.49843   0.61652   0.24864   0.00000  Uiso   1.00
C327   C     0.49853   0.88350   0.25094   0.00000  Uiso   1.00
C328   C     0.47901   0.59210   0.20617   0.00000  Uiso   1.00
C329   C     0.47950   0.90794   0.28844   0.00000  Uiso   1.00
C330   C     0.48060   0.54619   0.20700   0.00000  Uiso   1.00
C331   C     0.48105   0.95384   0.28791   0.00000  Uiso   1.00
C332   C     0.50059   0.52416   0.24962   0.00000  Uiso   1.00
C333   C     0.50059   0.97588   0.25034   0.00000  Uiso   1.00
C334   C     0.40239   0.72966   0.01774   0.00000  Uiso   1.00
C335   C     0.54316   0.76077   0.05902   0.00000  Uiso   1.00
C336   C     0.38128   0.75794   0.48012   0.00000  Uiso   1.00
C337   C     0.33384   0.74803   0.45211   0.00000  Uiso   1.00
C338   C     0.63961   0.71055   0.46211   0.00000  Uiso   1.00
C339   C     0.65972   0.68260   0.49981   0.00000  Uiso   1.00
C340   C     0.37423   0.69195   0.02741   0.00000  Uiso   1.00
C341   C     0.53440   0.82990   0.47506   0.00000  Uiso   1.00
C342   C     0.50251   0.85142   0.00478   0.00000  Uiso   1.00
C343   C     0.51903   0.89028   0.02991   0.00000  Uiso   1.00
C344   C     0.56720   0.90831   0.02523   0.00000  Uiso   1.00
C345   C     0.59884   0.88761   0.49523   0.00000  Uiso   1.00
C346   C     0.48167   0.71443   0.44363   0.00000  Uiso   1.00
C347   C     0.58250   0.84870   0.47010   0.00000  Uiso   1.00
C348   C     0.54321   0.76099   0.10971   0.00000  Uiso   1.00
C349   C     0.48168   0.71462   0.39297   0.00000  Uiso   1.00
C350   C     0.45582   0.73892   0.09922   0.00000  Uiso   1.00
C351   C     0.51842   0.78596   0.39775   0.00000  Uiso   1.00
C352   C     0.45298   0.73964   0.04782   0.00000  Uiso   1.00
Cl353  Cl    0.44972   0.61674   0.15180   0.00000  Uiso   1.00
Cl354  Cl    0.45069   0.88338   0.33540   0.00000  Uiso   1.00
Cu355  Cu    0.50000   0.74999   0.29822   0.00000  Uiso   1.00
Cu356  Cu    0.50000   0.75000   0.20179   0.00000  Uiso   1.00
H357   H     0.65916   0.74970   0.19353   0.00000  Uiso   1.00
H358   H     0.46787   0.68539   0.46023   0.00000  Uiso   1.00
H359   H     0.57826   0.77002   0.13313   0.00000  Uiso   1.00
H360   H     0.46697   0.68613   0.37163   0.00000  Uiso   1.00
H361   H     0.42179   0.73013   0.11495   0.00000  Uiso   1.00
H362   H     0.53307   0.81369   0.37963   0.00000  Uiso   1.00
H363   H     0.40142   0.78759   0.47226   0.00000  Uiso   1.00
H364   H     0.65176   0.76941   0.42257   0.00000  Uiso   1.00
H365   H     0.60273   0.70313   0.44058   0.00000  Uiso   1.00
H366   H     0.63835   0.65351   0.00752   0.00000  Uiso   1.00
H367   H     0.38947   0.66957   0.05611   0.00000  Uiso   1.00
H368   H     0.34089   0.75022   0.30651   0.00000  Uiso   1.00
H369   H     0.46491   0.83824   0.00862   0.00000  Uiso   1.00
H370   H     0.49442   0.90646   0.05297   0.00000  Uiso   1.00
H371   H     0.57992   0.93840   0.04471   0.00000  Uiso   1.00
H372   H     0.63607   0.90168   0.49146   0.00000  Uiso   1.00
H373   H     0.60756   0.83314   0.44711   0.00000  Uiso   1.00
H374   H     0.53485   0.53162   0.32501   0.00000  Uiso   1.00
H375   H     0.53412   0.96842   0.18366   0.00000  Uiso   1.00
H376   H     0.53328   0.61204   0.32427   0.00000  Uiso   1.00
H377   H     0.53266   0.88802   0.18414   0.00000  Uiso   1.00
H378   H     0.46506   0.52758   0.17462   0.00000  Uiso   1.00
H379   H     0.46580   0.97245   0.31632   0.00000  Uiso   1.00
H380   H     0.57855   0.76873   0.04486   0.00000  Uiso   1.00
N381   N     0.50000   0.75001   0.12934   0.00000  Uiso   1.00
N382   N     0.50000   0.74999   0.37066   0.00000  Uiso   1.00
O383   O     0.50000   0.68572   0.29072   0.00000  Uiso   1.00
O384   O     0.50000   0.81427   0.20929   0.00000  Uiso   1.00
O385   O     0.50000   0.68573   0.20928   0.00000  Uiso   1.00
O386   O     0.50000   0.81427   0.29072   0.00000  Uiso   1.00
O387   O     0.42495   0.74999   0.28132   0.00000  Uiso   1.00
O388   O     0.57505   0.75000   0.21868   0.00000  Uiso   1.00
O389   O     0.42495   0.75000   0.19989   0.00000  Uiso   1.00
O390   O     0.57505   0.75000   0.30011   0.00000  Uiso   1.00
C391   C     0.83232   0.66489   0.24950   0.00000  Uiso   1.00
C392   C     0.85078   0.78828   0.44864   0.00000  Uiso   1.00
C393   C     0.83124   0.75072   0.02694   0.00000  Uiso   1.00
C394   C     0.83222   0.75148   0.47249   0.00000  Uiso   1.00
C395   C     0.73454   0.74997   0.23751   0.00000  Uiso   1.00
C396   C     0.93213   0.75002   0.26249   0.00000  Uiso   1.00
C397   C     0.67924   0.74990   0.23064   0.00000  Uiso   1.00
C398   C     0.98745   0.75006   0.26939   0.00000  Uiso   1.00
C399   C     0.85247   0.54828   0.29181   0.00000  Uiso   1.00
C400   C     0.85208   0.95176   0.21289   0.00000  Uiso   1.00
C401   C     0.85144   0.59410   0.29131   0.00000  Uiso   1.00
C402   C     0.83237   0.83512   0.25024   0.00000  Uiso   1.00
C403   C     0.85112   0.90593   0.21323   0.00000  Uiso   1.00
C404   C     0.83177   0.61652   0.24864   0.00000  Uiso   1.00
C405   C     0.83186   0.88350   0.25094   0.00000  Uiso   1.00
C406   C     0.81234   0.59210   0.20617   0.00000  Uiso   1.00
C407   C     0.81283   0.90794   0.28844   0.00000  Uiso   1.00
C408   C     0.81394   0.54619   0.20700   0.00000  Uiso   1.00
C409   C     0.81438   0.95384   0.28791   0.00000  Uiso   1.00
C410   C     0.83392   0.52416   0.24962   0.00000  Uiso   1.00
C411   C     0.83392   0.97588   0.25034   0.00000  Uiso   1.00
C412   C     0.73572   0.72966   0.01774   0.00000  Uiso   1.00
C413   C     0.87649   0.76077   0.05902   0.00000  Uiso   1.00
C414   C     0.71462   0.75794   0.48012   0.00000  Uiso   1.00
C415   C     0.66717   0.74803   0.45211   0.00000  Uiso   1.00
C416   C     0.97294   0.71055   0.46211   0.00000  Uiso   1.00
C417   C     0.99306   0.68260   0.49981   0.00000  Uiso   1.00
C418   C     0.70756   0.69195   0.02741   0.00000  Uiso   1.00
C419   C     0.86773   0.82990   0.47506   0.00000  Uiso   1.00
C420   C     0.83584   0.85142   0.00478   0.00000  Uiso   1.00
C421   C     0.85236   0.89028   0.02991   0.00000  Uiso   1.00
C422   C     0.90053   0.90831   0.02523   0.00000  Uiso   1.00
C423   C     0.93217   0.88761   0.49523   0.00000  Uiso   1.00
C424   C     0.81500   0.71443   0.44363   0.00000  Uiso   1.00
C425   C     0.91584   0.84870   0.47010   0.00000  Uiso   1.00
C426   C     0.87654   0.76099   0.10971   0.00000  Uiso   1.00
C427   C     0.81502   0.71462   0.39297   0.00000  Uiso   1.00
C428   C     0.78915   0.73892   0.09922   0.00000  Uiso   1.00
C429   C     0.85175   0.78596   0.39775   0.00000  Uiso   1.00
C430   C     0.78631   0.73964   0.04782   0.00000  Uiso   1.00
Cl431  Cl    0.78305   0.61674   0.15180   0.00000  Uiso   1.00
Cl432  Cl    0.78402   0.88338   0.33540   0.00000  Uiso   1.00
Cu433  Cu    0.83333   0.74999   0.29822   0.00000  Uiso   1.00
Cu434  Cu    0.83333   0.75000   0.20179   0.00000  Uiso   1.00
H435   H     0.99249   0.74970   0.19353   0.00000  Uiso   1.00
H436   H     0.80120   0.68539   0.46023   0.00000  Uiso   1.00
H437   H     0.91160   0.77002   0.13313   0.00000  Uiso   1.00
H438   H     0.80030   0.68613   0.37163   0.00000  Uiso   1.00
H439   H     0.75512   0.73013   0.11495   0.00000  Uiso   1.00
H440   H     0.86640   0.81369   0.37963   0.00000  Uiso   1.00
H441   H     0.73476   0.78759   0.47226   0.00000  Uiso   1.00
H442   H     0.98509   0.76941   0.42257   0.00000  Uiso   1.00
H443   H     0.93606   0.70313   0.44058   0.00000  Uiso   1.00
H444   H     0.97169   0.65351   0.00752   0.00000  Uiso   1.00
H445   H     0.72280   0.66957   0.05611   0.00000  Uiso   1.00
H446   H     0.67422   0.75022   0.30651   0.00000  Uiso   1.00
H447   H     0.79824   0.83824   0.00862   0.00000  Uiso   1.00
H448   H     0.82775   0.90646   0.05297   0.00000  Uiso   1.00
H449   H     0.91326   0.93840   0.04471   0.00000  Uiso   1.00
H450   H     0.96941   0.90168   0.49146   0.00000  Uiso   1.00
H451   H     0.94090   0.83314   0.44711   0.00000  Uiso   1.00
H452   H     0.86818   0.53162   0.32501   0.00000  Uiso   1.00
H453   H     0.86745   0.96842   0.18366   0.00000  Uiso   1.00
H454   H     0.86661   0.61204   0.32427   0.00000  Uiso   1.00
H455   H     0.86600   0.88802   0.18414   0.00000  Uiso   1.00
H456   H     0.79839   0.52758   0.17462   0.00000  Uiso   1.00
H457   H     0.79914   0.97245   0.31632   0.00000  Uiso   1.00
H458   H     0.91189   0.76873   0.04486   0.00000  Uiso   1.00
N459   N     0.83333   0.75001   0.12934   0.00000  Uiso   1.00
N460   N     0.83333   0.74999   0.37066   0.00000  Uiso   1.00
O461   O     0.83334   0.68572   0.29072   0.00000  Uiso   1.00
O462   O     0.83333   0.81427   0.20929   0.00000  Uiso   1.00
O463   O     0.83334   0.68573   0.20928   0.00000  Uiso   1.00
O464   O     0.83333   0.81427   0.29072   0.00000  Uiso   1.00
O465   O     0.75828   0.74999   0.28132   0.00000  Uiso   1.00
O466   O     0.90839   0.75000   0.21868   0.00000  Uiso   1.00
O467   O     0.75828   0.75000   0.19989   0.00000  Uiso   1.00
O468   O     0.90839   0.75000   0.30011   0.00000  Uiso   1.00
C469   C     0.16565   0.16489   0.74950   0.00000  Uiso   1.00
C470   C     0.18411   0.28828   0.94864   0.00000  Uiso   1.00
C471   C     0.16457   0.25072   0.52694   0.00000  Uiso   1.00
C472   C     0.16556   0.25148   0.97249   0.00000  Uiso   1.00
C473   C     0.06787   0.24997   0.73751   0.00000  Uiso   1.00
C474   C     0.26547   0.25002   0.76249   0.00000  Uiso   1.00
C475   C     0.01257   0.24990   0.73064   0.00000  Uiso   1.00
C476   C     0.32078   0.25006   0.76939   0.00000  Uiso   1.00
C477   C     0.18580   0.04828   0.79181   0.00000  Uiso   1.00
C478   C     0.18541   0.45176   0.71289   0.00000  Uiso   1.00
C479   C     0.18477   0.09410   0.79131   0.00000  Uiso   1.00
C480   C     0.16570   0.33512   0.75024   0.00000  Uiso   1.00
C481   C     0.18446   0.40593   0.71323   0.00000  Uiso   1.00
C482   C     0.16510   0.11652   0.74864   0.00000  Uiso   1.00
C483   C     0.16520   0.38350   0.75094   0.00000  Uiso   1.00
C484   C     0.14568   0.09210   0.70617   0.00000  Uiso   1.00
C485   C     0.14617   0.40794   0.78844   0.00000  Uiso   1.00
C486   C     0.14727   0.04619   0.70700   0.00000  Uiso   1.00
C487   C     0.14772   0.45384   0.78791   0.00000  Uiso   1.00
C488   C     0.16725   0.02416   0.74962   0.00000  Uiso   1.00
C489   C     0.16725   0.47588   0.75034   0.00000  Uiso   1.00
C490   C     0.06905   0.22966   0.51774   0.00000  Uiso   1.00
C491   C     0.20983   0.26077   0.55902   0.00000  Uiso   1.00
C492   C     0.04795   0.25794   0.98012   0.00000  Uiso   1.00
C493   C     0.00050   0.24803   0.95211   0.00000  Uiso   1.00
C494   C     0.30627   0.21055   0.96211   0.00000  Uiso   1.00
C495   C     0.32639   0.18260   0.99981   0.00000  Uiso   1.00
C496   C     0.04090   0.19195   0.52741   0.00000  Uiso   1.00
C497   C     0.20107   0.32990   0.97506   0.00000  Uiso   1.00
C498   C     0.16918   0.35142   0.50478   0.00000  Uiso   1.00
C499   C     0.18569   0.39028   0.52991   0.00000  Uiso   1.00
C500   C     0.23386   0.40831   0.52523   0.00000  Uiso   1.00
C501   C     0.26550   0.38761   0.99523   0.00000  Uiso   1.00
C502   C     0.14834   0.21443   0.94363   0.00000  Uiso   1.00
C503   C     0.24917   0.34870   0.97010   0.00000  Uiso   1.00
C504   C     0.20988   0.26099   0.60971   0.00000  Uiso   1.00
C505   C     0.14835   0.21462   0.89297   0.00000  Uiso   1.00
C506   C     0.12249   0.23892   0.59922   0.00000  Uiso   1.00
C507   C     0.18509   0.28596   0.89775   0.00000  Uiso   1.00
C508   C     0.11964   0.23964   0.54782   0.00000  Uiso   1.00
Cl509  Cl    0.11639   0.11674   0.65180   0.00000  Uiso   1.00
Cl510  Cl    0.11736   0.38338   0.83540   0.00000  Uiso   1.00
Cu511  Cu    0.16667   0.24999   0.79822   0.00000  Uiso   1.00
Cu512  Cu    0.16667   0.25000   0.70179   0.00000  Uiso   1.00
H513   H     0.32583   0.24970   0.69353   0.00000  Uiso   1.00
H514   H     0.13453   0.18539   0.96023   0.00000  Uiso   1.00
H515   H     0.24493   0.27002   0.63313   0.00000  Uiso   1.00
H516   H     0.13364   0.18613   0.87163   0.00000  Uiso   1.00
H517   H     0.08845   0.23013   0.61495   0.00000  Uiso   1.00
H518   H     0.19973   0.31369   0.87963   0.00000  Uiso   1.00
H519   H     0.06809   0.28759   0.97226   0.00000  Uiso   1.00
H520   H     0.31842   0.26941   0.92257   0.00000  Uiso   1.00
H521   H     0.26940   0.20313   0.94058   0.00000  Uiso   1.00
H522   H     0.30502   0.15351   0.50752   0.00000  Uiso   1.00
H523   H     0.05613   0.16957   0.55611   0.00000  Uiso   1.00
H524   H     0.00755   0.25022   0.80651   0.00000  Uiso   1.00
H525   H     0.13157   0.33824   0.50862   0.00000  Uiso   1.00
H526   H     0.16109   0.40646   0.55297   0.00000  Uiso   1.00
H527   H     0.24659   0.43840   0.54471   0.00000  Uiso   1.00
H528   H     0.30274   0.40168   0.99146   0.00000  Uiso   1.00
H529   H     0.27423   0.33314   0.94711   0.00000  Uiso   1.00
H530   H     0.20152   0.03162   0.82501   0.00000  Uiso   1.00
H531   H     0.20078   0.46842   0.68366   0.00000  Uiso   1.00
H532   H     0.19994   0.11204   0.82427   0.00000  Uiso   1.00
H533   H     0.19933   0.38802   0.68414   0.00000  Uiso   1.00
H534   H     0.13173   0.02758   0.67462   0.00000  Uiso   1.00
H535   H     0.13247   0.47245   0.81632   0.00000  Uiso   1.00
H536   H     0.24522   0.26873   0.54486   0.00000  Uiso   1.00
N537   N     0.16667   0.25001   0.62934   0.00000  Uiso   1.00
N538   N     0.16667   0.24999   0.87066   0.00000  Uiso   1.00
O539   O     0.16667   0.18572   0.79072   0.00000  Uiso   1.00
O540   O     0.16666   0.31427   0.70929   0.00000  Uiso   1.00
O541   O     0.16667   0.18573   0.70928   0.00000  Uiso   1.00
O542   O     0.16666   0.31427   0.79072   0.00000  Uiso   1.00
O543   O     0.09161   0.24999   0.78132   0.00000  Uiso   1.00
O544   O     0.24172   0.25000   0.71868   0.00000  Uiso   1.00
O545   O     0.09161   0.25000   0.69989   0.00000  Uiso   1.00
O546   O     0.24172   0.25000   0.80011   0.00000  Uiso   1.00
C547   C     0.49899   0.16489   0.74950   0.00000  Uiso   1.00
C548   C     0.51744   0.28828   0.94864   0.00000  Uiso   1.00
C549   C     0.49790   0.25072   0.52694   0.00000  Uiso   1.00
C550   C     0.49889   0.25148   0.97249   0.00000  Uiso   1.00
C551   C     0.40121   0.24997   0.73751   0.00000  Uiso   1.00
C552   C     0.59880   0.25002   0.76249   0.00000  Uiso   1.00
C553   C     0.34591   0.24990   0.73064   0.00000  Uiso   1.00
C554   C     0.65411   0.25006   0.76939   0.00000  Uiso   1.00
C555   C     0.51914   0.04828   0.79181   0.00000  Uiso   1.00
C556   C     0.51875   0.45176   0.71289   0.00000  Uiso   1.00
C557   C     0.51811   0.09410   0.79131   0.00000  Uiso   1.00
C558   C     0.49904   0.33512   0.75024   0.00000  Uiso   1.00
C559   C     0.51779   0.40593   0.71323   0.00000  Uiso   1.00
C560   C     0.49843   0.11652   0.74864   0.00000  Uiso   1.00
C561   C     0.49853   0.38350   0.75094   0.00000  Uiso   1.00
C562   C     0.47901   0.09210   0.70617   0.00000  Uiso   1.00
C563   C     0.47950   0.40794   0.78844   0.00000  Uiso   1.00
C564   C     0.48060   0.04619   0.70700   0.00000  Uiso   1.00
C565   C     0.48105   0.45384   0.78791   0.00000  Uiso   1.00
C566   C     0.50059   0.02416   0.74962   0.00000  Uiso   1.00
C567   C     0.50059   0.47588   0.75034   0.00000  Uiso   1.00
C568   C     0.40239   0.22966   0.51774   0.00000  Uiso   1.00
C569   C     0.54316   0.26077   0.55902   0.00000  Uiso   1.00
C570   C     0.38128   0.25794   0.98012   0.00000  Uiso   1.00
C571   C     0.33384   0.24803   0.95211   0.00000  Uiso   1.00
C572   C     0.63961   0.21055   0.96211   0.00000  Uiso   1.00
C573   C     0.65972   0.18260   0.99981   0.00000  Uiso   1.00
C574   C     0.37423   0.19195   0.52741   0.00000  Uiso   1.00
C575   C     0.53440   0.32990   0.97506   0.00000  Uiso   1.00
C576   C     0.50251   0.35142   0.50478   0.00000  Uiso   1.00
C577   C     0.51903   0.39028   0.52991   0.00000  Uiso   1.00
C578   C     0.56720   0.40831   0.52523   0.00000  Uiso   1.00
C579   C     0.59884   0.38761   0.99523   0.00000  Uiso   1.00
C580   C     0.48167   0.21443   0.94363   0.00000  Uiso   1.00
C581   C     0.58250   0.34870   0.97010   0.00000  Uiso   1.00
C582   C     0.54321   0.26099   0.60971   0.00000  Uiso   1.00
C583   C     0.48168   0.21462   0.89297   0.00000  Uiso   1.00
C584   C     0.45582   0.23892   0.59922   0.00000  Uiso   1.00
C585   C     0.51842   0.28596   0.89775   0.00000  Uiso   1.00
C586   C     0.45298   0.23964   0.54782   0.00000  Uiso   1.00
Cl587  Cl    0.44972   0.11674   0.65180   0.00000  Uiso   1.00
Cl588  Cl    0.45069   0.38338   0.83540   0.00000  Uiso   1.00
Cu589  Cu    0.50000   0.24999   0.79822   0.00000  Uiso   1.00
Cu590  Cu    0.50000   0.25000   0.70179   0.00000  Uiso   1.00
H591   H     0.65916   0.24970   0.69353   0.00000  Uiso   1.00
H592   H     0.46787   0.18539   0.96023   0.00000  Uiso   1.00
H593   H     0.57826   0.27002   0.63313   0.00000  Uiso   1.00
H594   H     0.46697   0.18613   0.87163   0.00000  Uiso   1.00
H595   H     0.42179   0.23013   0.61495   0.00000  Uiso   1.00
H596   H     0.53307   0.31369   0.87963   0.00000  Uiso   1.00
H597   H     0.40142   0.28759   0.97226   0.00000  Uiso   1.00
H598   H     0.65176   0.26941   0.92257   0.00000  Uiso   1.00
H599   H     0.60273   0.20313   0.94058   0.00000  Uiso   1.00
H600   H     0.63835   0.15351   0.50752   0.00000  Uiso   1.00
H601   H     0.38947   0.16957   0.55611   0.00000  Uiso   1.00
H602   H     0.34089   0.25022   0.80651   0.00000  Uiso   1.00
H603   H     0.46491   0.33824   0.50862   0.00000  Uiso   1.00
H604   H     0.49442   0.40646   0.55297   0.00000  Uiso   1.00
H605   H     0.57992   0.43840   0.54471   0.00000  Uiso   1.00
H606   H     0.63607   0.40168   0.99146   0.00000  Uiso   1.00
H607   H     0.60756   0.33314   0.94711   0.00000  Uiso   1.00
H608   H     0.53485   0.03162   0.82501   0.00000  Uiso   1.00
H609   H     0.53412   0.46842   0.68366   0.00000  Uiso   1.00
H610   H     0.53328   0.11204   0.82427   0.00000  Uiso   1.00
H611   H     0.53266   0.38802   0.68414   0.00000  Uiso   1.00
H612   H     0.46506   0.02758   0.67462   0.00000  Uiso   1.00
H613   H     0.46580   0.47245   0.81632   0.00000  Uiso   1.00
H614   H     0.57855   0.26873   0.54486   0.00000  Uiso   1.00
N615   N     0.50000   0.25001   0.62934   0.00000  Uiso   1.00
N616   N     0.50000   0.24999   0.87066   0.00000  Uiso   1.00
O617   O     0.50000   0.18572   0.79072   0.00000  Uiso   1.00
O618   O     0.50000   0.31427   0.70929   0.00000  Uiso   1.00
O619   O     0.50000   0.18573   0.70928   0.00000  Uiso   1.00
O620   O     0.50000   0.31427   0.79072   0.00000  Uiso   1.00
O621   O     0.42495   0.24999   0.78132   0.00000  Uiso   1.00
O622   O     0.57505   0.25000   0.71868   0.00000  Uiso   1.00
O623   O     0.42495   0.25000   0.69989   0.00000  Uiso   1.00
O624   O     0.57505   0.25000   0.80011   0.00000  Uiso   1.00
C625   C     0.83232   0.16489   0.74950   0.00000  Uiso   1.00
C626   C     0.85078   0.28828   0.94864   0.00000  Uiso   1.00
C627   C     0.83124   0.25072   0.52694   0.00000  Uiso   1.00
C628   C     0.83222   0.25148   0.97249   0.00000  Uiso   1.00
C629   C     0.73454   0.24997   0.73751   0.00000  Uiso   1.00
C630   C     0.93213   0.25002   0.76249   0.00000  Uiso   1.00
C631   C     0.67924   0.24990   0.73064   0.00000  Uiso   1.00
C632   C     0.98745   0.25006   0.76939   0.00000  Uiso   1.00
C633   C     0.85247   0.04828   0.79181   0.00000  Uiso   1.00
C634   C     0.85208   0.45176   0.71289   0.00000  Uiso   1.00
C635   C     0.85144   0.09410   0.79131   0.00000  Uiso   1.00
C636   C     0.83237   0.33512   0.75024   0.00000  Uiso   1.00
C637   C     0.85112   0.40593   0.71323   0.00000  Uiso   1.00
C638   C     0.83177   0.11652   0.74864   0.00000  Uiso   1.00
C639   C     0.83186   0.38350   0.75094   0.00000  Uiso   1.00
C640   C     0.81234   0.09210   0.70617   0.00000  Uiso   1.00
C641   C     0.81283   0.40794   0.78844   0.00000  Uiso   1.00
C642   C     0.81394   0.04619   0.70700   0.00000  Uiso   1.00
C643   C     0.81438   0.45384   0.78791   0.00000  Uiso   1.00
C644   C     0.83392   0.02416   0.74962   0.00000  Uiso   1.00
C645   C     0.83392   0.47588   0.75034   0.00000  Uiso   1.00
C646   C     0.73572   0.22966   0.51774   0.00000  Uiso   1.00
C647   C     0.87649   0.26077   0.55902   0.00000  Uiso   1.00
C648   C     0.71462   0.25794   0.98012   0.00000  Uiso   1.00
C649   C     0.66717   0.24803   0.95211   0.00000  Uiso   1.00
C650   C     0.97294   0.21055   0.96211   0.00000  Uiso   1.00
C651   C     0.99306   0.18260   0.99981   0.00000  Uiso   1.00
C652   C     0.70756   0.19195   0.52741   0.00000  Uiso   1.00
C653   C     0.86773   0.32990   0.97506   0.00000  Uiso   1.00
C654   C     0.83584   0.35142   0.50478   0.00000  Uiso   1.00
C655   C     0.85236   0.39028   0.52991   0.00000  Uiso   1.00
C656   C     0.90053   0.40831   0.52523   0.00000  Uiso   1.00
C657   C     0.93217   0.38761   0.99523   0.00000  Uiso   1.00
C658   C     0.81500   0.21443   0.94363   0.00000  Uiso   1.00
C659   C     0.91584   0.34870   0.97010   0.00000  Uiso   1.00
C660   C     0.87654   0.26099   0.60971   0.00000  Uiso   1.00
C661   C     0.81502   0.21462   0.89297   0.00000  Uiso   1.00
C662   C     0.78915   0.23892   0.59922   0.00000  Uiso   1.00
C663   C     0.85175   0.28596   0.89775   0.00000  Uiso   1.00
C664   C     0.78631   0.23964   0.54782   0.00000  Uiso   1.00
Cl665  Cl    0.78305   0.11674   0.65180   0.00000  Uiso   1.00
Cl666  Cl    0.78402   0.38338   0.83540   0.00000  Uiso   1.00
Cu667  Cu    0.83333   0.24999   0.79822   0.00000  Uiso   1.00
Cu668  Cu    0.83333   0.25000   0.70179   0.00000  Uiso   1.00
H669   H     0.99249   0.24970   0.69353   0.00000  Uiso   1.00
H670   H     0.80120   0.18539   0.96023   0.00000  Uiso   1.00
H671   H     0.91160   0.27002   0.63313   0.00000  Uiso   1.00
H672   H     0.80030   0.18613   0.87163   0.00000  Uiso   1.00
H673   H     0.75512   0.23013   0.61495   0.00000  Uiso   1.00
H674   H     0.86640   0.31369   0.87963   0.00000  Uiso   1.00
H675   H     0.73476   0.28759   0.97226   0.00000  Uiso   1.00
H676   H     0.98509   0.26941   0.92257   0.00000  Uiso   1.00
H677   H     0.93606   0.20313   0.94058   0.00000  Uiso   1.00
H678   H     0.97169   0.15351   0.50752   0.00000  Uiso   1.00
H679   H     0.72280   0.16957   0.55611   0.00000  Uiso   1.00
H680   H     0.67422   0.25022   0.80651   0.00000  Uiso   1.00
H681   H     0.79824   0.33824   0.50862   0.00000  Uiso   1.00
H682   H     0.82775   0.40646   0.55297   0.00000  Uiso   1.00
H683   H     0.91326   0.43840   0.54471   0.00000  Uiso   1.00
H684   H     0.96941   0.40168   0.99146   0.00000  Uiso   1.00
H685   H     0.94090   0.33314   0.94711   0.00000  Uiso   1.00
H686   H     0.86818   0.03162   0.82501   0.00000  Uiso   1.00
H687   H     0.86745   0.46842   0.68366   0.00000  Uiso   1.00
H688   H     0.86661   0.11204   0.82427   0.00000  Uiso   1.00
H689   H     0.86600   0.38802   0.68414   0.00000  Uiso   1.00
H690   H     0.79839   0.02758   0.67462   0.00000  Uiso   1.00
H691   H     0.79914   0.47245   0.81632   0.00000  Uiso   1.00
H692   H     0.91189   0.26873   0.54486   0.00000  Uiso   1.00
N693   N     0.83333   0.25001   0.62934   0.00000  Uiso   1.00
N694   N     0.83333   0.24999   0.87066   0.00000  Uiso   1.00
O695   O     0.83334   0.18572   0.79072   0.00000  Uiso   1.00
O696   O     0.83333   0.31427   0.70929   0.00000  Uiso   1.00
O697   O     0.83334   0.18573   0.70928   0.00000  Uiso   1.00
O698   O     0.83333   0.31427   0.79072   0.00000  Uiso   1.00
O699   O     0.75828   0.24999   0.78132   0.00000  Uiso   1.00
O700   O     0.90839   0.25000   0.71868   0.00000  Uiso   1.00
O701   O     0.75828   0.25000   0.69989   0.00000  Uiso   1.00
O702   O     0.90839   0.25000   0.80011   0.00000  Uiso   1.00
C703   C     0.16565   0.66489   0.74950   0.00000  Uiso   1.00
C704   C     0.18411   0.78828   0.94864   0.00000  Uiso   1.00
C705   C     0.16457   0.75072   0.52694   0.00000  Uiso   1.00
C706   C     0.16556   0.75148   0.97249   0.00000  Uiso   1.00
C707   C     0.06787   0.74997   0.73751   0.00000  Uiso   1.00
C708   C     0.26547   0.75002   0.76249   0.00000  Uiso   1.00
C709   C     0.01257   0.74990   0.73064   0.00000  Uiso   1.00
C710   C     0.32078   0.75006   0.76939   0.00000  Uiso   1.00
C711   C     0.18580   0.54828   0.79181   0.00000  Uiso   1.00
C712   C     0.18541   0.95176   0.71289   0.00000  Uiso   1.00
C713   C     0.18477   0.59410   0.79131   0.00000  Uiso   1.00
C714   C     0.16570   0.83512   0.75024   0.00000  Uiso   1.00
C715   C     0.18446   0.90593   0.71323   0.00000  Uiso   1.00
C716   C     0.16510   0.61652   0.74864   0.00000  Uiso   1.00
C717   C     0.16520   0.88350   0.75094   0.00000  Uiso   1.00
C718   C     0.14568   0.59210   0.70617   0.00000  Uiso   1.00
C719   C     0.14617   0.90794   0.78844   0.00000  Uiso   1.00
C720   C     0.14727   0.54619   0.70700   0.00000  Uiso   1.00
C721   C     0.14772   0.95384   0.78791   0.00000  Uiso   1.00
C722   C     0.16725   0.52416   0.74962   0.00000  Uiso   1.00
C723   C     0.16725   0.97588   0.75034   0.00000  Uiso   1.00
C724   C     0.06905   0.72966   0.51774   0.00000  Uiso   1.00
C725   C     0.20983   0.76077   0.55902   0.00000  Uiso   1.00
C726   C     0.04795   0.75794   0.98012   0.00000  Uiso   1.00
C727   C     0.00050   0.74803   0.95211   0.00000  Uiso   1.00
C728   C     0.30627   0.71055   0.96211   0.00000  Uiso   1.00
C729   C     0.32639   0.68260   0.99981   0.00000  Uiso   1.00
C730   C     0.04090   0.69195   0.52741   0.00000  Uiso   1.00
C731   C     0.20107   0.82990   0.97506   0.00000  Uiso   1.00
C732   C     0.16918   0.85142   0.50478   0.00000  Uiso   1.00
C733   C     0.18569   0.89028   0.52991   0.00000  Uiso   1.00
C734   C     0.23386   0.90831   0.52523   0.00000  Uiso   1.00
C735   C     0.26550   0.88761   0.99523   0.00000  Uiso   1.00
C736   C     0.14834   0.71443   0.94363   0.00000  Uiso   1.00
C737   C     0.24917   0.84870   0.97010   0.00000  Uiso   1.00
C738   C     0.20988   0.76099   0.60971   0.00000  Uiso   1.00
C739   C     0.14835   0.71462   0.89297   0.00000  Uiso   1.00
C740   C     0.12249   0.73892   0.59922   0.00000  Uiso   1.00
C741   C     0.18509   0.78596   0.89775   0.00000  Uiso   1.00
C742   C     0.11964   0.73964   0.54782   0.00000  Uiso   1.00
Cl743  Cl    0.11639   0.61674   0.65180   0.00000  Uiso   1.00
Cl744  Cl    0.11736   0.88338   0.83540   0.00000  Uiso   1.00
Cu745  Cu    0.16667   0.74999   0.79822   0.00000  Uiso   1.00
Cu746  Cu    0.16667   0.75000   0.70179   0.00000  Uiso   1.00
H747   H     0.32583   0.74970   0.69353   0.00000  Uiso   1.00
H748   H     0.13453   0.68539   0.96023   0.00000  Uiso   1.00
H749   H     0.24493   0.77002   0.63313   0.00000  Uiso   1.00
H750   H     0.13364   0.68613   0.87163   0.00000  Uiso   1.00
H751   H     0.08845   0.73013   0.61495   0.00000  Uiso   1.00
H752   H     0.19973   0.81369   0.87963   0.00000  Uiso   1.00
H753   H     0.06809   0.78759   0.97226   0.00000  Uiso   1.00
H754   H     0.31842   0.76941   0.92257   0.00000  Uiso   1.00
H755   H     0.26940   0.70313   0.94058   0.00000  Uiso   1.00
H756   H     0.30502   0.65351   0.50752   0.00000  Uiso   1.00
H757   H     0.05613   0.66957   0.55611   0.00000  Uiso   1.00
H758   H     0.00755   0.75022   0.80651   0.00000  Uiso   1.00
H759   H     0.13157   0.83824   0.50862   0.00000  Uiso   1.00
H760   H     0.16109   0.90646   0.55297   0.00000  Uiso   1.00
H761   H     0.24659   0.93840   0.54471   0.00000  Uiso   1.00
H762   H     0.30274   0.90168   0.99146   0.00000  Uiso   1.00
H763   H     0.27423   0.83314   0.94711   0.00000  Uiso   1.00
H764   H     0.20152   0.53162   0.82501   0.00000  Uiso   1.00
H765   H     0.20078   0.96842   0.68366   0.00000  Uiso   1.00
H766   H     0.19994   0.61204   0.82427   0.00000  Uiso   1.00
H767   H     0.19933   0.88802   0.68414   0.00000  Uiso   1.00
H768   H     0.13173   0.52758   0.67462   0.00000  Uiso   1.00
H769   H     0.13247   0.97245   0.81632   0.00000  Uiso   1.00
H770   H     0.24522   0.76873   0.54486   0.00000  Uiso   1.00
N771   N     0.16667   0.75001   0.62934   0.00000  Uiso   1.00
N772   N     0.16667   0.74999   0.87066   0.00000  Uiso   1.00
O773   O     0.16667   0.68572   0.79072   0.00000  Uiso   1.00
O774   O     0.16666   0.81427   0.70929   0.00000  Uiso   1.00
O775   O     0.16667   0.68573   0.70928   0.00000  Uiso   1.00
O776   O     0.16666   0.81427   0.79072   0.00000  Uiso   1.00
O777   O     0.09161   0.74999   0.78132   0.00000  Uiso   1.00
O778   O     0.24172   0.75000   0.71868   0.00000  Uiso   1.00
O779   O     0.09161   0.75000   0.69989   0.00000  Uiso   1.00
O780   O     0.24172   0.75000   0.80011   0.00000  Uiso   1.00
C781   C     0.49899   0.66489   0.74950   0.00000  Uiso   1.00
C782   C     0.51744   0.78828   0.94864   0.00000  Uiso   1.00
C783   C     0.49790   0.75072   0.52694   0.00000  Uiso   1.00
C784   C     0.49889   0.75148   0.97249   0.00000  Uiso   1.00
C785   C     0.40121   0.74997   0.73751   0.00000  Uiso   1.00
C786   C     0.59880   0.75002   0.76249   0.00000  Uiso   1.00
C787   C     0.34591   0.74990   0.73064   0.00000  Uiso   1.00
C788   C     0.65411   0.75006   0.76939   0.00000  Uiso   1.00
C789   C     0.51914   0.54828   0.79181   0.00000  Uiso   1.00
C790   C     0.51875   0.95176   0.71289   0.00000  Uiso   1.00
C791   C     0.51811   0.59410   0.79131   0.00000  Uiso   1.00
C792   C     0.49904   0.83512   0.75024   0.00000  Uiso   1.00
C793   C     0.51779   0.90593   0.71323   0.00000  Uiso   1.00
C794   C     0.49843   0.61652   0.74864   0.00000  Uiso   1.00
C795   C     0.49853   0.88350   0.75094   0.00000  Uiso   1.00
C796   C     0.47901   0.59210   0.70617   0.00000  Uiso   1.00
C797   C     0.47950   0.90794   0.78844   0.00000  Uiso   1.00
C798   C     0.48060   0.54619   0.70700   0.00000  Uiso   1.00
C799   C     0.48105   0.95384   0.78791   0.00000  Uiso   1.00
C800   C     0.50059   0.52416   0.74962   0.00000  Uiso   1.00
C801   C     0.50059   0.97588   0.75034   0.00000  Uiso   1.00
C802   C     0.40239   0.72966   0.51774   0.00000  Uiso   1.00
C803   C     0.54316   0.76077   0.55902   0.00000  Uiso   1.00
C804   C     0.38128   0.75794   0.98012   0.00000  Uiso   1.00
C805   C     0.33384   0.74803   0.95211   0.00000  Uiso   1.00
C806   C     0.63961   0.71055   0.96211   0.00000  Uiso   1.00
C807   C     0.65972   0.68260   0.99981   0.00000  Uiso   1.00
C808   C     0.37423   0.69195   0.52741   0.00000  Uiso   1.00
C809   C     0.53440   0.82990   0.97506   0.00000  Uiso   1.00
C810   C     0.50251   0.85142   0.50478   0.00000  Uiso   1.00
C811   C     0.51903   0.89028   0.52991   0.00000  Uiso   1.00
C812   C     0.56720   0.90831   0.52523   0.00000  Uiso   1.00
C813   C     0.59884   0.88761   0.99523   0.00000  Uiso   1.00
C814   C     0.48167   0.71443   0.94363   0.00000  Uiso   1.00
C815   C     0.58250   0.84870   0.97010   0.00000  Uiso   1.00
C816   C     0.54321   0.76099   0.60971   0.00000  Uiso   1.00
C817   C     0.48168   0.71462   0.89297   0.00000  Uiso   1.00
C818   C     0.45582   0.73892   0.59922   0.00000  Uiso   1.00
C819   C     0.51842   0.78596   0.89775   0.00000  Uiso   1.00
C820   C     0.45298   0.73964   0.54782   0.00000  Uiso   1.00
Cl821  Cl    0.44972   0.61674   0.65180   0.00000  Uiso   1.00
Cl822  Cl    0.45069   0.88338   0.83540   0.00000  Uiso   1.00
Cu823  Cu    0.50000   0.74999   0.79822   0.00000  Uiso   1.00
Cu824  Cu    0.50000   0.75000   0.70179   0.00000  Uiso   1.00
H825   H     0.65916   0.74970   0.69353   0.00000  Uiso   1.00
H826   H     0.46787   0.68539   0.96023   0.00000  Uiso   1.00
H827   H     0.57826   0.77002   0.63313   0.00000  Uiso   1.00
H828   H     0.46697   0.68613   0.87163   0.00000  Uiso   1.00
H829   H     0.42179   0.73013   0.61495   0.00000  Uiso   1.00
H830   H     0.53307   0.81369   0.87963   0.00000  Uiso   1.00
H831   H     0.40142   0.78759   0.97226   0.00000  Uiso   1.00
H832   H     0.65176   0.76941   0.92257   0.00000  Uiso   1.00
H833   H     0.60273   0.70313   0.94058   0.00000  Uiso   1.00
H834   H     0.63835   0.65351   0.50752   0.00000  Uiso   1.00
H835   H     0.38947   0.66957   0.55611   0.00000  Uiso   1.00
H836   H     0.34089   0.75022   0.80651   0.00000  Uiso   1.00
H837   H     0.46491   0.83824   0.50862   0.00000  Uiso   1.00
H838   H     0.49442   0.90646   0.55297   0.00000  Uiso   1.00
H839   H     0.57992   0.93840   0.54471   0.00000  Uiso   1.00
H840   H     0.63607   0.90168   0.99146   0.00000  Uiso   1.00
H841   H     0.60756   0.83314   0.94711   0.00000  Uiso   1.00
H842   H     0.53485   0.53162   0.82501   0.00000  Uiso   1.00
H843   H     0.53412   0.96842   0.68366   0.00000  Uiso   1.00
H844   H     0.53328   0.61204   0.82427   0.00000  Uiso   1.00
H845   H     0.53266   0.88802   0.68414   0.00000  Uiso   1.00
H846   H     0.46506   0.52758   0.67462   0.00000  Uiso   1.00
H847   H     0.46580   0.97245   0.81632   0.00000  Uiso   1.00
H848   H     0.57855   0.76873   0.54486   0.00000  Uiso   1.00
N849   N     0.50000   0.75001   0.62934   0.00000  Uiso   1.00
N850   N     0.50000   0.74999   0.87066   0.00000  Uiso   1.00
O851   O     0.50000   0.68572   0.79072   0.00000  Uiso   1.00
O852   O     0.50000   0.81427   0.70929   0.00000  Uiso   1.00
O853   O     0.50000   0.68573   0.70928   0.00000  Uiso   1.00
O854   O     0.50000   0.81427   0.79072   0.00000  Uiso   1.00
O855   O     0.42495   0.74999   0.78132   0.00000  Uiso   1.00
O856   O     0.57505   0.75000   0.71868   0.00000  Uiso   1.00
O857   O     0.42495   0.75000   0.69989   0.00000  Uiso   1.00
O858   O     0.57505   0.75000   0.80011   0.00000  Uiso   1.00
C859   C     0.83232   0.66489   0.74950   0.00000  Uiso   1.00
C860   C     0.85078   0.78828   0.94864   0.00000  Uiso   1.00
C861   C     0.83124   0.75072   0.52694   0.00000  Uiso   1.00
C862   C     0.83222   0.75148   0.97249   0.00000  Uiso   1.00
C863   C     0.73454   0.74997   0.73751   0.00000  Uiso   1.00
C864   C     0.93213   0.75002   0.76249   0.00000  Uiso   1.00
C865   C     0.67924   0.74990   0.73064   0.00000  Uiso   1.00
C866   C     0.98745   0.75006   0.76939   0.00000  Uiso   1.00
C867   C     0.85247   0.54828   0.79181   0.00000  Uiso   1.00
C868   C     0.85208   0.95176   0.71289   0.00000  Uiso   1.00
C869   C     0.85144   0.59410   0.79131   0.00000  Uiso   1.00
C870   C     0.83237   0.83512   0.75024   0.00000  Uiso   1.00
C871   C     0.85112   0.90593   0.71323   0.00000  Uiso   1.00
C872   C     0.83177   0.61652   0.74864   0.00000  Uiso   1.00
C873   C     0.83186   0.88350   0.75094   0.00000  Uiso   1.00
C874   C     0.81234   0.59210   0.70617   0.00000  Uiso   1.00
C875   C     0.81283   0.90794   0.78844   0.00000  Uiso   1.00
C876   C     0.81394   0.54619   0.70700   0.00000  Uiso   1.00
C877   C     0.81438   0.95384   0.78791   0.00000  Uiso   1.00
C878   C     0.83392   0.52416   0.74962   0.00000  Uiso   1.00
C879   C     0.83392   0.97588   0.75034   0.00000  Uiso   1.00
C880   C     0.73572   0.72966   0.51774   0.00000  Uiso   1.00
C881   C     0.87649   0.76077   0.55902   0.00000  Uiso   1.00
C882   C     0.71462   0.75794   0.98012   0.00000  Uiso   1.00
C883   C     0.66717   0.74803   0.95211   0.00000  Uiso   1.00
C884   C     0.97294   0.71055   0.96211   0.00000  Uiso   1.00
C885   C     0.99306   0.68260   0.99981   0.00000  Uiso   1.00
C886   C     0.70756   0.69195   0.52741   0.00000  Uiso   1.00
C887   C     0.86773   0.82990   0.97506   0.00000  Uiso   1.00
C888   C     0.83584   0.85142   0.50478   0.00000  Uiso   1.00
C889   C     0.85236   0.89028   0.52991   0.00000  Uiso   1.00
C890   C     0.90053   0.90831   0.52523   0.00000  Uiso   1.00
C891   C     0.93217   0.88761   0.99523   0.00000  Uiso   1.00
C892   C     0.81500   0.71443   0.94363   0.00000  Uiso   1.00
C893   C     0.91584   0.84870   0.97010   0.00000  Uiso   1.00
C894   C     0.87654   0.76099   0.60971   0.00000  Uiso   1.00
C895   C     0.81502   0.71462   0.89297   0.00000  Uiso   1.00
C896   C     0.78915   0.73892   0.59922   0.00000  Uiso   1.00
C897   C     0.85175   0.78596   0.89775   0.00000  Uiso   1.00
C898   C     0.78631   0.73964   0.54782   0.00000  Uiso   1.00
Cl899  Cl    0.78305   0.61674   0.65180   0.00000  Uiso   1.00
Cl900  Cl    0.78402   0.88338   0.83540   0.00000  Uiso   1.00
Cu901  Cu    0.83333   0.74999   0.79822   0.00000  Uiso   1.00
Cu902  Cu    0.83333   0.75000   0.70179   0.00000  Uiso   1.00
H903   H     0.99249   0.74970   0.69353   0.00000  Uiso   1.00
H904   H     0.80120   0.68539   0.96023   0.00000  Uiso   1.00
H905   H     0.91160   0.77002   0.63313   0.00000  Uiso   1.00
H906   H     0.80030   0.68613   0.87163   0.00000  Uiso   1.00
H907   H     0.75512   0.73013   0.61495   0.00000  Uiso   1.00
H908   H     0.86640   0.81369   0.87963   0.00000  Uiso   1.00
H909   H     0.73476   0.78759   0.97226   0.00000  Uiso   1.00
H910   H     0.98509   0.76941   0.92257   0.00000  Uiso   1.00
H911   H     0.93606   0.70313   0.94058   0.00000  Uiso   1.00
H912   H     0.97169   0.65351   0.50752   0.00000  Uiso   1.00
H913   H     0.72280   0.66957   0.55611   0.00000  Uiso   1.00
H914   H     0.67422   0.75022   0.80651   0.00000  Uiso   1.00
H915   H     0.79824   0.83824   0.50862   0.00000  Uiso   1.00
H916   H     0.82775   0.90646   0.55297   0.00000  Uiso   1.00
H917   H     0.91326   0.93840   0.54471   0.00000  Uiso   1.00
H918   H     0.96941   0.90168   0.99146   0.00000  Uiso   1.00
H919   H     0.94090   0.83314   0.94711   0.00000  Uiso   1.00
H920   H     0.86818   0.53162   0.82501   0.00000  Uiso   1.00
H921   H     0.86745   0.96842   0.68366   0.00000  Uiso   1.00
H922   H     0.86661   0.61204   0.82427   0.00000  Uiso   1.00
H923   H     0.86600   0.88802   0.68414   0.00000  Uiso   1.00
H924   H     0.79839   0.52758   0.67462   0.00000  Uiso   1.00
H925   H     0.79914   0.97245   0.81632   0.00000  Uiso   1.00
H926   H     0.91189   0.76873   0.54486   0.00000  Uiso   1.00
N927   N     0.83333   0.75001   0.62934   0.00000  Uiso   1.00
N928   N     0.83333   0.74999   0.87066   0.00000  Uiso   1.00
O929   O     0.83334   0.68572   0.79072   0.00000  Uiso   1.00
O930   O     0.83333   0.81427   0.70929   0.00000  Uiso   1.00
O931   O     0.83334   0.68573   0.70928   0.00000  Uiso   1.00
O932   O     0.83333   0.81427   0.79072   0.00000  Uiso   1.00
O933   O     0.75828   0.74999   0.78132   0.00000  Uiso   1.00
O934   O     0.90839   0.75000   0.71868   0.00000  Uiso   1.00
O935   O     0.75828   0.75000   0.69989   0.00000  Uiso   1.00
O936   O     0.90839   0.75000   0.80011   0.00000  Uiso   1.00
loop_
_geom_bond_atom_site_label_1
_geom_bond_atom_site_label_2
_geom_bond_distance
_geom_bond_site_symmetry_2
_ccdc_geom_bond_type
C1     O71     1.296   .     A
C1     O73     1.291   .     A
C1     C14     1.465   .     S
C2     C29     1.487   .     S
C2     C39     1.415   .     A
C2     C4      1.422   .     A
C3     C23     1.408   .     A
C3     C40     1.423   .     A
C3     C472    1.513   1_554 S
C4     C34     1.407   .     A
C4     C471    1.513   .     S
C5     C7      1.432   .     S
C5     O75     1.283   .     A
C5     O77     1.287   .     A
C6     O78     1.286   .     A
C6     C8      1.432   .     S
C6     O76     1.284   .     A
C7     C164    1.335   1_455 S
C7     H201    1.087   1_455 S
C8     C85     1.335   .     S
C8     H134    1.087   .     S
C9     H62     1.083   .     S
C9     C20     1.399   .     A
C9     C11     1.389   .     A
C10    H63     1.083   .     S
C10    C21     1.399   .     A
C10    C13     1.389   .     A
C11    C14     1.404   .     A
C11    H64     1.083   .     S
C12    O74     1.291   .     A
C12    O72     1.296   .     A
C12    C15     1.466   .     S
C13    H65     1.083   .     S
C13    C15     1.404   .     A
C14    C16     1.415   .     A
C15    C17     1.416   .     A
C16    C18     1.392   .     A
C16    Cl41    1.765   .     S
C17    Cl42    1.764   .     S
C17    C19     1.392   .     A
C18    H66     1.084   .     S
C18    C20     1.399   .     A
C19    C21     1.399   .     A
C19    H67     1.084   .     S
C20    C255    1.463   1_545 S
C21    C254    1.463   .     S
C22    C28     1.408   .     A
C22    C40     1.490   .     S
C22    C492    1.408   1_554 S
C23    H68     1.083   .     S
C23    C36     1.404   .     A
C24    H51     1.081   .     S
C24    C25     1.399   .     A
C24    C490    1.408   .     S
C25    C182    1.396   1_455 S
C25    H208    1.082   1_455 S
C26    C27     1.397   .     A
C26    H53     1.082   .     S
C26    C103    1.396   .     S
C27    C574    1.399   .     S
C27    H522    1.083   .     S
C28    H55     1.083   .     S
C28    C651    1.399   1_454 S
C29    C35     1.406   .     A
C29    C498    1.407   .     S
C30    C31     1.398   .     A
C30    H57     1.081   .     S
C30    C497    1.407   1_554 S
C31    H58     1.082   .     S
C31    C32     1.396   .     A
C32    H59     1.082   .     S
C32    C501    1.397   1_554 S
C33    H60     1.082   .     S
C33    C35     1.398   .     A
C33    C500    1.397   .     S
C34    C37     1.404   .     A
C34    H46     1.083   .     S
C35    H61     1.081   .     S
C36    H47     1.079   .     S
C36    N69     1.364   .     A
C37    N70     1.363   .     A
C37    H48     1.080   .     S
C38    H49     1.080   .     S
C38    N69     1.366   .     A
C38    C40     1.416   .     A
C39    N70     1.365   .     A
C39    H50     1.081   .     S
Cu43   O78     1.956   .     S
Cu43   O75     1.953   .     S
Cu43   Cu44    2.672   .     S
Cu43   O71     1.956   .     S
Cu43   N70     2.007   .     S
Cu43   O74     1.961   .     S
Cu44   O77     1.956   .     S
Cu44   O76     1.953   .     S
Cu44   N69     2.007   .     S
Cu44   O72     1.956   .     S
Cu44   O73     1.961   .     S
H45    C85     1.087   .     S
H52    C103    1.082   .     S
H54    C495    1.083   1_554 S
H56    C164    1.087   1_455 S
C79    O149    1.296   .     A
C79    O151    1.291   .     A
C79    C92     1.465   .     S
C80    C107    1.487   .     S
C80    C117    1.415   .     A
C80    C82     1.422   .     A
C81    C101    1.408   .     A
C81    C118    1.423   .     A
C81    C550    1.513   1_554 S
C82    C112    1.407   .     A
C82    C549    1.513   .     S
C83    C85     1.432   .     S
C83    O153    1.283   .     A
C83    O155    1.287   .     A
C84    O156    1.286   .     A
C84    C86     1.432   .     S
C84    O154    1.284   .     A
C86    C163    1.335   .     S
C86    H212    1.087   .     S
C87    H140    1.083   .     S
C87    C98     1.399   .     A
C87    C89     1.389   .     A
C88    H141    1.083   .     S
C88    C99     1.399   .     A
C88    C91     1.389   .     A
C89    C92     1.404   .     A
C89    H142    1.083   .     S
C90    O152    1.291   .     A
C90    O150    1.296   .     A
C90    C93     1.466   .     S
C91    H143    1.083   .     S
C91    C93     1.404   .     A
C92    C94     1.415   .     A
C93    C95     1.416   .     A
C94    C96     1.392   .     A
C94    Cl119   1.765   .     S
C95    Cl120   1.764   .     S
C95    C97     1.392   .     A
C96    H144    1.084   .     S
C96    C98     1.399   .     A
C97    C99     1.399   .     A
C97    H145    1.084   .     S
C98    C333    1.463   1_545 S
C99    C332    1.463   .     S
C100   C106    1.408   .     A
C100   C118    1.490   .     S
C100   C570    1.408   1_554 S
C101   H146    1.083   .     S
C101   C114    1.404   .     A
C102   H129    1.081   .     S
C102   C103    1.399   .     A
C102   C568    1.408   .     S
C104   C105    1.397   .     A
C104   H131    1.082   .     S
C104   C181    1.396   .     S
C105   C652    1.399   .     S
C105   H600    1.083   .     S
C106   H133    1.083   .     S
C106   C495    1.399   1_554 S
C107   C113    1.406   .     A
C107   C576    1.407   .     S
C108   C109    1.398   .     A
C108   H135    1.081   .     S
C108   C575    1.407   1_554 S
C109   H136    1.082   .     S
C109   C110    1.396   .     A
C110   H137    1.082   .     S
C110   C579    1.397   1_554 S
C111   H138    1.082   .     S
C111   C113    1.398   .     A
C111   C578    1.397   .     S
C112   C115    1.404   .     A
C112   H124    1.083   .     S
C113   H139    1.081   .     S
C114   H125    1.079   .     S
C114   N147    1.364   .     A
C115   N148    1.363   .     A
C115   H126    1.080   .     S
C116   H127    1.080   .     S
C116   N147    1.366   .     A
C116   C118    1.416   .     A
C117   N148    1.365   .     A
C117   H128    1.081   .     S
Cu121  O156    1.956   .     S
Cu121  O153    1.953   .     S
Cu121  Cu122   2.672   .     S
Cu121  O149    1.956   .     S
Cu121  N148    2.007   .     S
Cu121  O152    1.961   .     S
Cu122  O155    1.956   .     S
Cu122  O154    1.953   .     S
Cu122  N147    2.007   .     S
Cu122  O150    1.956   .     S
Cu122  O151    1.961   .     S
H123   C163    1.087   .     S
H130   C181    1.082   .     S
H132   C573    1.083   1_554 S
C157   O227    1.296   .     A
C157   O229    1.291   .     A
C157   C170    1.465   .     S
C158   C185    1.487   .     S
C158   C195    1.415   .     A
C158   C160    1.422   .     A
C159   C179    1.408   .     A
C159   C196    1.423   .     A
C159   C628    1.513   1_554 S
C160   C190    1.407   .     A
C160   C627    1.513   .     S
C161   C163    1.432   .     S
C161   O231    1.283   .     A
C161   O233    1.287   .     A
C162   O234    1.286   .     A
C162   C164    1.432   .     S
C162   O232    1.284   .     A
C164   C7      1.335   1_655 S
C164   H56     1.087   1_655 S
C165   H218    1.083   .     S
C165   C176    1.399   .     A
C165   C167    1.389   .     A
C166   H219    1.083   .     S
C166   C177    1.399   .     A
C166   C169    1.389   .     A
C167   C170    1.404   .     A
C167   H220    1.083   .     S
C168   O230    1.291   .     A
C168   O228    1.296   .     A
C168   C171    1.466   .     S
C169   H221    1.083   .     S
C169   C171    1.404   .     A
C170   C172    1.415   .     A
C171   C173    1.416   .     A
C172   C174    1.392   .     A
C172   Cl197   1.765   .     S
C173   Cl198   1.764   .     S
C173   C175    1.392   .     A
C174   H222    1.084   .     S
C174   C176    1.399   .     A
C175   C177    1.399   .     A
C175   H223    1.084   .     S
C176   C411    1.463   1_545 S
C177   C410    1.463   .     S
C178   C184    1.408   .     A
C178   C196    1.490   .     S
C178   C648    1.408   1_554 S
C179   H224    1.083   .     S
C179   C192    1.404   .     A
C180   H207    1.081   .     S
C180   C181    1.399   .     A
C180   C646    1.408   .     S
C182   C183    1.397   .     A
C182   H209    1.082   .     S
C182   C25     1.396   1_655 S
C183   C496    1.399   1_655 S
C183   H678    1.083   .     S
C184   H211    1.083   .     S
C184   C573    1.399   1_554 S
C185   C191    1.406   .     A
C185   C654    1.407   .     S
C186   C187    1.398   .     A
C186   H213    1.081   .     S
C186   C653    1.407   1_554 S
C187   H214    1.082   .     S
C187   C188    1.396   .     A
C188   H215    1.082   .     S
C188   C657    1.397   1_554 S
C189   H216    1.082   .     S
C189   C191    1.398   .     A
C189   C656    1.397   .     S
C190   C193    1.404   .     A
C190   H202    1.083   .     S
C191   H217    1.081   .     S
C192   H203    1.079   .     S
C192   N225    1.364   .     A
C193   N226    1.363   .     A
C193   H204    1.080   .     S
C194   H205    1.080   .     S
C194   N225    1.366   .     A
C194   C196    1.416   .     A
C195   N226    1.365   .     A
C195   H206    1.081   .     S
Cu199  O234    1.956   .     S
Cu199  O231    1.953   .     S
Cu199  Cu200   2.672   .     S
Cu199  O227    1.956   .     S
Cu199  N226    2.007   .     S
Cu199  O230    1.961   .     S
Cu200  O233    1.956   .     S
Cu200  O232    1.953   .     S
Cu200  N225    2.007   .     S
Cu200  O228    1.956   .     S
Cu200  O229    1.961   .     S
H201   C7      1.087   1_655 S
H208   C25     1.082   1_655 S
H210   C651    1.083   1_554 S
C235   O305    1.296   .     A
C235   O307    1.291   .     A
C235   C248    1.465   .     S
C236   C263    1.487   .     S
C236   C273    1.415   .     A
C236   C238    1.422   .     A
C237   C257    1.408   .     A
C237   C274    1.423   .     A
C237   C706    1.513   1_554 S
C238   C268    1.407   .     A
C238   C705    1.513   .     S
C239   C241    1.432   .     S
C239   O309    1.283   .     A
C239   O311    1.287   .     A
C240   O312    1.286   .     A
C240   C242    1.432   .     S
C240   O310    1.284   .     A
C241   C398    1.335   1_455 S
C241   H435    1.087   1_455 S
C242   C319    1.335   .     S
C242   H368    1.087   .     S
C243   H296    1.083   .     S
C243   C254    1.399   .     A
C243   C245    1.389   .     A
C244   H297    1.083   .     S
C244   C255    1.399   .     A
C244   C247    1.389   .     A
C245   C248    1.404   .     A
C245   H298    1.083   .     S
C246   O308    1.291   .     A
C246   O306    1.296   .     A
C246   C249    1.466   .     S
C247   H299    1.083   .     S
C247   C249    1.404   .     A
C248   C250    1.415   .     A
C249   C251    1.416   .     A
C250   C252    1.392   .     A
C250   Cl275   1.765   .     S
C251   Cl276   1.764   .     S
C251   C253    1.392   .     A
C252   H300    1.084   .     S
C252   C254    1.399   .     A
C253   C255    1.399   .     A
C253   H301    1.084   .     S
C255   C20     1.463   1_565 S
C256   C262    1.408   .     A
C256   C274    1.490   .     S
C256   C726    1.408   1_554 S
C257   H302    1.083   .     S
C257   C270    1.404   .     A
C258   H285    1.081   .     S
C258   C259    1.399   .     A
C258   C724    1.408   .     S
C259   C416    1.396   1_455 S
C259   H442    1.082   1_455 S
C260   C261    1.397   .     A
C260   H287    1.082   .     S
C260   C337    1.396   .     S
C261   C808    1.399   .     S
C261   H756    1.083   .     S
C262   H289    1.083   .     S
C262   C885    1.399   1_454 S
C263   C269    1.406   .     A
C263   C732    1.407   .     S
C264   C265    1.398   .     A
C264   H291    1.081   .     S
C264   C731    1.407   1_554 S
C265   H292    1.082   .     S
C265   C266    1.396   .     A
C266   H293    1.082   .     S
C266   C735    1.397   1_554 S
C267   H294    1.082   .     S
C267   C269    1.398   .     A
C267   C734    1.397   .     S
C268   C271    1.404   .     A
C268   H280    1.083   .     S
C269   H295    1.081   .     S
C270   H281    1.079   .     S
C270   N303    1.364   .     A
C271   N304    1.363   .     A
C271   H282    1.080   .     S
C272   H283    1.080   .     S
C272   N303    1.366   .     A
C272   C274    1.416   .     A
C273   N304    1.365   .     A
C273   H284    1.081   .     S
Cu277  O312    1.956   .     S
Cu277  O309    1.953   .     S
Cu277  Cu278   2.672   .     S
Cu277  O305    1.956   .     S
Cu277  N304    2.007   .     S
Cu277  O308    1.961   .     S
Cu278  O311    1.956   .     S
Cu278  O310    1.953   .     S
Cu278  N303    2.007   .     S
Cu278  O306    1.956   .     S
Cu278  O307    1.961   .     S
H279   C319    1.087   .     S
H286   C337    1.082   .     S
H288   C729    1.083   1_554 S
H290   C398    1.087   1_455 S
C313   O383    1.296   .     A
C313   O385    1.291   .     A
C313   C326    1.465   .     S
C314   C341    1.487   .     S
C314   C351    1.415   .     A
C314   C316    1.422   .     A
C315   C335    1.408   .     A
C315   C352    1.423   .     A
C315   C784    1.513   1_554 S
C316   C346    1.407   .     A
C316   C783    1.513   .     S
C317   C319    1.432   .     S
C317   O387    1.283   .     A
C317   O389    1.287   .     A
C318   O390    1.286   .     A
C318   C320    1.432   .     S
C318   O388    1.284   .     A
C320   C397    1.335   .     S
C320   H446    1.087   .     S
C321   H374    1.083   .     S
C321   C332    1.399   .     A
C321   C323    1.389   .     A
C322   H375    1.083   .     S
C322   C333    1.399   .     A
C322   C325    1.389   .     A
C323   C326    1.404   .     A
C323   H376    1.083   .     S
C324   O386    1.291   .     A
C324   O384    1.296   .     A
C324   C327    1.466   .     S
C325   H377    1.083   .     S
C325   C327    1.404   .     A
C326   C328    1.415   .     A
C327   C329    1.416   .     A
C328   C330    1.392   .     A
C328   Cl353   1.765   .     S
C329   Cl354   1.764   .     S
C329   C331    1.392   .     A
C330   H378    1.084   .     S
C330   C332    1.399   .     A
C331   C333    1.399   .     A
C331   H379    1.084   .     S
C333   C98     1.463   1_565 S
C334   C340    1.408   .     A
C334   C352    1.490   .     S
C334   C804    1.408   1_554 S
C335   H380    1.083   .     S
C335   C348    1.404   .     A
C336   H363    1.081   .     S
C336   C337    1.399   .     A
C336   C802    1.408   .     S
C338   C339    1.397   .     A
C338   H365    1.082   .     S
C338   C415    1.396   .     S
C339   C886    1.399   .     S
C339   H834    1.083   .     S
C340   H367    1.083   .     S
C340   C729    1.399   1_554 S
C341   C347    1.406   .     A
C341   C810    1.407   .     S
C342   C343    1.398   .     A
C342   H369    1.081   .     S
C342   C809    1.407   1_554 S
C343   H370    1.082   .     S
C343   C344    1.396   .     A
C344   H371    1.082   .     S
C344   C813    1.397   1_554 S
C345   H372    1.082   .     S
C345   C347    1.398   .     A
C345   C812    1.397   .     S
C346   C349    1.404   .     A
C346   H358    1.083   .     S
C347   H373    1.081   .     S
C348   H359    1.079   .     S
C348   N381    1.364   .     A
C349   N382    1.363   .     A
C349   H360    1.080   .     S
C350   H361    1.080   .     S
C350   N381    1.366   .     A
C350   C352    1.416   .     A
C351   N382    1.365   .     A
C351   H362    1.081   .     S
Cu355  O390    1.956   .     S
Cu355  O387    1.953   .     S
Cu355  Cu356   2.672   .     S
Cu355  O383    1.956   .     S
Cu355  N382    2.007   .     S
Cu355  O386    1.961   .     S
Cu356  O389    1.956   .     S
Cu356  O388    1.953   .     S
Cu356  N381    2.007   .     S
Cu356  O384    1.956   .     S
Cu356  O385    1.961   .     S
H357   C397    1.087   .     S
H364   C415    1.082   .     S
H366   C807    1.083   1_554 S
C391   O461    1.296   .     A
C391   O463    1.291   .     A
C391   C404    1.465   .     S
C392   C419    1.487   .     S
C392   C429    1.415   .     A
C392   C394    1.422   .     A
C393   C413    1.408   .     A
C393   C430    1.423   .     A
C393   C862    1.513   1_554 S
C394   C424    1.407   .     A
C394   C861    1.513   .     S
C395   C397    1.432   .     S
C395   O465    1.283   .     A
C395   O467    1.287   .     A
C396   O468    1.286   .     A
C396   C398    1.432   .     S
C396   O466    1.284   .     A
C398   C241    1.335   1_655 S
C398   H290    1.087   1_655 S
C399   H452    1.083   .     S
C399   C410    1.399   .     A
C399   C401    1.389   .     A
C400   H453    1.083   .     S
C400   C411    1.399   .     A
C400   C403    1.389   .     A
C401   C404    1.404   .     A
C401   H454    1.083   .     S
C402   O464    1.291   .     A
C402   O462    1.296   .     A
C402   C405    1.466   .     S
C403   H455    1.083   .     S
C403   C405    1.404   .     A
C404   C406    1.415   .     A
C405   C407    1.416   .     A
C406   C408    1.392   .     A
C406   Cl431   1.765   .     S
C407   Cl432   1.764   .     S
C407   C409    1.392   .     A
C408   H456    1.084   .     S
C408   C410    1.399   .     A
C409   C411    1.399   .     A
C409   H457    1.084   .     S
C411   C176    1.463   1_565 S
C412   C418    1.408   .     A
C412   C430    1.490   .     S
C412   C882    1.408   1_554 S
C413   H458    1.083   .     S
C413   C426    1.404   .     A
C414   H441    1.081   .     S
C414   C415    1.399   .     A
C414   C880    1.408   .     S
C416   C417    1.397   .     A
C416   H443    1.082   .     S
C416   C259    1.396   1_655 S
C417   C730    1.399   1_655 S
C417   H912    1.083   .     S
C418   H445    1.083   .     S
C418   C807    1.399   1_554 S
C419   C425    1.406   .     A
C419   C888    1.407   .     S
C420   C421    1.398   .     A
C420   H447    1.081   .     S
C420   C887    1.407   1_554 S
C421   H448    1.082   .     S
C421   C422    1.396   .     A
C422   H449    1.082   .     S
C422   C891    1.397   1_554 S
C423   H450    1.082   .     S
C423   C425    1.398   .     A
C423   C890    1.397   .     S
C424   C427    1.404   .     A
C424   H436    1.083   .     S
C425   H451    1.081   .     S
C426   H437    1.079   .     S
C426   N459    1.364   .     A
C427   N460    1.363   .     A
C427   H438    1.080   .     S
C428   H439    1.080   .     S
C428   N459    1.366   .     A
C428   C430    1.416   .     A
C429   N460    1.365   .     A
C429   H440    1.081   .     S
Cu433  O468    1.956   .     S
Cu433  O465    1.953   .     S
Cu433  Cu434   2.672   .     S
Cu433  O461    1.956   .     S
Cu433  N460    2.007   .     S
Cu433  O464    1.961   .     S
Cu434  O467    1.956   .     S
Cu434  O466    1.953   .     S
Cu434  N459    2.007   .     S
Cu434  O462    1.956   .     S
Cu434  O463    1.961   .     S
H435   C241    1.087   1_655 S
H442   C259    1.082   1_655 S
H444   C885    1.083   1_554 S
C469   O539    1.296   .     A
C469   O541    1.291   .     A
C469   C482    1.465   .     S
C470   C497    1.487   .     S
C470   C507    1.415   .     A
C470   C472    1.422   .     A
C471   C491    1.408   .     A
C471   C508    1.423   .     A
C472   C502    1.407   .     A
C472   C3      1.513   1_556 S
C473   C475    1.432   .     S
C473   O543    1.283   .     A
C473   O545    1.287   .     A
C474   O546    1.286   .     A
C474   C476    1.432   .     S
C474   O544    1.284   .     A
C475   C632    1.335   1_455 S
C475   H669    1.087   1_455 S
C476   C553    1.335   .     S
C476   H602    1.087   .     S
C477   H530    1.083   .     S
C477   C488    1.399   .     A
C477   C479    1.389   .     A
C478   H531    1.083   .     S
C478   C489    1.399   .     A
C478   C481    1.389   .     A
C479   C482    1.404   .     A
C479   H532    1.083   .     S
C480   O542    1.291   .     A
C480   O540    1.296   .     A
C480   C483    1.466   .     S
C481   H533    1.083   .     S
C481   C483    1.404   .     A
C482   C484    1.415   .     A
C483   C485    1.416   .     A
C484   C486    1.392   .     A
C484   Cl509   1.765   .     S
C485   Cl510   1.764   .     S
C485   C487    1.392   .     A
C486   H534    1.084   .     S
C486   C488    1.399   .     A
C487   C489    1.399   .     A
C487   H535    1.084   .     S
C488   C723    1.463   1_545 S
C489   C722    1.463   .     S
C490   C496    1.408   .     A
C490   C508    1.490   .     S
C491   H536    1.083   .     S
C491   C504    1.404   .     A
C492   H519    1.081   .     S
C492   C493    1.399   .     A
C492   C22     1.408   1_556 S
C493   C650    1.396   1_455 S
C493   H676    1.082   1_455 S
C494   C495    1.397   .     A
C494   H521    1.082   .     S
C494   C571    1.396   .     S
C495   C106    1.399   1_556 S
C495   H54     1.083   1_556 S
C496   H523    1.083   .     S
C496   C183    1.399   1_455 S
C497   C503    1.406   .     A
C497   C30     1.407   1_556 S
C498   C499    1.398   .     A
C498   H525    1.081   .     S
C499   H526    1.082   .     S
C499   C500    1.396   .     A
C500   H527    1.082   .     S
C501   H528    1.082   .     S
C501   C503    1.398   .     A
C501   C32     1.397   1_556 S
C502   C505    1.404   .     A
C502   H514    1.083   .     S
C503   H529    1.081   .     S
C504   H515    1.079   .     S
C504   N537    1.364   .     A
C505   N538    1.363   .     A
C505   H516    1.080   .     S
C506   H517    1.080   .     S
C506   N537    1.366   .     A
C506   C508    1.416   .     A
C507   N538    1.365   .     A
C507   H518    1.081   .     S
Cu511  O546    1.956   .     S
Cu511  O543    1.953   .     S
Cu511  Cu512   2.672   .     S
Cu511  O539    1.956   .     S
Cu511  N538    2.007   .     S
Cu511  O542    1.961   .     S
Cu512  O545    1.956   .     S
Cu512  O544    1.953   .     S
Cu512  N537    2.007   .     S
Cu512  O540    1.956   .     S
Cu512  O541    1.961   .     S
H513   C553    1.087   .     S
H520   C571    1.082   .     S
H524   C632    1.087   1_455 S
C547   O617    1.296   .     A
C547   O619    1.291   .     A
C547   C560    1.465   .     S
C548   C575    1.487   .     S
C548   C585    1.415   .     A
C548   C550    1.422   .     A
C549   C569    1.408   .     A
C549   C586    1.423   .     A
C550   C580    1.407   .     A
C550   C81     1.513   1_556 S
C551   C553    1.432   .     S
C551   O621    1.283   .     A
C551   O623    1.287   .     A
C552   O624    1.286   .     A
C552   C554    1.432   .     S
C552   O622    1.284   .     A
C554   C631    1.335   .     S
C554   H680    1.087   .     S
C555   H608    1.083   .     S
C555   C566    1.399   .     A
C555   C557    1.389   .     A
C556   H609    1.083   .     S
C556   C567    1.399   .     A
C556   C559    1.389   .     A
C557   C560    1.404   .     A
C557   H610    1.083   .     S
C558   O620    1.291   .     A
C558   O618    1.296   .     A
C558   C561    1.466   .     S
C559   H611    1.083   .     S
C559   C561    1.404   .     A
C560   C562    1.415   .     A
C561   C563    1.416   .     A
C562   C564    1.392   .     A
C562   Cl587   1.765   .     S
C563   Cl588   1.764   .     S
C563   C565    1.392   .     A
C564   H612    1.084   .     S
C564   C566    1.399   .     A
C565   C567    1.399   .     A
C565   H613    1.084   .     S
C566   C801    1.463   1_545 S
C567   C800    1.463   .     S
C568   C574    1.408   .     A
C568   C586    1.490   .     S
C569   H614    1.083   .     S
C569   C582    1.404   .     A
C570   H597    1.081   .     S
C570   C571    1.399   .     A
C570   C100    1.408   1_556 S
C572   C573    1.397   .     A
C572   H599    1.082   .     S
C572   C649    1.396   .     S
C573   C184    1.399   1_556 S
C573   H132    1.083   1_556 S
C574   H601    1.083   .     S
C575   C581    1.406   .     A
C575   C108    1.407   1_556 S
C576   C577    1.398   .     A
C576   H603    1.081   .     S
C577   H604    1.082   .     S
C577   C578    1.396   .     A
C578   H605    1.082   .     S
C579   H606    1.082   .     S
C579   C581    1.398   .     A
C579   C110    1.397   1_556 S
C580   C583    1.404   .     A
C580   H592    1.083   .     S
C581   H607    1.081   .     S
C582   H593    1.079   .     S
C582   N615    1.364   .     A
C583   N616    1.363   .     A
C583   H594    1.080   .     S
C584   H595    1.080   .     S
C584   N615    1.366   .     A
C584   C586    1.416   .     A
C585   N616    1.365   .     A
C585   H596    1.081   .     S
Cu589  O624    1.956   .     S
Cu589  O621    1.953   .     S
Cu589  Cu590   2.672   .     S
Cu589  O617    1.956   .     S
Cu589  N616    2.007   .     S
Cu589  O620    1.961   .     S
Cu590  O623    1.956   .     S
Cu590  O622    1.953   .     S
Cu590  N615    2.007   .     S
Cu590  O618    1.956   .     S
Cu590  O619    1.961   .     S
H591   C631    1.087   .     S
H598   C649    1.082   .     S
C625   O695    1.296   .     A
C625   O697    1.291   .     A
C625   C638    1.465   .     S
C626   C653    1.487   .     S
C626   C663    1.415   .     A
C626   C628    1.422   .     A
C627   C647    1.408   .     A
C627   C664    1.423   .     A
C628   C658    1.407   .     A
C628   C159    1.513   1_556 S
C629   C631    1.432   .     S
C629   O699    1.283   .     A
C629   O701    1.287   .     A
C630   O702    1.286   .     A
C630   C632    1.432   .     S
C630   O700    1.284   .     A
C632   C475    1.335   1_655 S
C632   H524    1.087   1_655 S
C633   H686    1.083   .     S
C633   C644    1.399   .     A
C633   C635    1.389   .     A
C634   H687    1.083   .     S
C634   C645    1.399   .     A
C634   C637    1.389   .     A
C635   C638    1.404   .     A
C635   H688    1.083   .     S
C636   O698    1.291   .     A
C636   O696    1.296   .     A
C636   C639    1.466   .     S
C637   H689    1.083   .     S
C637   C639    1.404   .     A
C638   C640    1.415   .     A
C639   C641    1.416   .     A
C640   C642    1.392   .     A
C640   Cl665   1.765   .     S
C641   Cl666   1.764   .     S
C641   C643    1.392   .     A
C642   H690    1.084   .     S
C642   C644    1.399   .     A
C643   C645    1.399   .     A
C643   H691    1.084   .     S
C644   C879    1.463   1_545 S
C645   C878    1.463   .     S
C646   C652    1.408   .     A
C646   C664    1.490   .     S
C647   H692    1.083   .     S
C647   C660    1.404   .     A
C648   H675    1.081   .     S
C648   C649    1.399   .     A
C648   C178    1.408   1_556 S
C650   C651    1.397   .     A
C650   H677    1.082   .     S
C650   C493    1.396   1_655 S
C651   C28     1.399   1_656 S
C651   H210    1.083   1_556 S
C652   H679    1.083   .     S
C653   C659    1.406   .     A
C653   C186    1.407   1_556 S
C654   C655    1.398   .     A
C654   H681    1.081   .     S
C655   H682    1.082   .     S
C655   C656    1.396   .     A
C656   H683    1.082   .     S
C657   H684    1.082   .     S
C657   C659    1.398   .     A
C657   C188    1.397   1_556 S
C658   C661    1.404   .     A
C658   H670    1.083   .     S
C659   H685    1.081   .     S
C660   H671    1.079   .     S
C660   N693    1.364   .     A
C661   N694    1.363   .     A
C661   H672    1.080   .     S
C662   H673    1.080   .     S
C662   N693    1.366   .     A
C662   C664    1.416   .     A
C663   N694    1.365   .     A
C663   H674    1.081   .     S
Cu667  O702    1.956   .     S
Cu667  O699    1.953   .     S
Cu667  Cu668   2.672   .     S
Cu667  O695    1.956   .     S
Cu667  N694    2.007   .     S
Cu667  O698    1.961   .     S
Cu668  O701    1.956   .     S
Cu668  O700    1.953   .     S
Cu668  N693    2.007   .     S
Cu668  O696    1.956   .     S
Cu668  O697    1.961   .     S
H669   C475    1.087   1_655 S
H676   C493    1.082   1_655 S
C703   O773    1.296   .     A
C703   O775    1.291   .     A
C703   C716    1.465   .     S
C704   C731    1.487   .     S
C704   C741    1.415   .     A
C704   C706    1.422   .     A
C705   C725    1.408   .     A
C705   C742    1.423   .     A
C706   C736    1.407   .     A
C706   C237    1.513   1_556 S
C707   C709    1.432   .     S
C707   O777    1.283   .     A
C707   O779    1.287   .     A
C708   O780    1.286   .     A
C708   C710    1.432   .     S
C708   O778    1.284   .     A
C709   C866    1.335   1_455 S
C709   H903    1.087   1_455 S
C710   C787    1.335   .     S
C710   H836    1.087   .     S
C711   H764    1.083   .     S
C711   C722    1.399   .     A
C711   C713    1.389   .     A
C712   H765    1.083   .     S
C712   C723    1.399   .     A
C712   C715    1.389   .     A
C713   C716    1.404   .     A
C713   H766    1.083   .     S
C714   O776    1.291   .     A
C714   O774    1.296   .     A
C714   C717    1.466   .     S
C715   H767    1.083   .     S
C715   C717    1.404   .     A
C716   C718    1.415   .     A
C717   C719    1.416   .     A
C718   C720    1.392   .     A
C718   Cl743   1.765   .     S
C719   Cl744   1.764   .     S
C719   C721    1.392   .     A
C720   H768    1.084   .     S
C720   C722    1.399   .     A
C721   C723    1.399   .     A
C721   H769    1.084   .     S
C723   C488    1.463   1_565 S
C724   C730    1.408   .     A
C724   C742    1.490   .     S
C725   H770    1.083   .     S
C725   C738    1.404   .     A
C726   H753    1.081   .     S
C726   C727    1.399   .     A
C726   C256    1.408   1_556 S
C727   C884    1.396   1_455 S
C727   H910    1.082   1_455 S
C728   C729    1.397   .     A
C728   H755    1.082   .     S
C728   C805    1.396   .     S
C729   C340    1.399   1_556 S
C729   H288    1.083   1_556 S
C730   H757    1.083   .     S
C730   C417    1.399   1_455 S
C731   C737    1.406   .     A
C731   C264    1.407   1_556 S
C732   C733    1.398   .     A
C732   H759    1.081   .     S
C733   H760    1.082   .     S
C733   C734    1.396   .     A
C734   H761    1.082   .     S
C735   H762    1.082   .     S
C735   C737    1.398   .     A
C735   C266    1.397   1_556 S
C736   C739    1.404   .     A
C736   H748    1.083   .     S
C737   H763    1.081   .     S
C738   H749    1.079   .     S
C738   N771    1.364   .     A
C739   N772    1.363   .     A
C739   H750    1.080   .     S
C740   H751    1.080   .     S
C740   N771    1.366   .     A
C740   C742    1.416   .     A
C741   N772    1.365   .     A
C741   H752    1.081   .     S
Cu745  O780    1.956   .     S
Cu745  O777    1.953   .     S
Cu745  Cu746   2.672   .     S
Cu745  O773    1.956   .     S
Cu745  N772    2.007   .     S
Cu745  O776    1.961   .     S
Cu746  O779    1.956   .     S
Cu746  O778    1.953   .     S
Cu746  N771    2.007   .     S
Cu746  O774    1.956   .     S
Cu746  O775    1.961   .     S
H747   C787    1.087   .     S
H754   C805    1.082   .     S
H758   C866    1.087   1_455 S
C781   O851    1.296   .     A
C781   O853    1.291   .     A
C781   C794    1.465   .     S
C782   C809    1.487   .     S
C782   C819    1.415   .     A
C782   C784    1.422   .     A
C783   C803    1.408   .     A
C783   C820    1.423   .     A
C784   C814    1.407   .     A
C784   C315    1.513   1_556 S
C785   C787    1.432   .     S
C785   O855    1.283   .     A
C785   O857    1.287   .     A
C786   O858    1.286   .     A
C786   C788    1.432   .     S
C786   O856    1.284   .     A
C788   C865    1.335   .     S
C788   H914    1.087   .     S
C789   H842    1.083   .     S
C789   C800    1.399   .     A
C789   C791    1.389   .     A
C790   H843    1.083   .     S
C790   C801    1.399   .     A
C790   C793    1.389   .     A
C791   C794    1.404   .     A
C791   H844    1.083   .     S
C792   O854    1.291   .     A
C792   O852    1.296   .     A
C792   C795    1.466   .     S
C793   H845    1.083   .     S
C793   C795    1.404   .     A
C794   C796    1.415   .     A
C795   C797    1.416   .     A
C796   C798    1.392   .     A
C796   Cl821   1.765   .     S
C797   Cl822   1.764   .     S
C797   C799    1.392   .     A
C798   H846    1.084   .     S
C798   C800    1.399   .     A
C799   C801    1.399   .     A
C799   H847    1.084   .     S
C801   C566    1.463   1_565 S
C802   C808    1.408   .     A
C802   C820    1.490   .     S
C803   H848    1.083   .     S
C803   C816    1.404   .     A
C804   H831    1.081   .     S
C804   C805    1.399   .     A
C804   C334    1.408   1_556 S
C806   C807    1.397   .     A
C806   H833    1.082   .     S
C806   C883    1.396   .     S
C807   C418    1.399   1_556 S
C807   H366    1.083   1_556 S
C808   H835    1.083   .     S
C809   C815    1.406   .     A
C809   C342    1.407   1_556 S
C810   C811    1.398   .     A
C810   H837    1.081   .     S
C811   H838    1.082   .     S
C811   C812    1.396   .     A
C812   H839    1.082   .     S
C813   H840    1.082   .     S
C813   C815    1.398   .     A
C813   C344    1.397   1_556 S
C814   C817    1.404   .     A
C814   H826    1.083   .     S
C815   H841    1.081   .     S
C816   H827    1.079   .     S
C816   N849    1.364   .     A
C817   N850    1.363   .     A
C817   H828    1.080   .     S
C818   H829    1.080   .     S
C818   N849    1.366   .     A
C818   C820    1.416   .     A
C819   N850    1.365   .     A
C819   H830    1.081   .     S
Cu823  O858    1.956   .     S
Cu823  O855    1.953   .     S
Cu823  Cu824   2.672   .     S
Cu823  O851    1.956   .     S
Cu823  N850    2.007   .     S
Cu823  O854    1.961   .     S
Cu824  O857    1.956   .     S
Cu824  O856    1.953   .     S
Cu824  N849    2.007   .     S
Cu824  O852    1.956   .     S
Cu824  O853    1.961   .     S
H825   C865    1.087   .     S
H832   C883    1.082   .     S
C859   O929    1.296   .     A
C859   O931    1.291   .     A
C859   C872    1.465   .     S
C860   C887    1.487   .     S
C860   C897    1.415   .     A
C860   C862    1.422   .     A
C861   C881    1.408   .     A
C861   C898    1.423   .     A
C862   C892    1.407   .     A
C862   C393    1.513   1_556 S
C863   C865    1.432   .     S
C863   O933    1.283   .     A
C863   O935    1.287   .     A
C864   O936    1.286   .     A
C864   C866    1.432   .     S
C864   O934    1.284   .     A
C866   C709    1.335   1_655 S
C866   H758    1.087   1_655 S
C867   H920    1.083   .     S
C867   C878    1.399   .     A
C867   C869    1.389   .     A
C868   H921    1.083   .     S
C868   C879    1.399   .     A
C868   C871    1.389   .     A
C869   C872    1.404   .     A
C869   H922    1.083   .     S
C870   O932    1.291   .     A
C870   O930    1.296   .     A
C870   C873    1.466   .     S
C871   H923    1.083   .     S
C871   C873    1.404   .     A
C872   C874    1.415   .     A
C873   C875    1.416   .     A
C874   C876    1.392   .     A
C874   Cl899   1.765   .     S
C875   Cl900   1.764   .     S
C875   C877    1.392   .     A
C876   H924    1.084   .     S
C876   C878    1.399   .     A
C877   C879    1.399   .     A
C877   H925    1.084   .     S
C879   C644    1.463   1_565 S
C880   C886    1.408   .     A
C880   C898    1.490   .     S
C881   H926    1.083   .     S
C881   C894    1.404   .     A
C882   H909    1.081   .     S
C882   C883    1.399   .     A
C882   C412    1.408   1_556 S
C884   C885    1.397   .     A
C884   H911    1.082   .     S
C884   C727    1.396   1_655 S
C885   C262    1.399   1_656 S
C885   H444    1.083   1_556 S
C886   H913    1.083   .     S
C887   C893    1.406   .     A
C887   C420    1.407   1_556 S
C888   C889    1.398   .     A
C888   H915    1.081   .     S
C889   H916    1.082   .     S
C889   C890    1.396   .     A
C890   H917    1.082   .     S
C891   H918    1.082   .     S
C891   C893    1.398   .     A
C891   C422    1.397   1_556 S
C892   C895    1.404   .     A
C892   H904    1.083   .     S
C893   H919    1.081   .     S
C894   H905    1.079   .     S
C894   N927    1.364   .     A
C895   N928    1.363   .     A
C895   H906    1.080   .     S
C896   H907    1.080   .     S
C896   N927    1.366   .     A
C896   C898    1.416   .     A
C897   N928    1.365   .     A
C897   H908    1.081   .     S
Cu901  O936    1.956   .     S
Cu901  O933    1.953   .     S
Cu901  Cu902   2.672   .     S
Cu901  O929    1.956   .     S
Cu901  N928    2.007   .     S
Cu901  O932    1.961   .     S
Cu902  O935    1.956   .     S
Cu902  O934    1.953   .     S
Cu902  N927    2.007   .     S
Cu902  O930    1.956   .     S
Cu902  O931    1.961   .     S
H903   C709    1.087   1_655 S
H910   C727    1.082   1_655 S
