data_str_m3_o1_o2_pcu_sym.52
_audit_creation_date              2020-01-03
_audit_creation_method            'Materials Studio'
_symmetry_space_group_name_H-M    'P1'
_symmetry_Int_Tables_number       1
_symmetry_cell_setting            triclinic
loop_
_symmetry_equiv_pos_as_xyz
  x,y,z
_cell_length_a                    32.1659
_cell_length_b                    29.4878
_cell_length_c                    30.2932
_cell_angle_alpha                 89.9340
_cell_angle_beta                  90.5084
_cell_angle_gamma                 89.9936
loop_
_atom_site_label
_atom_site_type_symbol
_atom_site_fract_x
_atom_site_fract_y
_atom_site_fract_z
_atom_site_U_iso_or_equiv
_atom_site_adp_type
_atom_site_occupancy
C1     C     0.08661   0.16667   0.25002   0.00000  Uiso   1.00
C2     C     0.31205   0.20802   0.25034   0.00000  Uiso   1.00
C3     C     0.31206   0.12529   0.24979   0.00000  Uiso   1.00
C4     C     0.02128   0.20802   0.25039   0.00000  Uiso   1.00
C5     C     0.17320   0.20331   0.04566   0.00000  Uiso   1.00
C6     C     0.16888   0.12379   0.45260   0.00000  Uiso   1.00
C7     C     0.14927   0.20287   0.45308   0.00000  Uiso   1.00
C8     C     0.15317   0.12442   0.04799   0.00000  Uiso   1.00
C9     C     0.17091   0.20601   0.09108   0.00000  Uiso   1.00
C10    C     0.16695   0.12360   0.40703   0.00000  Uiso   1.00
C11    C     0.15573   0.20574   0.40814   0.00000  Uiso   1.00
C12    C     0.24672   0.16666   0.25002   0.00000  Uiso   1.00
C13    C     0.15939   0.12397   0.09318   0.00000  Uiso   1.00
C14    C     0.16579   0.16565   0.11569   0.00000  Uiso   1.00
C15    C     0.16326   0.16548   0.38414   0.00000  Uiso   1.00
C16    C     0.16150   0.16359   0.02384   0.00000  Uiso   1.00
C17    C     0.15921   0.16312   0.47587   0.00000  Uiso   1.00
C18    C     0.29087   0.16665   0.25004   0.00000  Uiso   1.00
C19    C     0.04247   0.16666   0.25009   0.00000  Uiso   1.00
C20    C     0.13773   0.26996   0.11545   0.00000  Uiso   1.00
C21    C     0.11808   0.28547   0.07137   0.00000  Uiso   1.00
C22    C     0.08426   0.32092   0.07861   0.00000  Uiso   1.00
C23    C     0.16665   0.16656   0.16378   0.00000  Uiso   1.00
C24    C     0.13256   0.06329   0.37603   0.00000  Uiso   1.00
C25    C     0.11337   0.04031   0.41653   0.00000  Uiso   1.00
C26    C     0.07731   0.00937   0.40343   0.00000  Uiso   1.00
C27    C     0.19142   0.26928   0.38659   0.00000  Uiso   1.00
C28    C     0.20803   0.28414   0.43221   0.00000  Uiso   1.00
C29    C     0.24243   0.31948   0.42803   0.00000  Uiso   1.00
C30    C     0.19650   0.06364   0.12050   0.00000  Uiso   1.00
C31    C     0.21280   0.04227   0.07778   0.00000  Uiso   1.00
C32    C     0.24951   0.01076   0.08692   0.00000  Uiso   1.00
C33    C     0.16602   0.16651   0.33619   0.00000  Uiso   1.00
C34    C     0.19749   0.02396   0.27112   0.00000  Uiso   1.00
C35    C     0.13539   0.30943   0.22968   0.00000  Uiso   1.00
C36    C     0.13575   0.02402   0.22904   0.00000  Uiso   1.00
C37    C     0.19779   0.30936   0.27062   0.00000  Uiso   1.00
C38    C     0.02128   0.12529   0.24984   0.00000  Uiso   1.00
F39    F     0.22800   0.04654   0.29301   0.00000  Uiso   1.00
F40    F     0.10358   0.28696   0.20997   0.00000  Uiso   1.00
F41    F     0.10513   0.04665   0.20732   0.00000  Uiso   1.00
F42    F     0.22916   0.28678   0.29109   0.00000  Uiso   1.00
H43    H     0.18236   0.23334   0.02763   0.00000  Uiso   1.00
H44    H     0.11525   0.24822   0.13355   0.00000  Uiso   1.00
H45    H     0.14213   0.29985   0.04946   0.00000  Uiso   1.00
H46    H     0.10378   0.25592   0.05433   0.00000  Uiso   1.00
H47    H     0.05953   0.30698   0.10011   0.00000  Uiso   1.00
H48    H     0.07019   0.33061   0.04635   0.00000  Uiso   1.00
H49    H     0.09764   0.01842   0.09421   0.00000  Uiso   1.00
H50    H     0.13732   0.03733   0.35000   0.00000  Uiso   1.00
H51    H     0.11030   0.08859   0.36196   0.00000  Uiso   1.00
H52    H     0.13734   0.02009   0.43405   0.00000  Uiso   1.00
H53    H     0.10162   0.06650   0.43961   0.00000  Uiso   1.00
H54    H     0.17733   0.09263   0.46932   0.00000  Uiso   1.00
H55    H     0.05264   0.02916   0.38622   0.00000  Uiso   1.00
H56    H     0.06393   0.32704   0.43348   0.00000  Uiso   1.00
H57    H     0.08830   0.31523   0.38135   0.00000  Uiso   1.00
H58    H     0.18755   0.29994   0.36567   0.00000  Uiso   1.00
H59    H     0.21489   0.24739   0.37018   0.00000  Uiso   1.00
H60    H     0.18259   0.29843   0.45233   0.00000  Uiso   1.00
H61    H     0.22093   0.25426   0.45002   0.00000  Uiso   1.00
H62    H     0.26852   0.30571   0.40834   0.00000  Uiso   1.00
H63    H     0.25430   0.32862   0.46138   0.00000  Uiso   1.00
H64    H     0.23025   0.01729   0.41183   0.00000  Uiso   1.00
H65    H     0.13912   0.23297   0.47034   0.00000  Uiso   1.00
H66    H     0.19390   0.03678   0.14609   0.00000  Uiso   1.00
H67    H     0.21951   0.08873   0.13342   0.00000  Uiso   1.00
H68    H     0.18765   0.02283   0.06136   0.00000  Uiso   1.00
H69    H     0.22304   0.06938   0.05482   0.00000  Uiso   1.00
H70    H     0.27535   0.02980   0.10291   0.00000  Uiso   1.00
H71    H     0.26075   0.32969   0.05534   0.00000  Uiso   1.00
H72    H     0.23996   0.31573   0.10875   0.00000  Uiso   1.00
H73    H     0.14340   0.09333   0.03202   0.00000  Uiso   1.00
H74    H     0.03742   0.09304   0.24967   0.00000  Uiso   1.00
H75    H     0.29593   0.24027   0.25052   0.00000  Uiso   1.00
H76    H     0.29592   0.09304   0.24952   0.00000  Uiso   1.00
H77    H     0.03740   0.24027   0.25067   0.00000  Uiso   1.00
H78    H     0.14348   0.30042   0.13610   0.00000  Uiso   1.00
N79    N     0.16667   0.28573   0.25000   0.00000  Uiso   1.00
N80    N     0.16667   0.04760   0.25000   0.00000  Uiso   1.00
O81    O     0.10559   0.20487   0.24999   0.00000  Uiso   1.00
O82    O     0.17208   0.08246   0.38577   0.00000  Uiso   1.00
O83    O     0.15192   0.24788   0.38837   0.00000  Uiso   1.00
O84    O     0.15628   0.08270   0.11474   0.00000  Uiso   1.00
O85    O     0.22774   0.12846   0.25000   0.00000  Uiso   1.00
O86    O     0.22774   0.20487   0.25000   0.00000  Uiso   1.00
O87    O     0.10559   0.12846   0.24999   0.00000  Uiso   1.00
O88    O     0.16666   0.20489   0.18453   0.00000  Uiso   1.00
O89    O     0.16667   0.12845   0.31547   0.00000  Uiso   1.00
O90    O     0.16667   0.20489   0.31547   0.00000  Uiso   1.00
O91    O     0.16666   0.12845   0.18453   0.00000  Uiso   1.00
O92    O     0.17670   0.24802   0.11045   0.00000  Uiso   1.00
Zn93   Zn    0.16667   0.21771   0.25000   0.00000  Uiso   1.00
Zn94   Zn    0.16667   0.11563   0.25000   0.00000  Uiso   1.00
C95    C     0.41994   0.16667   0.25002   0.00000  Uiso   1.00
C96    C     0.64539   0.20802   0.25034   0.00000  Uiso   1.00
C97    C     0.64539   0.12529   0.24979   0.00000  Uiso   1.00
C98    C     0.35461   0.20802   0.25039   0.00000  Uiso   1.00
C99    C     0.50653   0.20331   0.04566   0.00000  Uiso   1.00
C100   C     0.50221   0.12379   0.45260   0.00000  Uiso   1.00
C101   C     0.48260   0.20287   0.45308   0.00000  Uiso   1.00
C102   C     0.48650   0.12442   0.04799   0.00000  Uiso   1.00
C103   C     0.50425   0.20601   0.09108   0.00000  Uiso   1.00
C104   C     0.50029   0.12360   0.40703   0.00000  Uiso   1.00
C105   C     0.48907   0.20574   0.40814   0.00000  Uiso   1.00
C106   C     0.58006   0.16666   0.25002   0.00000  Uiso   1.00
C107   C     0.49273   0.12397   0.09318   0.00000  Uiso   1.00
C108   C     0.49912   0.16565   0.11569   0.00000  Uiso   1.00
C109   C     0.49659   0.16548   0.38414   0.00000  Uiso   1.00
C110   C     0.49484   0.16359   0.02384   0.00000  Uiso   1.00
C111   C     0.49255   0.16312   0.47587   0.00000  Uiso   1.00
C112   C     0.62420   0.16665   0.25004   0.00000  Uiso   1.00
C113   C     0.37580   0.16666   0.25009   0.00000  Uiso   1.00
C114   C     0.47107   0.26996   0.11545   0.00000  Uiso   1.00
C115   C     0.45142   0.28547   0.07137   0.00000  Uiso   1.00
C116   C     0.41759   0.32092   0.07861   0.00000  Uiso   1.00
C117   C     0.49999   0.16656   0.16378   0.00000  Uiso   1.00
C118   C     0.46590   0.06329   0.37603   0.00000  Uiso   1.00
C119   C     0.44670   0.04031   0.41653   0.00000  Uiso   1.00
C120   C     0.41065   0.00937   0.40343   0.00000  Uiso   1.00
C121   C     0.52475   0.26928   0.38659   0.00000  Uiso   1.00
C122   C     0.54136   0.28414   0.43221   0.00000  Uiso   1.00
C123   C     0.57576   0.31948   0.42803   0.00000  Uiso   1.00
C124   C     0.52983   0.06364   0.12050   0.00000  Uiso   1.00
C125   C     0.54613   0.04227   0.07778   0.00000  Uiso   1.00
C126   C     0.58285   0.01076   0.08692   0.00000  Uiso   1.00
C127   C     0.49936   0.16651   0.33619   0.00000  Uiso   1.00
C128   C     0.53083   0.02396   0.27112   0.00000  Uiso   1.00
C129   C     0.46872   0.30943   0.22968   0.00000  Uiso   1.00
C130   C     0.46908   0.02402   0.22904   0.00000  Uiso   1.00
C131   C     0.53112   0.30936   0.27062   0.00000  Uiso   1.00
C132   C     0.35462   0.12529   0.24984   0.00000  Uiso   1.00
F133   F     0.56133   0.04654   0.29301   0.00000  Uiso   1.00
F134   F     0.43691   0.28696   0.20997   0.00000  Uiso   1.00
F135   F     0.43847   0.04665   0.20732   0.00000  Uiso   1.00
F136   F     0.56249   0.28678   0.29109   0.00000  Uiso   1.00
H137   H     0.51570   0.23334   0.02763   0.00000  Uiso   1.00
H138   H     0.44858   0.24822   0.13355   0.00000  Uiso   1.00
H139   H     0.47546   0.29985   0.04946   0.00000  Uiso   1.00
H140   H     0.43711   0.25592   0.05433   0.00000  Uiso   1.00
H141   H     0.39287   0.30698   0.10011   0.00000  Uiso   1.00
H142   H     0.40352   0.33061   0.04635   0.00000  Uiso   1.00
H143   H     0.43097   0.01842   0.09421   0.00000  Uiso   1.00
H144   H     0.47065   0.03733   0.35000   0.00000  Uiso   1.00
H145   H     0.44363   0.08859   0.36196   0.00000  Uiso   1.00
H146   H     0.47067   0.02009   0.43405   0.00000  Uiso   1.00
H147   H     0.43495   0.06650   0.43961   0.00000  Uiso   1.00
H148   H     0.51066   0.09263   0.46932   0.00000  Uiso   1.00
H149   H     0.38597   0.02916   0.38622   0.00000  Uiso   1.00
H150   H     0.39726   0.32704   0.43348   0.00000  Uiso   1.00
H151   H     0.42163   0.31523   0.38135   0.00000  Uiso   1.00
H152   H     0.52088   0.29994   0.36567   0.00000  Uiso   1.00
H153   H     0.54822   0.24739   0.37018   0.00000  Uiso   1.00
H154   H     0.51592   0.29843   0.45233   0.00000  Uiso   1.00
H155   H     0.55427   0.25426   0.45002   0.00000  Uiso   1.00
H156   H     0.60185   0.30571   0.40834   0.00000  Uiso   1.00
H157   H     0.58763   0.32862   0.46138   0.00000  Uiso   1.00
H158   H     0.56358   0.01729   0.41183   0.00000  Uiso   1.00
H159   H     0.47245   0.23297   0.47034   0.00000  Uiso   1.00
H160   H     0.52723   0.03678   0.14609   0.00000  Uiso   1.00
H161   H     0.55285   0.08873   0.13342   0.00000  Uiso   1.00
H162   H     0.52098   0.02283   0.06136   0.00000  Uiso   1.00
H163   H     0.55637   0.06938   0.05482   0.00000  Uiso   1.00
H164   H     0.60868   0.02980   0.10291   0.00000  Uiso   1.00
H165   H     0.59408   0.32969   0.05534   0.00000  Uiso   1.00
H166   H     0.57330   0.31573   0.10875   0.00000  Uiso   1.00
H167   H     0.47673   0.09333   0.03202   0.00000  Uiso   1.00
H168   H     0.37075   0.09304   0.24967   0.00000  Uiso   1.00
H169   H     0.62926   0.24027   0.25052   0.00000  Uiso   1.00
H170   H     0.62926   0.09304   0.24952   0.00000  Uiso   1.00
H171   H     0.37073   0.24027   0.25067   0.00000  Uiso   1.00
H172   H     0.47681   0.30042   0.13610   0.00000  Uiso   1.00
N173   N     0.50000   0.28573   0.25000   0.00000  Uiso   1.00
N174   N     0.50000   0.04760   0.25000   0.00000  Uiso   1.00
O175   O     0.43892   0.20487   0.24999   0.00000  Uiso   1.00
O176   O     0.50541   0.08246   0.38577   0.00000  Uiso   1.00
O177   O     0.48525   0.24788   0.38837   0.00000  Uiso   1.00
O178   O     0.48961   0.08270   0.11474   0.00000  Uiso   1.00
O179   O     0.56108   0.12846   0.25000   0.00000  Uiso   1.00
O180   O     0.56108   0.20487   0.25000   0.00000  Uiso   1.00
O181   O     0.43892   0.12846   0.24999   0.00000  Uiso   1.00
O182   O     0.50000   0.20489   0.18453   0.00000  Uiso   1.00
O183   O     0.50000   0.12845   0.31547   0.00000  Uiso   1.00
O184   O     0.50000   0.20489   0.31547   0.00000  Uiso   1.00
O185   O     0.50000   0.12845   0.18453   0.00000  Uiso   1.00
O186   O     0.51004   0.24802   0.11045   0.00000  Uiso   1.00
Zn187  Zn    0.50000   0.21771   0.25000   0.00000  Uiso   1.00
Zn188  Zn    0.50000   0.11563   0.25000   0.00000  Uiso   1.00
C189   C     0.75328   0.16667   0.25002   0.00000  Uiso   1.00
C190   C     0.97872   0.20802   0.25034   0.00000  Uiso   1.00
C191   C     0.97872   0.12529   0.24979   0.00000  Uiso   1.00
C192   C     0.68794   0.20802   0.25039   0.00000  Uiso   1.00
C193   C     0.83986   0.20331   0.04566   0.00000  Uiso   1.00
C194   C     0.83554   0.12379   0.45260   0.00000  Uiso   1.00
C195   C     0.81594   0.20287   0.45308   0.00000  Uiso   1.00
C196   C     0.81983   0.12442   0.04799   0.00000  Uiso   1.00
C197   C     0.83758   0.20601   0.09108   0.00000  Uiso   1.00
C198   C     0.83362   0.12360   0.40703   0.00000  Uiso   1.00
C199   C     0.82240   0.20574   0.40814   0.00000  Uiso   1.00
C200   C     0.91339   0.16666   0.25002   0.00000  Uiso   1.00
C201   C     0.82606   0.12397   0.09318   0.00000  Uiso   1.00
C202   C     0.83245   0.16565   0.11569   0.00000  Uiso   1.00
C203   C     0.82993   0.16548   0.38414   0.00000  Uiso   1.00
C204   C     0.82817   0.16359   0.02384   0.00000  Uiso   1.00
C205   C     0.82588   0.16312   0.47587   0.00000  Uiso   1.00
C206   C     0.95754   0.16665   0.25004   0.00000  Uiso   1.00
C207   C     0.70913   0.16666   0.25009   0.00000  Uiso   1.00
C208   C     0.80440   0.26996   0.11545   0.00000  Uiso   1.00
C209   C     0.78475   0.28547   0.07137   0.00000  Uiso   1.00
C210   C     0.75093   0.32092   0.07861   0.00000  Uiso   1.00
C211   C     0.83332   0.16656   0.16378   0.00000  Uiso   1.00
C212   C     0.79923   0.06329   0.37603   0.00000  Uiso   1.00
C213   C     0.78004   0.04031   0.41653   0.00000  Uiso   1.00
C214   C     0.74398   0.00937   0.40343   0.00000  Uiso   1.00
C215   C     0.85808   0.26928   0.38659   0.00000  Uiso   1.00
C216   C     0.87469   0.28414   0.43221   0.00000  Uiso   1.00
C217   C     0.90909   0.31948   0.42803   0.00000  Uiso   1.00
C218   C     0.86316   0.06364   0.12050   0.00000  Uiso   1.00
C219   C     0.87946   0.04227   0.07778   0.00000  Uiso   1.00
C220   C     0.91618   0.01076   0.08692   0.00000  Uiso   1.00
C221   C     0.83269   0.16651   0.33619   0.00000  Uiso   1.00
C222   C     0.86416   0.02396   0.27112   0.00000  Uiso   1.00
C223   C     0.80205   0.30943   0.22968   0.00000  Uiso   1.00
C224   C     0.80242   0.02402   0.22904   0.00000  Uiso   1.00
C225   C     0.86445   0.30936   0.27062   0.00000  Uiso   1.00
C226   C     0.68795   0.12529   0.24984   0.00000  Uiso   1.00
F227   F     0.89466   0.04654   0.29301   0.00000  Uiso   1.00
F228   F     0.77024   0.28696   0.20997   0.00000  Uiso   1.00
F229   F     0.77180   0.04665   0.20732   0.00000  Uiso   1.00
F230   F     0.89583   0.28678   0.29109   0.00000  Uiso   1.00
H231   H     0.84903   0.23334   0.02763   0.00000  Uiso   1.00
H232   H     0.78192   0.24822   0.13355   0.00000  Uiso   1.00
H233   H     0.80879   0.29985   0.04946   0.00000  Uiso   1.00
H234   H     0.77045   0.25592   0.05433   0.00000  Uiso   1.00
H235   H     0.72620   0.30698   0.10011   0.00000  Uiso   1.00
H236   H     0.73686   0.33061   0.04635   0.00000  Uiso   1.00
H237   H     0.76431   0.01842   0.09421   0.00000  Uiso   1.00
H238   H     0.80399   0.03733   0.35000   0.00000  Uiso   1.00
H239   H     0.77696   0.08859   0.36196   0.00000  Uiso   1.00
H240   H     0.80401   0.02009   0.43405   0.00000  Uiso   1.00
H241   H     0.76828   0.06650   0.43961   0.00000  Uiso   1.00
H242   H     0.84400   0.09263   0.46932   0.00000  Uiso   1.00
H243   H     0.71931   0.02916   0.38622   0.00000  Uiso   1.00
H244   H     0.73059   0.32704   0.43348   0.00000  Uiso   1.00
H245   H     0.75497   0.31523   0.38135   0.00000  Uiso   1.00
H246   H     0.85421   0.29994   0.36567   0.00000  Uiso   1.00
H247   H     0.88155   0.24739   0.37018   0.00000  Uiso   1.00
H248   H     0.84926   0.29843   0.45233   0.00000  Uiso   1.00
H249   H     0.88760   0.25426   0.45002   0.00000  Uiso   1.00
H250   H     0.93518   0.30571   0.40834   0.00000  Uiso   1.00
H251   H     0.92097   0.32862   0.46138   0.00000  Uiso   1.00
H252   H     0.89691   0.01729   0.41183   0.00000  Uiso   1.00
H253   H     0.80578   0.23297   0.47034   0.00000  Uiso   1.00
H254   H     0.86056   0.03678   0.14609   0.00000  Uiso   1.00
H255   H     0.88618   0.08873   0.13342   0.00000  Uiso   1.00
H256   H     0.85432   0.02283   0.06136   0.00000  Uiso   1.00
H257   H     0.88970   0.06938   0.05482   0.00000  Uiso   1.00
H258   H     0.94202   0.02980   0.10291   0.00000  Uiso   1.00
H259   H     0.92741   0.32969   0.05534   0.00000  Uiso   1.00
H260   H     0.90663   0.31573   0.10875   0.00000  Uiso   1.00
H261   H     0.81006   0.09333   0.03202   0.00000  Uiso   1.00
H262   H     0.70409   0.09304   0.24967   0.00000  Uiso   1.00
H263   H     0.96259   0.24027   0.25052   0.00000  Uiso   1.00
H264   H     0.96259   0.09304   0.24952   0.00000  Uiso   1.00
H265   H     0.70407   0.24027   0.25067   0.00000  Uiso   1.00
H266   H     0.81014   0.30042   0.13610   0.00000  Uiso   1.00
N267   N     0.83333   0.28573   0.25000   0.00000  Uiso   1.00
N268   N     0.83333   0.04760   0.25000   0.00000  Uiso   1.00
O269   O     0.77226   0.20487   0.24999   0.00000  Uiso   1.00
O270   O     0.83874   0.08246   0.38577   0.00000  Uiso   1.00
O271   O     0.81859   0.24788   0.38837   0.00000  Uiso   1.00
O272   O     0.82295   0.08270   0.11474   0.00000  Uiso   1.00
O273   O     0.89441   0.12846   0.25000   0.00000  Uiso   1.00
O274   O     0.89441   0.20487   0.25000   0.00000  Uiso   1.00
O275   O     0.77226   0.12846   0.24999   0.00000  Uiso   1.00
O276   O     0.83333   0.20489   0.18453   0.00000  Uiso   1.00
O277   O     0.83334   0.12845   0.31547   0.00000  Uiso   1.00
O278   O     0.83334   0.20489   0.31547   0.00000  Uiso   1.00
O279   O     0.83333   0.12845   0.18453   0.00000  Uiso   1.00
O280   O     0.84337   0.24802   0.11045   0.00000  Uiso   1.00
Zn281  Zn    0.83333   0.21771   0.25000   0.00000  Uiso   1.00
Zn282  Zn    0.83333   0.11563   0.25000   0.00000  Uiso   1.00
C283   C     0.08661   0.50000   0.25002   0.00000  Uiso   1.00
C284   C     0.31205   0.54135   0.25034   0.00000  Uiso   1.00
C285   C     0.31206   0.45862   0.24979   0.00000  Uiso   1.00
C286   C     0.02128   0.54135   0.25039   0.00000  Uiso   1.00
C287   C     0.17320   0.53664   0.04566   0.00000  Uiso   1.00
C288   C     0.16888   0.45712   0.45260   0.00000  Uiso   1.00
C289   C     0.14927   0.53620   0.45308   0.00000  Uiso   1.00
C290   C     0.15317   0.45775   0.04799   0.00000  Uiso   1.00
C291   C     0.17091   0.53935   0.09108   0.00000  Uiso   1.00
C292   C     0.16695   0.45693   0.40703   0.00000  Uiso   1.00
C293   C     0.15573   0.53907   0.40814   0.00000  Uiso   1.00
C294   C     0.24672   0.50000   0.25002   0.00000  Uiso   1.00
C295   C     0.15939   0.45731   0.09318   0.00000  Uiso   1.00
C296   C     0.16579   0.49899   0.11569   0.00000  Uiso   1.00
C297   C     0.16326   0.49881   0.38414   0.00000  Uiso   1.00
C298   C     0.16150   0.49692   0.02384   0.00000  Uiso   1.00
C299   C     0.15921   0.49645   0.47587   0.00000  Uiso   1.00
C300   C     0.29087   0.49999   0.25004   0.00000  Uiso   1.00
C301   C     0.04247   0.49999   0.25009   0.00000  Uiso   1.00
C302   C     0.13773   0.60329   0.11545   0.00000  Uiso   1.00
C303   C     0.11808   0.61880   0.07137   0.00000  Uiso   1.00
C304   C     0.08426   0.65425   0.07861   0.00000  Uiso   1.00
C305   C     0.16665   0.49989   0.16378   0.00000  Uiso   1.00
C306   C     0.13256   0.39663   0.37603   0.00000  Uiso   1.00
C307   C     0.11337   0.37364   0.41653   0.00000  Uiso   1.00
C308   C     0.07731   0.34270   0.40343   0.00000  Uiso   1.00
C309   C     0.19142   0.60261   0.38659   0.00000  Uiso   1.00
C310   C     0.20803   0.61747   0.43221   0.00000  Uiso   1.00
C311   C     0.24243   0.65281   0.42803   0.00000  Uiso   1.00
C312   C     0.19650   0.39697   0.12050   0.00000  Uiso   1.00
C313   C     0.21280   0.37560   0.07778   0.00000  Uiso   1.00
C314   C     0.24951   0.34410   0.08692   0.00000  Uiso   1.00
C315   C     0.16602   0.49984   0.33619   0.00000  Uiso   1.00
C316   C     0.19749   0.35729   0.27112   0.00000  Uiso   1.00
C317   C     0.13539   0.64277   0.22968   0.00000  Uiso   1.00
C318   C     0.13575   0.35736   0.22904   0.00000  Uiso   1.00
C319   C     0.19779   0.64269   0.27062   0.00000  Uiso   1.00
C320   C     0.02128   0.45862   0.24984   0.00000  Uiso   1.00
F321   F     0.22800   0.37988   0.29301   0.00000  Uiso   1.00
F322   F     0.10358   0.62030   0.20997   0.00000  Uiso   1.00
F323   F     0.10513   0.37999   0.20732   0.00000  Uiso   1.00
F324   F     0.22916   0.62011   0.29109   0.00000  Uiso   1.00
H325   H     0.18236   0.56667   0.02763   0.00000  Uiso   1.00
H326   H     0.11525   0.58156   0.13355   0.00000  Uiso   1.00
H327   H     0.14213   0.63319   0.04946   0.00000  Uiso   1.00
H328   H     0.10378   0.58925   0.05433   0.00000  Uiso   1.00
H329   H     0.05953   0.64032   0.10011   0.00000  Uiso   1.00
H330   H     0.07019   0.66395   0.04635   0.00000  Uiso   1.00
H331   H     0.09764   0.35175   0.09421   0.00000  Uiso   1.00
H332   H     0.13732   0.37067   0.35000   0.00000  Uiso   1.00
H333   H     0.11030   0.42192   0.36196   0.00000  Uiso   1.00
H334   H     0.13734   0.35342   0.43405   0.00000  Uiso   1.00
H335   H     0.10162   0.39984   0.43961   0.00000  Uiso   1.00
H336   H     0.17733   0.42596   0.46932   0.00000  Uiso   1.00
H337   H     0.05264   0.36250   0.38622   0.00000  Uiso   1.00
H338   H     0.06393   0.66038   0.43348   0.00000  Uiso   1.00
H339   H     0.08830   0.64856   0.38135   0.00000  Uiso   1.00
H340   H     0.18755   0.63328   0.36567   0.00000  Uiso   1.00
H341   H     0.21489   0.58072   0.37018   0.00000  Uiso   1.00
H342   H     0.18259   0.63177   0.45233   0.00000  Uiso   1.00
H343   H     0.22093   0.58759   0.45002   0.00000  Uiso   1.00
H344   H     0.26852   0.63904   0.40834   0.00000  Uiso   1.00
H345   H     0.25430   0.66195   0.46138   0.00000  Uiso   1.00
H346   H     0.23025   0.35062   0.41183   0.00000  Uiso   1.00
H347   H     0.13912   0.56630   0.47034   0.00000  Uiso   1.00
H348   H     0.19390   0.37012   0.14609   0.00000  Uiso   1.00
H349   H     0.21951   0.42206   0.13342   0.00000  Uiso   1.00
H350   H     0.18765   0.35616   0.06136   0.00000  Uiso   1.00
H351   H     0.22304   0.40271   0.05482   0.00000  Uiso   1.00
H352   H     0.27535   0.36313   0.10291   0.00000  Uiso   1.00
H353   H     0.26075   0.66302   0.05534   0.00000  Uiso   1.00
H354   H     0.23996   0.64907   0.10875   0.00000  Uiso   1.00
H355   H     0.14340   0.42667   0.03202   0.00000  Uiso   1.00
H356   H     0.03742   0.42637   0.24967   0.00000  Uiso   1.00
H357   H     0.29593   0.57361   0.25052   0.00000  Uiso   1.00
H358   H     0.29592   0.42637   0.24952   0.00000  Uiso   1.00
H359   H     0.03740   0.57361   0.25067   0.00000  Uiso   1.00
H360   H     0.14348   0.63375   0.13610   0.00000  Uiso   1.00
N361   N     0.16667   0.61907   0.25000   0.00000  Uiso   1.00
N362   N     0.16667   0.38093   0.25000   0.00000  Uiso   1.00
O363   O     0.10559   0.53821   0.24999   0.00000  Uiso   1.00
O364   O     0.17208   0.41579   0.38577   0.00000  Uiso   1.00
O365   O     0.15192   0.58121   0.38837   0.00000  Uiso   1.00
O366   O     0.15628   0.41604   0.11474   0.00000  Uiso   1.00
O367   O     0.22774   0.46179   0.25000   0.00000  Uiso   1.00
O368   O     0.22774   0.53821   0.25000   0.00000  Uiso   1.00
O369   O     0.10559   0.46179   0.24999   0.00000  Uiso   1.00
O370   O     0.16666   0.53822   0.18453   0.00000  Uiso   1.00
O371   O     0.16667   0.46178   0.31547   0.00000  Uiso   1.00
O372   O     0.16667   0.53822   0.31547   0.00000  Uiso   1.00
O373   O     0.16666   0.46178   0.18453   0.00000  Uiso   1.00
O374   O     0.17670   0.58135   0.11045   0.00000  Uiso   1.00
Zn375  Zn    0.16667   0.55104   0.25000   0.00000  Uiso   1.00
Zn376  Zn    0.16667   0.44896   0.25000   0.00000  Uiso   1.00
C377   C     0.41994   0.50000   0.25002   0.00000  Uiso   1.00
C378   C     0.64539   0.54135   0.25034   0.00000  Uiso   1.00
C379   C     0.64539   0.45862   0.24979   0.00000  Uiso   1.00
C380   C     0.35461   0.54135   0.25039   0.00000  Uiso   1.00
C381   C     0.50653   0.53664   0.04566   0.00000  Uiso   1.00
C382   C     0.50221   0.45712   0.45260   0.00000  Uiso   1.00
C383   C     0.48260   0.53620   0.45308   0.00000  Uiso   1.00
C384   C     0.48650   0.45775   0.04799   0.00000  Uiso   1.00
C385   C     0.50425   0.53935   0.09108   0.00000  Uiso   1.00
C386   C     0.50029   0.45693   0.40703   0.00000  Uiso   1.00
C387   C     0.48907   0.53907   0.40814   0.00000  Uiso   1.00
C388   C     0.58006   0.50000   0.25002   0.00000  Uiso   1.00
C389   C     0.49273   0.45731   0.09318   0.00000  Uiso   1.00
C390   C     0.49912   0.49899   0.11569   0.00000  Uiso   1.00
C391   C     0.49659   0.49881   0.38414   0.00000  Uiso   1.00
C392   C     0.49484   0.49692   0.02384   0.00000  Uiso   1.00
C393   C     0.49255   0.49645   0.47587   0.00000  Uiso   1.00
C394   C     0.62420   0.49999   0.25004   0.00000  Uiso   1.00
C395   C     0.37580   0.49999   0.25009   0.00000  Uiso   1.00
C396   C     0.47107   0.60329   0.11545   0.00000  Uiso   1.00
C397   C     0.45142   0.61880   0.07137   0.00000  Uiso   1.00
C398   C     0.41759   0.65425   0.07861   0.00000  Uiso   1.00
C399   C     0.49999   0.49989   0.16378   0.00000  Uiso   1.00
C400   C     0.46590   0.39663   0.37603   0.00000  Uiso   1.00
C401   C     0.44670   0.37364   0.41653   0.00000  Uiso   1.00
C402   C     0.41065   0.34270   0.40343   0.00000  Uiso   1.00
C403   C     0.52475   0.60261   0.38659   0.00000  Uiso   1.00
C404   C     0.54136   0.61747   0.43221   0.00000  Uiso   1.00
C405   C     0.57576   0.65281   0.42803   0.00000  Uiso   1.00
C406   C     0.52983   0.39697   0.12050   0.00000  Uiso   1.00
C407   C     0.54613   0.37560   0.07778   0.00000  Uiso   1.00
C408   C     0.58285   0.34410   0.08692   0.00000  Uiso   1.00
C409   C     0.49936   0.49984   0.33619   0.00000  Uiso   1.00
C410   C     0.53083   0.35729   0.27112   0.00000  Uiso   1.00
C411   C     0.46872   0.64277   0.22968   0.00000  Uiso   1.00
C412   C     0.46908   0.35736   0.22904   0.00000  Uiso   1.00
C413   C     0.53112   0.64269   0.27062   0.00000  Uiso   1.00
C414   C     0.35462   0.45862   0.24984   0.00000  Uiso   1.00
F415   F     0.56133   0.37988   0.29301   0.00000  Uiso   1.00
F416   F     0.43691   0.62030   0.20997   0.00000  Uiso   1.00
F417   F     0.43847   0.37999   0.20732   0.00000  Uiso   1.00
F418   F     0.56249   0.62011   0.29109   0.00000  Uiso   1.00
H419   H     0.51570   0.56667   0.02763   0.00000  Uiso   1.00
H420   H     0.44858   0.58156   0.13355   0.00000  Uiso   1.00
H421   H     0.47546   0.63319   0.04946   0.00000  Uiso   1.00
H422   H     0.43711   0.58925   0.05433   0.00000  Uiso   1.00
H423   H     0.39287   0.64032   0.10011   0.00000  Uiso   1.00
H424   H     0.40352   0.66395   0.04635   0.00000  Uiso   1.00
H425   H     0.43097   0.35175   0.09421   0.00000  Uiso   1.00
H426   H     0.47065   0.37067   0.35000   0.00000  Uiso   1.00
H427   H     0.44363   0.42192   0.36196   0.00000  Uiso   1.00
H428   H     0.47067   0.35342   0.43405   0.00000  Uiso   1.00
H429   H     0.43495   0.39984   0.43961   0.00000  Uiso   1.00
H430   H     0.51066   0.42596   0.46932   0.00000  Uiso   1.00
H431   H     0.38597   0.36250   0.38622   0.00000  Uiso   1.00
H432   H     0.39726   0.66038   0.43348   0.00000  Uiso   1.00
H433   H     0.42163   0.64856   0.38135   0.00000  Uiso   1.00
H434   H     0.52088   0.63328   0.36567   0.00000  Uiso   1.00
H435   H     0.54822   0.58072   0.37018   0.00000  Uiso   1.00
H436   H     0.51592   0.63177   0.45233   0.00000  Uiso   1.00
H437   H     0.55427   0.58759   0.45002   0.00000  Uiso   1.00
H438   H     0.60185   0.63904   0.40834   0.00000  Uiso   1.00
H439   H     0.58763   0.66195   0.46138   0.00000  Uiso   1.00
H440   H     0.56358   0.35062   0.41183   0.00000  Uiso   1.00
H441   H     0.47245   0.56630   0.47034   0.00000  Uiso   1.00
H442   H     0.52723   0.37012   0.14609   0.00000  Uiso   1.00
H443   H     0.55285   0.42206   0.13342   0.00000  Uiso   1.00
H444   H     0.52098   0.35616   0.06136   0.00000  Uiso   1.00
H445   H     0.55637   0.40271   0.05482   0.00000  Uiso   1.00
H446   H     0.60868   0.36313   0.10291   0.00000  Uiso   1.00
H447   H     0.59408   0.66302   0.05534   0.00000  Uiso   1.00
H448   H     0.57330   0.64907   0.10875   0.00000  Uiso   1.00
H449   H     0.47673   0.42667   0.03202   0.00000  Uiso   1.00
H450   H     0.37075   0.42637   0.24967   0.00000  Uiso   1.00
H451   H     0.62926   0.57361   0.25052   0.00000  Uiso   1.00
H452   H     0.62926   0.42637   0.24952   0.00000  Uiso   1.00
H453   H     0.37073   0.57361   0.25067   0.00000  Uiso   1.00
H454   H     0.47681   0.63375   0.13610   0.00000  Uiso   1.00
N455   N     0.50000   0.61907   0.25000   0.00000  Uiso   1.00
N456   N     0.50000   0.38093   0.25000   0.00000  Uiso   1.00
O457   O     0.43892   0.53821   0.24999   0.00000  Uiso   1.00
O458   O     0.50541   0.41579   0.38577   0.00000  Uiso   1.00
O459   O     0.48525   0.58121   0.38837   0.00000  Uiso   1.00
O460   O     0.48961   0.41604   0.11474   0.00000  Uiso   1.00
O461   O     0.56108   0.46179   0.25000   0.00000  Uiso   1.00
O462   O     0.56108   0.53821   0.25000   0.00000  Uiso   1.00
O463   O     0.43892   0.46179   0.24999   0.00000  Uiso   1.00
O464   O     0.50000   0.53822   0.18453   0.00000  Uiso   1.00
O465   O     0.50000   0.46178   0.31547   0.00000  Uiso   1.00
O466   O     0.50000   0.53822   0.31547   0.00000  Uiso   1.00
O467   O     0.50000   0.46178   0.18453   0.00000  Uiso   1.00
O468   O     0.51004   0.58135   0.11045   0.00000  Uiso   1.00
Zn469  Zn    0.50000   0.55104   0.25000   0.00000  Uiso   1.00
Zn470  Zn    0.50000   0.44896   0.25000   0.00000  Uiso   1.00
C471   C     0.75328   0.50000   0.25002   0.00000  Uiso   1.00
C472   C     0.97872   0.54135   0.25034   0.00000  Uiso   1.00
C473   C     0.97872   0.45862   0.24979   0.00000  Uiso   1.00
C474   C     0.68794   0.54135   0.25039   0.00000  Uiso   1.00
C475   C     0.83986   0.53664   0.04566   0.00000  Uiso   1.00
C476   C     0.83554   0.45712   0.45260   0.00000  Uiso   1.00
C477   C     0.81594   0.53620   0.45308   0.00000  Uiso   1.00
C478   C     0.81983   0.45775   0.04799   0.00000  Uiso   1.00
C479   C     0.83758   0.53935   0.09108   0.00000  Uiso   1.00
C480   C     0.83362   0.45693   0.40703   0.00000  Uiso   1.00
C481   C     0.82240   0.53907   0.40814   0.00000  Uiso   1.00
C482   C     0.91339   0.50000   0.25002   0.00000  Uiso   1.00
C483   C     0.82606   0.45731   0.09318   0.00000  Uiso   1.00
C484   C     0.83245   0.49899   0.11569   0.00000  Uiso   1.00
C485   C     0.82993   0.49881   0.38414   0.00000  Uiso   1.00
C486   C     0.82817   0.49692   0.02384   0.00000  Uiso   1.00
C487   C     0.82588   0.49645   0.47587   0.00000  Uiso   1.00
C488   C     0.95754   0.49999   0.25004   0.00000  Uiso   1.00
C489   C     0.70913   0.49999   0.25009   0.00000  Uiso   1.00
C490   C     0.80440   0.60329   0.11545   0.00000  Uiso   1.00
C491   C     0.78475   0.61880   0.07137   0.00000  Uiso   1.00
C492   C     0.75093   0.65425   0.07861   0.00000  Uiso   1.00
C493   C     0.83332   0.49989   0.16378   0.00000  Uiso   1.00
C494   C     0.79923   0.39663   0.37603   0.00000  Uiso   1.00
C495   C     0.78004   0.37364   0.41653   0.00000  Uiso   1.00
C496   C     0.74398   0.34270   0.40343   0.00000  Uiso   1.00
C497   C     0.85808   0.60261   0.38659   0.00000  Uiso   1.00
C498   C     0.87469   0.61747   0.43221   0.00000  Uiso   1.00
C499   C     0.90909   0.65281   0.42803   0.00000  Uiso   1.00
C500   C     0.86316   0.39697   0.12050   0.00000  Uiso   1.00
C501   C     0.87946   0.37560   0.07778   0.00000  Uiso   1.00
C502   C     0.91618   0.34410   0.08692   0.00000  Uiso   1.00
C503   C     0.83269   0.49984   0.33619   0.00000  Uiso   1.00
C504   C     0.86416   0.35729   0.27112   0.00000  Uiso   1.00
C505   C     0.80205   0.64277   0.22968   0.00000  Uiso   1.00
C506   C     0.80242   0.35736   0.22904   0.00000  Uiso   1.00
C507   C     0.86445   0.64269   0.27062   0.00000  Uiso   1.00
C508   C     0.68795   0.45862   0.24984   0.00000  Uiso   1.00
F509   F     0.89466   0.37988   0.29301   0.00000  Uiso   1.00
F510   F     0.77024   0.62030   0.20997   0.00000  Uiso   1.00
F511   F     0.77180   0.37999   0.20732   0.00000  Uiso   1.00
F512   F     0.89583   0.62011   0.29109   0.00000  Uiso   1.00
H513   H     0.84903   0.56667   0.02763   0.00000  Uiso   1.00
H514   H     0.78192   0.58156   0.13355   0.00000  Uiso   1.00
H515   H     0.80879   0.63319   0.04946   0.00000  Uiso   1.00
H516   H     0.77045   0.58925   0.05433   0.00000  Uiso   1.00
H517   H     0.72620   0.64032   0.10011   0.00000  Uiso   1.00
H518   H     0.73686   0.66395   0.04635   0.00000  Uiso   1.00
H519   H     0.76431   0.35175   0.09421   0.00000  Uiso   1.00
H520   H     0.80399   0.37067   0.35000   0.00000  Uiso   1.00
H521   H     0.77696   0.42192   0.36196   0.00000  Uiso   1.00
H522   H     0.80401   0.35342   0.43405   0.00000  Uiso   1.00
H523   H     0.76828   0.39984   0.43961   0.00000  Uiso   1.00
H524   H     0.84400   0.42596   0.46932   0.00000  Uiso   1.00
H525   H     0.71931   0.36250   0.38622   0.00000  Uiso   1.00
H526   H     0.73059   0.66038   0.43348   0.00000  Uiso   1.00
H527   H     0.75497   0.64856   0.38135   0.00000  Uiso   1.00
H528   H     0.85421   0.63328   0.36567   0.00000  Uiso   1.00
H529   H     0.88155   0.58072   0.37018   0.00000  Uiso   1.00
H530   H     0.84926   0.63177   0.45233   0.00000  Uiso   1.00
H531   H     0.88760   0.58759   0.45002   0.00000  Uiso   1.00
H532   H     0.93518   0.63904   0.40834   0.00000  Uiso   1.00
H533   H     0.92097   0.66195   0.46138   0.00000  Uiso   1.00
H534   H     0.89691   0.35062   0.41183   0.00000  Uiso   1.00
H535   H     0.80578   0.56630   0.47034   0.00000  Uiso   1.00
H536   H     0.86056   0.37012   0.14609   0.00000  Uiso   1.00
H537   H     0.88618   0.42206   0.13342   0.00000  Uiso   1.00
H538   H     0.85432   0.35616   0.06136   0.00000  Uiso   1.00
H539   H     0.88970   0.40271   0.05482   0.00000  Uiso   1.00
H540   H     0.94202   0.36313   0.10291   0.00000  Uiso   1.00
H541   H     0.92741   0.66302   0.05534   0.00000  Uiso   1.00
H542   H     0.90663   0.64907   0.10875   0.00000  Uiso   1.00
H543   H     0.81006   0.42667   0.03202   0.00000  Uiso   1.00
H544   H     0.70409   0.42637   0.24967   0.00000  Uiso   1.00
H545   H     0.96259   0.57361   0.25052   0.00000  Uiso   1.00
H546   H     0.96259   0.42637   0.24952   0.00000  Uiso   1.00
H547   H     0.70407   0.57361   0.25067   0.00000  Uiso   1.00
H548   H     0.81014   0.63375   0.13610   0.00000  Uiso   1.00
N549   N     0.83333   0.61907   0.25000   0.00000  Uiso   1.00
N550   N     0.83333   0.38093   0.25000   0.00000  Uiso   1.00
O551   O     0.77226   0.53821   0.24999   0.00000  Uiso   1.00
O552   O     0.83874   0.41579   0.38577   0.00000  Uiso   1.00
O553   O     0.81859   0.58121   0.38837   0.00000  Uiso   1.00
O554   O     0.82295   0.41604   0.11474   0.00000  Uiso   1.00
O555   O     0.89441   0.46179   0.25000   0.00000  Uiso   1.00
O556   O     0.89441   0.53821   0.25000   0.00000  Uiso   1.00
O557   O     0.77226   0.46179   0.24999   0.00000  Uiso   1.00
O558   O     0.83333   0.53822   0.18453   0.00000  Uiso   1.00
O559   O     0.83334   0.46178   0.31547   0.00000  Uiso   1.00
O560   O     0.83334   0.53822   0.31547   0.00000  Uiso   1.00
O561   O     0.83333   0.46178   0.18453   0.00000  Uiso   1.00
O562   O     0.84337   0.58135   0.11045   0.00000  Uiso   1.00
Zn563  Zn    0.83333   0.55104   0.25000   0.00000  Uiso   1.00
Zn564  Zn    0.83333   0.44896   0.25000   0.00000  Uiso   1.00
C565   C     0.08661   0.83333   0.25002   0.00000  Uiso   1.00
C566   C     0.31205   0.87469   0.25034   0.00000  Uiso   1.00
C567   C     0.31206   0.79195   0.24979   0.00000  Uiso   1.00
C568   C     0.02128   0.87469   0.25039   0.00000  Uiso   1.00
C569   C     0.17320   0.86997   0.04566   0.00000  Uiso   1.00
C570   C     0.16888   0.79045   0.45260   0.00000  Uiso   1.00
C571   C     0.14927   0.86953   0.45308   0.00000  Uiso   1.00
C572   C     0.15317   0.79108   0.04799   0.00000  Uiso   1.00
C573   C     0.17091   0.87268   0.09108   0.00000  Uiso   1.00
C574   C     0.16695   0.79026   0.40703   0.00000  Uiso   1.00
C575   C     0.15573   0.87241   0.40814   0.00000  Uiso   1.00
C576   C     0.24672   0.83333   0.25002   0.00000  Uiso   1.00
C577   C     0.15939   0.79064   0.09318   0.00000  Uiso   1.00
C578   C     0.16579   0.83232   0.11569   0.00000  Uiso   1.00
C579   C     0.16326   0.83215   0.38414   0.00000  Uiso   1.00
C580   C     0.16150   0.83025   0.02384   0.00000  Uiso   1.00
C581   C     0.15921   0.82978   0.47587   0.00000  Uiso   1.00
C582   C     0.29087   0.83332   0.25004   0.00000  Uiso   1.00
C583   C     0.04247   0.83332   0.25009   0.00000  Uiso   1.00
C584   C     0.13773   0.93663   0.11545   0.00000  Uiso   1.00
C585   C     0.11808   0.95214   0.07137   0.00000  Uiso   1.00
C586   C     0.08426   0.98758   0.07861   0.00000  Uiso   1.00
C587   C     0.16665   0.83322   0.16378   0.00000  Uiso   1.00
C588   C     0.13256   0.72996   0.37603   0.00000  Uiso   1.00
C589   C     0.11337   0.70698   0.41653   0.00000  Uiso   1.00
C590   C     0.07731   0.67604   0.40343   0.00000  Uiso   1.00
C591   C     0.19142   0.93595   0.38659   0.00000  Uiso   1.00
C592   C     0.20803   0.95081   0.43221   0.00000  Uiso   1.00
C593   C     0.24243   0.98614   0.42803   0.00000  Uiso   1.00
C594   C     0.19650   0.73030   0.12050   0.00000  Uiso   1.00
C595   C     0.21280   0.70893   0.07778   0.00000  Uiso   1.00
C596   C     0.24951   0.67743   0.08692   0.00000  Uiso   1.00
C597   C     0.16602   0.83317   0.33619   0.00000  Uiso   1.00
C598   C     0.19749   0.69063   0.27112   0.00000  Uiso   1.00
C599   C     0.13539   0.97610   0.22968   0.00000  Uiso   1.00
C600   C     0.13575   0.69069   0.22904   0.00000  Uiso   1.00
C601   C     0.19779   0.97602   0.27062   0.00000  Uiso   1.00
C602   C     0.02128   0.79195   0.24984   0.00000  Uiso   1.00
F603   F     0.22800   0.71321   0.29301   0.00000  Uiso   1.00
F604   F     0.10358   0.95363   0.20997   0.00000  Uiso   1.00
F605   F     0.10513   0.71332   0.20732   0.00000  Uiso   1.00
F606   F     0.22916   0.95344   0.29109   0.00000  Uiso   1.00
H607   H     0.18236   0.90000   0.02763   0.00000  Uiso   1.00
H608   H     0.11525   0.91489   0.13355   0.00000  Uiso   1.00
H609   H     0.14213   0.96652   0.04946   0.00000  Uiso   1.00
H610   H     0.10378   0.92258   0.05433   0.00000  Uiso   1.00
H611   H     0.05953   0.97365   0.10011   0.00000  Uiso   1.00
H612   H     0.07019   0.99728   0.04635   0.00000  Uiso   1.00
H613   H     0.09764   0.68508   0.09421   0.00000  Uiso   1.00
H614   H     0.13732   0.70400   0.35000   0.00000  Uiso   1.00
H615   H     0.11030   0.75526   0.36196   0.00000  Uiso   1.00
H616   H     0.13734   0.68675   0.43405   0.00000  Uiso   1.00
H617   H     0.10162   0.73317   0.43961   0.00000  Uiso   1.00
H618   H     0.17733   0.75930   0.46932   0.00000  Uiso   1.00
H619   H     0.05264   0.69583   0.38622   0.00000  Uiso   1.00
H620   H     0.06393   0.99371   0.43348   0.00000  Uiso   1.00
H621   H     0.08830   0.98189   0.38135   0.00000  Uiso   1.00
H622   H     0.18755   0.96661   0.36567   0.00000  Uiso   1.00
H623   H     0.21489   0.91405   0.37018   0.00000  Uiso   1.00
H624   H     0.18259   0.96510   0.45233   0.00000  Uiso   1.00
H625   H     0.22093   0.92092   0.45002   0.00000  Uiso   1.00
H626   H     0.26852   0.97238   0.40834   0.00000  Uiso   1.00
H627   H     0.25430   0.99528   0.46138   0.00000  Uiso   1.00
H628   H     0.23025   0.68395   0.41183   0.00000  Uiso   1.00
H629   H     0.13912   0.89964   0.47034   0.00000  Uiso   1.00
H630   H     0.19390   0.70345   0.14609   0.00000  Uiso   1.00
H631   H     0.21951   0.75539   0.13342   0.00000  Uiso   1.00
H632   H     0.18765   0.68950   0.06136   0.00000  Uiso   1.00
H633   H     0.22304   0.73604   0.05482   0.00000  Uiso   1.00
H634   H     0.27535   0.69646   0.10291   0.00000  Uiso   1.00
H635   H     0.26075   0.99635   0.05534   0.00000  Uiso   1.00
H636   H     0.23996   0.98240   0.10875   0.00000  Uiso   1.00
H637   H     0.14340   0.76000   0.03202   0.00000  Uiso   1.00
H638   H     0.03742   0.75970   0.24967   0.00000  Uiso   1.00
H639   H     0.29593   0.90694   0.25052   0.00000  Uiso   1.00
H640   H     0.29592   0.75970   0.24952   0.00000  Uiso   1.00
H641   H     0.03740   0.90694   0.25067   0.00000  Uiso   1.00
H642   H     0.14348   0.96708   0.13610   0.00000  Uiso   1.00
N643   N     0.16667   0.95240   0.25000   0.00000  Uiso   1.00
N644   N     0.16667   0.71427   0.25000   0.00000  Uiso   1.00
O645   O     0.10559   0.87154   0.24999   0.00000  Uiso   1.00
O646   O     0.17208   0.74912   0.38577   0.00000  Uiso   1.00
O647   O     0.15192   0.91454   0.38837   0.00000  Uiso   1.00
O648   O     0.15628   0.74937   0.11474   0.00000  Uiso   1.00
O649   O     0.22774   0.79513   0.25000   0.00000  Uiso   1.00
O650   O     0.22774   0.87154   0.25000   0.00000  Uiso   1.00
O651   O     0.10559   0.79513   0.24999   0.00000  Uiso   1.00
O652   O     0.16666   0.87155   0.18453   0.00000  Uiso   1.00
O653   O     0.16667   0.79511   0.31547   0.00000  Uiso   1.00
O654   O     0.16667   0.87155   0.31547   0.00000  Uiso   1.00
O655   O     0.16666   0.79511   0.18453   0.00000  Uiso   1.00
O656   O     0.17670   0.91468   0.11045   0.00000  Uiso   1.00
Zn657  Zn    0.16667   0.88437   0.25000   0.00000  Uiso   1.00
Zn658  Zn    0.16667   0.78229   0.25000   0.00000  Uiso   1.00
C659   C     0.41994   0.83333   0.25002   0.00000  Uiso   1.00
C660   C     0.64539   0.87469   0.25034   0.00000  Uiso   1.00
C661   C     0.64539   0.79195   0.24979   0.00000  Uiso   1.00
C662   C     0.35461   0.87469   0.25039   0.00000  Uiso   1.00
C663   C     0.50653   0.86997   0.04566   0.00000  Uiso   1.00
C664   C     0.50221   0.79045   0.45260   0.00000  Uiso   1.00
C665   C     0.48260   0.86953   0.45308   0.00000  Uiso   1.00
C666   C     0.48650   0.79108   0.04799   0.00000  Uiso   1.00
C667   C     0.50425   0.87268   0.09108   0.00000  Uiso   1.00
C668   C     0.50029   0.79026   0.40703   0.00000  Uiso   1.00
C669   C     0.48907   0.87241   0.40814   0.00000  Uiso   1.00
C670   C     0.58006   0.83333   0.25002   0.00000  Uiso   1.00
C671   C     0.49273   0.79064   0.09318   0.00000  Uiso   1.00
C672   C     0.49912   0.83232   0.11569   0.00000  Uiso   1.00
C673   C     0.49659   0.83215   0.38414   0.00000  Uiso   1.00
C674   C     0.49484   0.83025   0.02384   0.00000  Uiso   1.00
C675   C     0.49255   0.82978   0.47587   0.00000  Uiso   1.00
C676   C     0.62420   0.83332   0.25004   0.00000  Uiso   1.00
C677   C     0.37580   0.83332   0.25009   0.00000  Uiso   1.00
C678   C     0.47107   0.93663   0.11545   0.00000  Uiso   1.00
C679   C     0.45142   0.95214   0.07137   0.00000  Uiso   1.00
C680   C     0.41759   0.98758   0.07861   0.00000  Uiso   1.00
C681   C     0.49999   0.83322   0.16378   0.00000  Uiso   1.00
C682   C     0.46590   0.72996   0.37603   0.00000  Uiso   1.00
C683   C     0.44670   0.70698   0.41653   0.00000  Uiso   1.00
C684   C     0.41065   0.67604   0.40343   0.00000  Uiso   1.00
C685   C     0.52475   0.93595   0.38659   0.00000  Uiso   1.00
C686   C     0.54136   0.95081   0.43221   0.00000  Uiso   1.00
C687   C     0.57576   0.98614   0.42803   0.00000  Uiso   1.00
C688   C     0.52983   0.73030   0.12050   0.00000  Uiso   1.00
C689   C     0.54613   0.70893   0.07778   0.00000  Uiso   1.00
C690   C     0.58285   0.67743   0.08692   0.00000  Uiso   1.00
C691   C     0.49936   0.83317   0.33619   0.00000  Uiso   1.00
C692   C     0.53083   0.69063   0.27112   0.00000  Uiso   1.00
C693   C     0.46872   0.97610   0.22968   0.00000  Uiso   1.00
C694   C     0.46908   0.69069   0.22904   0.00000  Uiso   1.00
C695   C     0.53112   0.97602   0.27062   0.00000  Uiso   1.00
C696   C     0.35462   0.79195   0.24984   0.00000  Uiso   1.00
F697   F     0.56133   0.71321   0.29301   0.00000  Uiso   1.00
F698   F     0.43691   0.95363   0.20997   0.00000  Uiso   1.00
F699   F     0.43847   0.71332   0.20732   0.00000  Uiso   1.00
F700   F     0.56249   0.95344   0.29109   0.00000  Uiso   1.00
H701   H     0.51570   0.90000   0.02763   0.00000  Uiso   1.00
H702   H     0.44858   0.91489   0.13355   0.00000  Uiso   1.00
H703   H     0.47546   0.96652   0.04946   0.00000  Uiso   1.00
H704   H     0.43711   0.92258   0.05433   0.00000  Uiso   1.00
H705   H     0.39287   0.97365   0.10011   0.00000  Uiso   1.00
H706   H     0.40352   0.99728   0.04635   0.00000  Uiso   1.00
H707   H     0.43097   0.68508   0.09421   0.00000  Uiso   1.00
H708   H     0.47065   0.70400   0.35000   0.00000  Uiso   1.00
H709   H     0.44363   0.75526   0.36196   0.00000  Uiso   1.00
H710   H     0.47067   0.68675   0.43405   0.00000  Uiso   1.00
H711   H     0.43495   0.73317   0.43961   0.00000  Uiso   1.00
H712   H     0.51066   0.75930   0.46932   0.00000  Uiso   1.00
H713   H     0.38597   0.69583   0.38622   0.00000  Uiso   1.00
H714   H     0.39726   0.99371   0.43348   0.00000  Uiso   1.00
H715   H     0.42163   0.98189   0.38135   0.00000  Uiso   1.00
H716   H     0.52088   0.96661   0.36567   0.00000  Uiso   1.00
H717   H     0.54822   0.91405   0.37018   0.00000  Uiso   1.00
H718   H     0.51592   0.96510   0.45233   0.00000  Uiso   1.00
H719   H     0.55427   0.92092   0.45002   0.00000  Uiso   1.00
H720   H     0.60185   0.97238   0.40834   0.00000  Uiso   1.00
H721   H     0.58763   0.99528   0.46138   0.00000  Uiso   1.00
H722   H     0.56358   0.68395   0.41183   0.00000  Uiso   1.00
H723   H     0.47245   0.89964   0.47034   0.00000  Uiso   1.00
H724   H     0.52723   0.70345   0.14609   0.00000  Uiso   1.00
H725   H     0.55285   0.75539   0.13342   0.00000  Uiso   1.00
H726   H     0.52098   0.68950   0.06136   0.00000  Uiso   1.00
H727   H     0.55637   0.73604   0.05482   0.00000  Uiso   1.00
H728   H     0.60868   0.69646   0.10291   0.00000  Uiso   1.00
H729   H     0.59408   0.99635   0.05534   0.00000  Uiso   1.00
H730   H     0.57330   0.98240   0.10875   0.00000  Uiso   1.00
H731   H     0.47673   0.76000   0.03202   0.00000  Uiso   1.00
H732   H     0.37075   0.75970   0.24967   0.00000  Uiso   1.00
H733   H     0.62926   0.90694   0.25052   0.00000  Uiso   1.00
H734   H     0.62926   0.75970   0.24952   0.00000  Uiso   1.00
H735   H     0.37073   0.90694   0.25067   0.00000  Uiso   1.00
H736   H     0.47681   0.96708   0.13610   0.00000  Uiso   1.00
N737   N     0.50000   0.95240   0.25000   0.00000  Uiso   1.00
N738   N     0.50000   0.71427   0.25000   0.00000  Uiso   1.00
O739   O     0.43892   0.87154   0.24999   0.00000  Uiso   1.00
O740   O     0.50541   0.74912   0.38577   0.00000  Uiso   1.00
O741   O     0.48525   0.91454   0.38837   0.00000  Uiso   1.00
O742   O     0.48961   0.74937   0.11474   0.00000  Uiso   1.00
O743   O     0.56108   0.79513   0.25000   0.00000  Uiso   1.00
O744   O     0.56108   0.87154   0.25000   0.00000  Uiso   1.00
O745   O     0.43892   0.79513   0.24999   0.00000  Uiso   1.00
O746   O     0.50000   0.87155   0.18453   0.00000  Uiso   1.00
O747   O     0.50000   0.79511   0.31547   0.00000  Uiso   1.00
O748   O     0.50000   0.87155   0.31547   0.00000  Uiso   1.00
O749   O     0.50000   0.79511   0.18453   0.00000  Uiso   1.00
O750   O     0.51004   0.91468   0.11045   0.00000  Uiso   1.00
Zn751  Zn    0.50000   0.88437   0.25000   0.00000  Uiso   1.00
Zn752  Zn    0.50000   0.78229   0.25000   0.00000  Uiso   1.00
C753   C     0.75328   0.83333   0.25002   0.00000  Uiso   1.00
C754   C     0.97872   0.87469   0.25034   0.00000  Uiso   1.00
C755   C     0.97872   0.79195   0.24979   0.00000  Uiso   1.00
C756   C     0.68794   0.87469   0.25039   0.00000  Uiso   1.00
C757   C     0.83986   0.86997   0.04566   0.00000  Uiso   1.00
C758   C     0.83554   0.79045   0.45260   0.00000  Uiso   1.00
C759   C     0.81594   0.86953   0.45308   0.00000  Uiso   1.00
C760   C     0.81983   0.79108   0.04799   0.00000  Uiso   1.00
C761   C     0.83758   0.87268   0.09108   0.00000  Uiso   1.00
C762   C     0.83362   0.79026   0.40703   0.00000  Uiso   1.00
C763   C     0.82240   0.87241   0.40814   0.00000  Uiso   1.00
C764   C     0.91339   0.83333   0.25002   0.00000  Uiso   1.00
C765   C     0.82606   0.79064   0.09318   0.00000  Uiso   1.00
C766   C     0.83245   0.83232   0.11569   0.00000  Uiso   1.00
C767   C     0.82993   0.83215   0.38414   0.00000  Uiso   1.00
C768   C     0.82817   0.83025   0.02384   0.00000  Uiso   1.00
C769   C     0.82588   0.82978   0.47587   0.00000  Uiso   1.00
C770   C     0.95754   0.83332   0.25004   0.00000  Uiso   1.00
C771   C     0.70913   0.83332   0.25009   0.00000  Uiso   1.00
C772   C     0.80440   0.93663   0.11545   0.00000  Uiso   1.00
C773   C     0.78475   0.95214   0.07137   0.00000  Uiso   1.00
C774   C     0.75093   0.98758   0.07861   0.00000  Uiso   1.00
C775   C     0.83332   0.83322   0.16378   0.00000  Uiso   1.00
C776   C     0.79923   0.72996   0.37603   0.00000  Uiso   1.00
C777   C     0.78004   0.70698   0.41653   0.00000  Uiso   1.00
C778   C     0.74398   0.67604   0.40343   0.00000  Uiso   1.00
C779   C     0.85808   0.93595   0.38659   0.00000  Uiso   1.00
C780   C     0.87469   0.95081   0.43221   0.00000  Uiso   1.00
C781   C     0.90909   0.98614   0.42803   0.00000  Uiso   1.00
C782   C     0.86316   0.73030   0.12050   0.00000  Uiso   1.00
C783   C     0.87946   0.70893   0.07778   0.00000  Uiso   1.00
C784   C     0.91618   0.67743   0.08692   0.00000  Uiso   1.00
C785   C     0.83269   0.83317   0.33619   0.00000  Uiso   1.00
C786   C     0.86416   0.69063   0.27112   0.00000  Uiso   1.00
C787   C     0.80205   0.97610   0.22968   0.00000  Uiso   1.00
C788   C     0.80242   0.69069   0.22904   0.00000  Uiso   1.00
C789   C     0.86445   0.97602   0.27062   0.00000  Uiso   1.00
C790   C     0.68795   0.79195   0.24984   0.00000  Uiso   1.00
F791   F     0.89466   0.71321   0.29301   0.00000  Uiso   1.00
F792   F     0.77024   0.95363   0.20997   0.00000  Uiso   1.00
F793   F     0.77180   0.71332   0.20732   0.00000  Uiso   1.00
F794   F     0.89583   0.95344   0.29109   0.00000  Uiso   1.00
H795   H     0.84903   0.90000   0.02763   0.00000  Uiso   1.00
H796   H     0.78192   0.91489   0.13355   0.00000  Uiso   1.00
H797   H     0.80879   0.96652   0.04946   0.00000  Uiso   1.00
H798   H     0.77045   0.92258   0.05433   0.00000  Uiso   1.00
H799   H     0.72620   0.97365   0.10011   0.00000  Uiso   1.00
H800   H     0.73686   0.99728   0.04635   0.00000  Uiso   1.00
H801   H     0.76431   0.68508   0.09421   0.00000  Uiso   1.00
H802   H     0.80399   0.70400   0.35000   0.00000  Uiso   1.00
H803   H     0.77696   0.75526   0.36196   0.00000  Uiso   1.00
H804   H     0.80401   0.68675   0.43405   0.00000  Uiso   1.00
H805   H     0.76828   0.73317   0.43961   0.00000  Uiso   1.00
H806   H     0.84400   0.75930   0.46932   0.00000  Uiso   1.00
H807   H     0.71931   0.69583   0.38622   0.00000  Uiso   1.00
H808   H     0.73059   0.99371   0.43348   0.00000  Uiso   1.00
H809   H     0.75497   0.98189   0.38135   0.00000  Uiso   1.00
H810   H     0.85421   0.96661   0.36567   0.00000  Uiso   1.00
H811   H     0.88155   0.91405   0.37018   0.00000  Uiso   1.00
H812   H     0.84926   0.96510   0.45233   0.00000  Uiso   1.00
H813   H     0.88760   0.92092   0.45002   0.00000  Uiso   1.00
H814   H     0.93518   0.97238   0.40834   0.00000  Uiso   1.00
H815   H     0.92097   0.99528   0.46138   0.00000  Uiso   1.00
H816   H     0.89691   0.68395   0.41183   0.00000  Uiso   1.00
H817   H     0.80578   0.89964   0.47034   0.00000  Uiso   1.00
H818   H     0.86056   0.70345   0.14609   0.00000  Uiso   1.00
H819   H     0.88618   0.75539   0.13342   0.00000  Uiso   1.00
H820   H     0.85432   0.68950   0.06136   0.00000  Uiso   1.00
H821   H     0.88970   0.73604   0.05482   0.00000  Uiso   1.00
H822   H     0.94202   0.69646   0.10291   0.00000  Uiso   1.00
H823   H     0.92741   0.99635   0.05534   0.00000  Uiso   1.00
H824   H     0.90663   0.98240   0.10875   0.00000  Uiso   1.00
H825   H     0.81006   0.76000   0.03202   0.00000  Uiso   1.00
H826   H     0.70409   0.75970   0.24967   0.00000  Uiso   1.00
H827   H     0.96259   0.90694   0.25052   0.00000  Uiso   1.00
H828   H     0.96259   0.75970   0.24952   0.00000  Uiso   1.00
H829   H     0.70407   0.90694   0.25067   0.00000  Uiso   1.00
H830   H     0.81014   0.96708   0.13610   0.00000  Uiso   1.00
N831   N     0.83333   0.95240   0.25000   0.00000  Uiso   1.00
N832   N     0.83333   0.71427   0.25000   0.00000  Uiso   1.00
O833   O     0.77226   0.87154   0.24999   0.00000  Uiso   1.00
O834   O     0.83874   0.74912   0.38577   0.00000  Uiso   1.00
O835   O     0.81859   0.91454   0.38837   0.00000  Uiso   1.00
O836   O     0.82295   0.74937   0.11474   0.00000  Uiso   1.00
O837   O     0.89441   0.79513   0.25000   0.00000  Uiso   1.00
O838   O     0.89441   0.87154   0.25000   0.00000  Uiso   1.00
O839   O     0.77226   0.79513   0.24999   0.00000  Uiso   1.00
O840   O     0.83333   0.87155   0.18453   0.00000  Uiso   1.00
O841   O     0.83334   0.79511   0.31547   0.00000  Uiso   1.00
O842   O     0.83334   0.87155   0.31547   0.00000  Uiso   1.00
O843   O     0.83333   0.79511   0.18453   0.00000  Uiso   1.00
O844   O     0.84337   0.91468   0.11045   0.00000  Uiso   1.00
Zn845  Zn    0.83333   0.88437   0.25000   0.00000  Uiso   1.00
Zn846  Zn    0.83333   0.78229   0.25000   0.00000  Uiso   1.00
C847   C     0.08661   0.16667   0.75002   0.00000  Uiso   1.00
C848   C     0.31205   0.20802   0.75034   0.00000  Uiso   1.00
C849   C     0.31206   0.12529   0.74979   0.00000  Uiso   1.00
C850   C     0.02128   0.20802   0.75039   0.00000  Uiso   1.00
C851   C     0.17320   0.20331   0.54566   0.00000  Uiso   1.00
C852   C     0.16888   0.12379   0.95260   0.00000  Uiso   1.00
C853   C     0.14927   0.20287   0.95308   0.00000  Uiso   1.00
C854   C     0.15317   0.12442   0.54799   0.00000  Uiso   1.00
C855   C     0.17091   0.20601   0.59108   0.00000  Uiso   1.00
C856   C     0.16695   0.12360   0.90703   0.00000  Uiso   1.00
C857   C     0.15573   0.20574   0.90814   0.00000  Uiso   1.00
C858   C     0.24672   0.16666   0.75002   0.00000  Uiso   1.00
C859   C     0.15939   0.12397   0.59318   0.00000  Uiso   1.00
C860   C     0.16579   0.16565   0.61569   0.00000  Uiso   1.00
C861   C     0.16326   0.16548   0.88414   0.00000  Uiso   1.00
C862   C     0.16150   0.16359   0.52384   0.00000  Uiso   1.00
C863   C     0.15921   0.16312   0.97587   0.00000  Uiso   1.00
C864   C     0.29087   0.16665   0.75004   0.00000  Uiso   1.00
C865   C     0.04247   0.16666   0.75009   0.00000  Uiso   1.00
C866   C     0.13773   0.26996   0.61545   0.00000  Uiso   1.00
C867   C     0.11808   0.28547   0.57137   0.00000  Uiso   1.00
C868   C     0.08426   0.32092   0.57861   0.00000  Uiso   1.00
C869   C     0.16665   0.16656   0.66378   0.00000  Uiso   1.00
C870   C     0.13256   0.06329   0.87603   0.00000  Uiso   1.00
C871   C     0.11337   0.04031   0.91653   0.00000  Uiso   1.00
C872   C     0.07731   0.00937   0.90343   0.00000  Uiso   1.00
C873   C     0.19142   0.26928   0.88659   0.00000  Uiso   1.00
C874   C     0.20803   0.28414   0.93221   0.00000  Uiso   1.00
C875   C     0.24243   0.31948   0.92803   0.00000  Uiso   1.00
C876   C     0.19650   0.06364   0.62050   0.00000  Uiso   1.00
C877   C     0.21280   0.04227   0.57778   0.00000  Uiso   1.00
C878   C     0.24951   0.01076   0.58692   0.00000  Uiso   1.00
C879   C     0.16602   0.16651   0.83619   0.00000  Uiso   1.00
C880   C     0.19749   0.02396   0.77112   0.00000  Uiso   1.00
C881   C     0.13539   0.30943   0.72968   0.00000  Uiso   1.00
C882   C     0.13575   0.02402   0.72904   0.00000  Uiso   1.00
C883   C     0.19779   0.30936   0.77062   0.00000  Uiso   1.00
C884   C     0.02128   0.12529   0.74984   0.00000  Uiso   1.00
F885   F     0.22800   0.04654   0.79301   0.00000  Uiso   1.00
F886   F     0.10358   0.28696   0.70997   0.00000  Uiso   1.00
F887   F     0.10513   0.04665   0.70732   0.00000  Uiso   1.00
F888   F     0.22916   0.28678   0.79109   0.00000  Uiso   1.00
H889   H     0.18236   0.23334   0.52763   0.00000  Uiso   1.00
H890   H     0.11525   0.24822   0.63355   0.00000  Uiso   1.00
H891   H     0.14213   0.29985   0.54946   0.00000  Uiso   1.00
H892   H     0.10378   0.25592   0.55433   0.00000  Uiso   1.00
H893   H     0.05953   0.30698   0.60011   0.00000  Uiso   1.00
H894   H     0.07019   0.33061   0.54635   0.00000  Uiso   1.00
H895   H     0.09764   0.01842   0.59421   0.00000  Uiso   1.00
H896   H     0.13732   0.03733   0.85000   0.00000  Uiso   1.00
H897   H     0.11030   0.08859   0.86196   0.00000  Uiso   1.00
H898   H     0.13734   0.02009   0.93405   0.00000  Uiso   1.00
H899   H     0.10162   0.06650   0.93961   0.00000  Uiso   1.00
H900   H     0.17733   0.09263   0.96932   0.00000  Uiso   1.00
H901   H     0.05264   0.02916   0.88622   0.00000  Uiso   1.00
H902   H     0.06393   0.32704   0.93348   0.00000  Uiso   1.00
H903   H     0.08830   0.31523   0.88135   0.00000  Uiso   1.00
H904   H     0.18755   0.29994   0.86567   0.00000  Uiso   1.00
H905   H     0.21489   0.24739   0.87018   0.00000  Uiso   1.00
H906   H     0.18259   0.29843   0.95233   0.00000  Uiso   1.00
H907   H     0.22093   0.25426   0.95002   0.00000  Uiso   1.00
H908   H     0.26852   0.30571   0.90834   0.00000  Uiso   1.00
H909   H     0.25430   0.32862   0.96138   0.00000  Uiso   1.00
H910   H     0.23025   0.01729   0.91183   0.00000  Uiso   1.00
H911   H     0.13912   0.23297   0.97034   0.00000  Uiso   1.00
H912   H     0.19390   0.03678   0.64609   0.00000  Uiso   1.00
H913   H     0.21951   0.08873   0.63342   0.00000  Uiso   1.00
H914   H     0.18765   0.02283   0.56136   0.00000  Uiso   1.00
H915   H     0.22304   0.06938   0.55482   0.00000  Uiso   1.00
H916   H     0.27535   0.02980   0.60291   0.00000  Uiso   1.00
H917   H     0.26075   0.32969   0.55534   0.00000  Uiso   1.00
H918   H     0.23996   0.31573   0.60875   0.00000  Uiso   1.00
H919   H     0.14340   0.09333   0.53202   0.00000  Uiso   1.00
H920   H     0.03742   0.09304   0.74967   0.00000  Uiso   1.00
H921   H     0.29593   0.24027   0.75052   0.00000  Uiso   1.00
H922   H     0.29592   0.09304   0.74952   0.00000  Uiso   1.00
H923   H     0.03740   0.24027   0.75067   0.00000  Uiso   1.00
H924   H     0.14348   0.30042   0.63610   0.00000  Uiso   1.00
N925   N     0.16667   0.28573   0.75000   0.00000  Uiso   1.00
N926   N     0.16667   0.04760   0.75000   0.00000  Uiso   1.00
O927   O     0.10559   0.20487   0.74999   0.00000  Uiso   1.00
O928   O     0.17208   0.08246   0.88577   0.00000  Uiso   1.00
O929   O     0.15192   0.24788   0.88837   0.00000  Uiso   1.00
O930   O     0.15628   0.08270   0.61474   0.00000  Uiso   1.00
O931   O     0.22774   0.12846   0.75000   0.00000  Uiso   1.00
O932   O     0.22774   0.20487   0.75000   0.00000  Uiso   1.00
O933   O     0.10559   0.12846   0.74999   0.00000  Uiso   1.00
O934   O     0.16666   0.20489   0.68453   0.00000  Uiso   1.00
O935   O     0.16667   0.12845   0.81547   0.00000  Uiso   1.00
O936   O     0.16667   0.20489   0.81547   0.00000  Uiso   1.00
O937   O     0.16666   0.12845   0.68453   0.00000  Uiso   1.00
O938   O     0.17670   0.24802   0.61045   0.00000  Uiso   1.00
Zn939  Zn    0.16667   0.21771   0.75000   0.00000  Uiso   1.00
Zn940  Zn    0.16667   0.11563   0.75000   0.00000  Uiso   1.00
C941   C     0.41994   0.16667   0.75002   0.00000  Uiso   1.00
C942   C     0.64539   0.20802   0.75034   0.00000  Uiso   1.00
C943   C     0.64539   0.12529   0.74979   0.00000  Uiso   1.00
C944   C     0.35461   0.20802   0.75039   0.00000  Uiso   1.00
C945   C     0.50653   0.20331   0.54566   0.00000  Uiso   1.00
C946   C     0.50221   0.12379   0.95260   0.00000  Uiso   1.00
C947   C     0.48260   0.20287   0.95308   0.00000  Uiso   1.00
C948   C     0.48650   0.12442   0.54799   0.00000  Uiso   1.00
C949   C     0.50425   0.20601   0.59108   0.00000  Uiso   1.00
C950   C     0.50029   0.12360   0.90703   0.00000  Uiso   1.00
C951   C     0.48907   0.20574   0.90814   0.00000  Uiso   1.00
C952   C     0.58006   0.16666   0.75002   0.00000  Uiso   1.00
C953   C     0.49273   0.12397   0.59318   0.00000  Uiso   1.00
C954   C     0.49912   0.16565   0.61569   0.00000  Uiso   1.00
C955   C     0.49659   0.16548   0.88414   0.00000  Uiso   1.00
C956   C     0.49484   0.16359   0.52384   0.00000  Uiso   1.00
C957   C     0.49255   0.16312   0.97587   0.00000  Uiso   1.00
C958   C     0.62420   0.16665   0.75004   0.00000  Uiso   1.00
C959   C     0.37580   0.16666   0.75009   0.00000  Uiso   1.00
C960   C     0.47107   0.26996   0.61545   0.00000  Uiso   1.00
C961   C     0.45142   0.28547   0.57137   0.00000  Uiso   1.00
C962   C     0.41759   0.32092   0.57861   0.00000  Uiso   1.00
C963   C     0.49999   0.16656   0.66378   0.00000  Uiso   1.00
C964   C     0.46590   0.06329   0.87603   0.00000  Uiso   1.00
C965   C     0.44670   0.04031   0.91653   0.00000  Uiso   1.00
C966   C     0.41065   0.00937   0.90343   0.00000  Uiso   1.00
C967   C     0.52475   0.26928   0.88659   0.00000  Uiso   1.00
C968   C     0.54136   0.28414   0.93221   0.00000  Uiso   1.00
C969   C     0.57576   0.31948   0.92803   0.00000  Uiso   1.00
C970   C     0.52983   0.06364   0.62050   0.00000  Uiso   1.00
C971   C     0.54613   0.04227   0.57778   0.00000  Uiso   1.00
C972   C     0.58285   0.01076   0.58692   0.00000  Uiso   1.00
C973   C     0.49936   0.16651   0.83619   0.00000  Uiso   1.00
C974   C     0.53083   0.02396   0.77112   0.00000  Uiso   1.00
C975   C     0.46872   0.30943   0.72968   0.00000  Uiso   1.00
C976   C     0.46908   0.02402   0.72904   0.00000  Uiso   1.00
C977   C     0.53112   0.30936   0.77062   0.00000  Uiso   1.00
C978   C     0.35462   0.12529   0.74984   0.00000  Uiso   1.00
F979   F     0.56133   0.04654   0.79301   0.00000  Uiso   1.00
F980   F     0.43691   0.28696   0.70997   0.00000  Uiso   1.00
F981   F     0.43847   0.04665   0.70732   0.00000  Uiso   1.00
F982   F     0.56249   0.28678   0.79109   0.00000  Uiso   1.00
H983   H     0.51570   0.23334   0.52763   0.00000  Uiso   1.00
H984   H     0.44858   0.24822   0.63355   0.00000  Uiso   1.00
H985   H     0.47546   0.29985   0.54946   0.00000  Uiso   1.00
H986   H     0.43711   0.25592   0.55433   0.00000  Uiso   1.00
H987   H     0.39287   0.30698   0.60011   0.00000  Uiso   1.00
H988   H     0.40352   0.33061   0.54635   0.00000  Uiso   1.00
H989   H     0.43097   0.01842   0.59421   0.00000  Uiso   1.00
H990   H     0.47065   0.03733   0.85000   0.00000  Uiso   1.00
H991   H     0.44363   0.08859   0.86196   0.00000  Uiso   1.00
H992   H     0.47067   0.02009   0.93405   0.00000  Uiso   1.00
H993   H     0.43495   0.06650   0.93961   0.00000  Uiso   1.00
H994   H     0.51066   0.09263   0.96932   0.00000  Uiso   1.00
H995   H     0.38597   0.02916   0.88622   0.00000  Uiso   1.00
H996   H     0.39726   0.32704   0.93348   0.00000  Uiso   1.00
H997   H     0.42163   0.31523   0.88135   0.00000  Uiso   1.00
H998   H     0.52088   0.29994   0.86567   0.00000  Uiso   1.00
H999   H     0.54822   0.24739   0.87018   0.00000  Uiso   1.00
H1000  H     0.51592   0.29843   0.95233   0.00000  Uiso   1.00
H1001  H     0.55427   0.25426   0.95002   0.00000  Uiso   1.00
H1002  H     0.60185   0.30571   0.90834   0.00000  Uiso   1.00
H1003  H     0.58763   0.32862   0.96138   0.00000  Uiso   1.00
H1004  H     0.56358   0.01729   0.91183   0.00000  Uiso   1.00
H1005  H     0.47245   0.23297   0.97034   0.00000  Uiso   1.00
H1006  H     0.52723   0.03678   0.64609   0.00000  Uiso   1.00
H1007  H     0.55285   0.08873   0.63342   0.00000  Uiso   1.00
H1008  H     0.52098   0.02283   0.56136   0.00000  Uiso   1.00
H1009  H     0.55637   0.06938   0.55482   0.00000  Uiso   1.00
H1010  H     0.60868   0.02980   0.60291   0.00000  Uiso   1.00
H1011  H     0.59408   0.32969   0.55534   0.00000  Uiso   1.00
H1012  H     0.57330   0.31573   0.60875   0.00000  Uiso   1.00
H1013  H     0.47673   0.09333   0.53202   0.00000  Uiso   1.00
H1014  H     0.37075   0.09304   0.74967   0.00000  Uiso   1.00
H1015  H     0.62926   0.24027   0.75052   0.00000  Uiso   1.00
H1016  H     0.62926   0.09304   0.74952   0.00000  Uiso   1.00
H1017  H     0.37073   0.24027   0.75067   0.00000  Uiso   1.00
H1018  H     0.47681   0.30042   0.63610   0.00000  Uiso   1.00
N1019  N     0.50000   0.28573   0.75000   0.00000  Uiso   1.00
N1020  N     0.50000   0.04760   0.75000   0.00000  Uiso   1.00
O1021  O     0.43892   0.20487   0.74999   0.00000  Uiso   1.00
O1022  O     0.50541   0.08246   0.88577   0.00000  Uiso   1.00
O1023  O     0.48525   0.24788   0.88837   0.00000  Uiso   1.00
O1024  O     0.48961   0.08270   0.61474   0.00000  Uiso   1.00
O1025  O     0.56108   0.12846   0.75000   0.00000  Uiso   1.00
O1026  O     0.56108   0.20487   0.75000   0.00000  Uiso   1.00
O1027  O     0.43892   0.12846   0.74999   0.00000  Uiso   1.00
O1028  O     0.50000   0.20489   0.68453   0.00000  Uiso   1.00
O1029  O     0.50000   0.12845   0.81547   0.00000  Uiso   1.00
O1030  O     0.50000   0.20489   0.81547   0.00000  Uiso   1.00
O1031  O     0.50000   0.12845   0.68453   0.00000  Uiso   1.00
O1032  O     0.51004   0.24802   0.61045   0.00000  Uiso   1.00
Zn1033 Zn    0.50000   0.21771   0.75000   0.00000  Uiso   1.00
Zn1034 Zn    0.50000   0.11563   0.75000   0.00000  Uiso   1.00
C1035  C     0.75328   0.16667   0.75002   0.00000  Uiso   1.00
C1036  C     0.97872   0.20802   0.75034   0.00000  Uiso   1.00
C1037  C     0.97872   0.12529   0.74979   0.00000  Uiso   1.00
C1038  C     0.68794   0.20802   0.75039   0.00000  Uiso   1.00
C1039  C     0.83986   0.20331   0.54566   0.00000  Uiso   1.00
C1040  C     0.83554   0.12379   0.95260   0.00000  Uiso   1.00
C1041  C     0.81594   0.20287   0.95308   0.00000  Uiso   1.00
C1042  C     0.81983   0.12442   0.54799   0.00000  Uiso   1.00
C1043  C     0.83758   0.20601   0.59108   0.00000  Uiso   1.00
C1044  C     0.83362   0.12360   0.90703   0.00000  Uiso   1.00
C1045  C     0.82240   0.20574   0.90814   0.00000  Uiso   1.00
C1046  C     0.91339   0.16666   0.75002   0.00000  Uiso   1.00
C1047  C     0.82606   0.12397   0.59318   0.00000  Uiso   1.00
C1048  C     0.83245   0.16565   0.61569   0.00000  Uiso   1.00
C1049  C     0.82993   0.16548   0.88414   0.00000  Uiso   1.00
C1050  C     0.82817   0.16359   0.52384   0.00000  Uiso   1.00
C1051  C     0.82588   0.16312   0.97587   0.00000  Uiso   1.00
C1052  C     0.95754   0.16665   0.75004   0.00000  Uiso   1.00
C1053  C     0.70913   0.16666   0.75009   0.00000  Uiso   1.00
C1054  C     0.80440   0.26996   0.61545   0.00000  Uiso   1.00
C1055  C     0.78475   0.28547   0.57137   0.00000  Uiso   1.00
C1056  C     0.75093   0.32092   0.57861   0.00000  Uiso   1.00
C1057  C     0.83332   0.16656   0.66378   0.00000  Uiso   1.00
C1058  C     0.79923   0.06329   0.87603   0.00000  Uiso   1.00
C1059  C     0.78004   0.04031   0.91653   0.00000  Uiso   1.00
C1060  C     0.74398   0.00937   0.90343   0.00000  Uiso   1.00
C1061  C     0.85808   0.26928   0.88659   0.00000  Uiso   1.00
C1062  C     0.87469   0.28414   0.93221   0.00000  Uiso   1.00
C1063  C     0.90909   0.31948   0.92803   0.00000  Uiso   1.00
C1064  C     0.86316   0.06364   0.62050   0.00000  Uiso   1.00
C1065  C     0.87946   0.04227   0.57778   0.00000  Uiso   1.00
C1066  C     0.91618   0.01076   0.58692   0.00000  Uiso   1.00
C1067  C     0.83269   0.16651   0.83619   0.00000  Uiso   1.00
C1068  C     0.86416   0.02396   0.77112   0.00000  Uiso   1.00
C1069  C     0.80205   0.30943   0.72968   0.00000  Uiso   1.00
C1070  C     0.80242   0.02402   0.72904   0.00000  Uiso   1.00
C1071  C     0.86445   0.30936   0.77062   0.00000  Uiso   1.00
C1072  C     0.68795   0.12529   0.74984   0.00000  Uiso   1.00
F1073  F     0.89466   0.04654   0.79301   0.00000  Uiso   1.00
F1074  F     0.77024   0.28696   0.70997   0.00000  Uiso   1.00
F1075  F     0.77180   0.04665   0.70732   0.00000  Uiso   1.00
F1076  F     0.89583   0.28678   0.79109   0.00000  Uiso   1.00
H1077  H     0.84903   0.23334   0.52763   0.00000  Uiso   1.00
H1078  H     0.78192   0.24822   0.63355   0.00000  Uiso   1.00
H1079  H     0.80879   0.29985   0.54946   0.00000  Uiso   1.00
H1080  H     0.77045   0.25592   0.55433   0.00000  Uiso   1.00
H1081  H     0.72620   0.30698   0.60011   0.00000  Uiso   1.00
H1082  H     0.73686   0.33061   0.54635   0.00000  Uiso   1.00
H1083  H     0.76431   0.01842   0.59421   0.00000  Uiso   1.00
H1084  H     0.80399   0.03733   0.85000   0.00000  Uiso   1.00
H1085  H     0.77696   0.08859   0.86196   0.00000  Uiso   1.00
H1086  H     0.80401   0.02009   0.93405   0.00000  Uiso   1.00
H1087  H     0.76828   0.06650   0.93961   0.00000  Uiso   1.00
H1088  H     0.84400   0.09263   0.96932   0.00000  Uiso   1.00
H1089  H     0.71931   0.02916   0.88622   0.00000  Uiso   1.00
H1090  H     0.73059   0.32704   0.93348   0.00000  Uiso   1.00
H1091  H     0.75497   0.31523   0.88135   0.00000  Uiso   1.00
H1092  H     0.85421   0.29994   0.86567   0.00000  Uiso   1.00
H1093  H     0.88155   0.24739   0.87018   0.00000  Uiso   1.00
H1094  H     0.84926   0.29843   0.95233   0.00000  Uiso   1.00
H1095  H     0.88760   0.25426   0.95002   0.00000  Uiso   1.00
H1096  H     0.93518   0.30571   0.90834   0.00000  Uiso   1.00
H1097  H     0.92097   0.32862   0.96138   0.00000  Uiso   1.00
H1098  H     0.89691   0.01729   0.91183   0.00000  Uiso   1.00
H1099  H     0.80578   0.23297   0.97034   0.00000  Uiso   1.00
H1100  H     0.86056   0.03678   0.64609   0.00000  Uiso   1.00
H1101  H     0.88618   0.08873   0.63342   0.00000  Uiso   1.00
H1102  H     0.85432   0.02283   0.56136   0.00000  Uiso   1.00
H1103  H     0.88970   0.06938   0.55482   0.00000  Uiso   1.00
H1104  H     0.94202   0.02980   0.60291   0.00000  Uiso   1.00
H1105  H     0.92741   0.32969   0.55534   0.00000  Uiso   1.00
H1106  H     0.90663   0.31573   0.60875   0.00000  Uiso   1.00
H1107  H     0.81006   0.09333   0.53202   0.00000  Uiso   1.00
H1108  H     0.70409   0.09304   0.74967   0.00000  Uiso   1.00
H1109  H     0.96259   0.24027   0.75052   0.00000  Uiso   1.00
H1110  H     0.96259   0.09304   0.74952   0.00000  Uiso   1.00
H1111  H     0.70407   0.24027   0.75067   0.00000  Uiso   1.00
H1112  H     0.81014   0.30042   0.63610   0.00000  Uiso   1.00
N1113  N     0.83333   0.28573   0.75000   0.00000  Uiso   1.00
N1114  N     0.83333   0.04760   0.75000   0.00000  Uiso   1.00
O1115  O     0.77226   0.20487   0.74999   0.00000  Uiso   1.00
O1116  O     0.83874   0.08246   0.88577   0.00000  Uiso   1.00
O1117  O     0.81859   0.24788   0.88837   0.00000  Uiso   1.00
O1118  O     0.82295   0.08270   0.61474   0.00000  Uiso   1.00
O1119  O     0.89441   0.12846   0.75000   0.00000  Uiso   1.00
O1120  O     0.89441   0.20487   0.75000   0.00000  Uiso   1.00
O1121  O     0.77226   0.12846   0.74999   0.00000  Uiso   1.00
O1122  O     0.83333   0.20489   0.68453   0.00000  Uiso   1.00
O1123  O     0.83334   0.12845   0.81547   0.00000  Uiso   1.00
O1124  O     0.83334   0.20489   0.81547   0.00000  Uiso   1.00
O1125  O     0.83333   0.12845   0.68453   0.00000  Uiso   1.00
O1126  O     0.84337   0.24802   0.61045   0.00000  Uiso   1.00
Zn1127 Zn    0.83333   0.21771   0.75000   0.00000  Uiso   1.00
Zn1128 Zn    0.83333   0.11563   0.75000   0.00000  Uiso   1.00
C1129  C     0.08661   0.50000   0.75002   0.00000  Uiso   1.00
C1130  C     0.31205   0.54135   0.75034   0.00000  Uiso   1.00
C1131  C     0.31206   0.45862   0.74979   0.00000  Uiso   1.00
C1132  C     0.02128   0.54135   0.75039   0.00000  Uiso   1.00
C1133  C     0.17320   0.53664   0.54566   0.00000  Uiso   1.00
C1134  C     0.16888   0.45712   0.95260   0.00000  Uiso   1.00
C1135  C     0.14927   0.53620   0.95308   0.00000  Uiso   1.00
C1136  C     0.15317   0.45775   0.54799   0.00000  Uiso   1.00
C1137  C     0.17091   0.53935   0.59108   0.00000  Uiso   1.00
C1138  C     0.16695   0.45693   0.90703   0.00000  Uiso   1.00
C1139  C     0.15573   0.53907   0.90814   0.00000  Uiso   1.00
C1140  C     0.24672   0.50000   0.75002   0.00000  Uiso   1.00
C1141  C     0.15939   0.45731   0.59318   0.00000  Uiso   1.00
C1142  C     0.16579   0.49899   0.61569   0.00000  Uiso   1.00
C1143  C     0.16326   0.49881   0.88414   0.00000  Uiso   1.00
C1144  C     0.16150   0.49692   0.52384   0.00000  Uiso   1.00
C1145  C     0.15921   0.49645   0.97587   0.00000  Uiso   1.00
C1146  C     0.29087   0.49999   0.75004   0.00000  Uiso   1.00
C1147  C     0.04247   0.49999   0.75009   0.00000  Uiso   1.00
C1148  C     0.13773   0.60329   0.61545   0.00000  Uiso   1.00
C1149  C     0.11808   0.61880   0.57137   0.00000  Uiso   1.00
C1150  C     0.08426   0.65425   0.57861   0.00000  Uiso   1.00
C1151  C     0.16665   0.49989   0.66378   0.00000  Uiso   1.00
C1152  C     0.13256   0.39663   0.87603   0.00000  Uiso   1.00
C1153  C     0.11337   0.37364   0.91653   0.00000  Uiso   1.00
C1154  C     0.07731   0.34270   0.90343   0.00000  Uiso   1.00
C1155  C     0.19142   0.60261   0.88659   0.00000  Uiso   1.00
C1156  C     0.20803   0.61747   0.93221   0.00000  Uiso   1.00
C1157  C     0.24243   0.65281   0.92803   0.00000  Uiso   1.00
C1158  C     0.19650   0.39697   0.62050   0.00000  Uiso   1.00
C1159  C     0.21280   0.37560   0.57778   0.00000  Uiso   1.00
C1160  C     0.24951   0.34410   0.58692   0.00000  Uiso   1.00
C1161  C     0.16602   0.49984   0.83619   0.00000  Uiso   1.00
C1162  C     0.19749   0.35729   0.77112   0.00000  Uiso   1.00
C1163  C     0.13539   0.64277   0.72968   0.00000  Uiso   1.00
C1164  C     0.13575   0.35736   0.72904   0.00000  Uiso   1.00
C1165  C     0.19779   0.64269   0.77062   0.00000  Uiso   1.00
C1166  C     0.02128   0.45862   0.74984   0.00000  Uiso   1.00
F1167  F     0.22800   0.37988   0.79301   0.00000  Uiso   1.00
F1168  F     0.10358   0.62030   0.70997   0.00000  Uiso   1.00
F1169  F     0.10513   0.37999   0.70732   0.00000  Uiso   1.00
F1170  F     0.22916   0.62011   0.79109   0.00000  Uiso   1.00
H1171  H     0.18236   0.56667   0.52763   0.00000  Uiso   1.00
H1172  H     0.11525   0.58156   0.63355   0.00000  Uiso   1.00
H1173  H     0.14213   0.63319   0.54946   0.00000  Uiso   1.00
H1174  H     0.10378   0.58925   0.55433   0.00000  Uiso   1.00
H1175  H     0.05953   0.64032   0.60011   0.00000  Uiso   1.00
H1176  H     0.07019   0.66395   0.54635   0.00000  Uiso   1.00
H1177  H     0.09764   0.35175   0.59421   0.00000  Uiso   1.00
H1178  H     0.13732   0.37067   0.85000   0.00000  Uiso   1.00
H1179  H     0.11030   0.42192   0.86196   0.00000  Uiso   1.00
H1180  H     0.13734   0.35342   0.93405   0.00000  Uiso   1.00
H1181  H     0.10162   0.39984   0.93961   0.00000  Uiso   1.00
H1182  H     0.17733   0.42596   0.96932   0.00000  Uiso   1.00
H1183  H     0.05264   0.36250   0.88622   0.00000  Uiso   1.00
H1184  H     0.06393   0.66038   0.93348   0.00000  Uiso   1.00
H1185  H     0.08830   0.64856   0.88135   0.00000  Uiso   1.00
H1186  H     0.18755   0.63328   0.86567   0.00000  Uiso   1.00
H1187  H     0.21489   0.58072   0.87018   0.00000  Uiso   1.00
H1188  H     0.18259   0.63177   0.95233   0.00000  Uiso   1.00
H1189  H     0.22093   0.58759   0.95002   0.00000  Uiso   1.00
H1190  H     0.26852   0.63904   0.90834   0.00000  Uiso   1.00
H1191  H     0.25430   0.66195   0.96138   0.00000  Uiso   1.00
H1192  H     0.23025   0.35062   0.91183   0.00000  Uiso   1.00
H1193  H     0.13912   0.56630   0.97034   0.00000  Uiso   1.00
H1194  H     0.19390   0.37012   0.64609   0.00000  Uiso   1.00
H1195  H     0.21951   0.42206   0.63342   0.00000  Uiso   1.00
H1196  H     0.18765   0.35616   0.56136   0.00000  Uiso   1.00
H1197  H     0.22304   0.40271   0.55482   0.00000  Uiso   1.00
H1198  H     0.27535   0.36313   0.60291   0.00000  Uiso   1.00
H1199  H     0.26075   0.66302   0.55534   0.00000  Uiso   1.00
H1200  H     0.23996   0.64907   0.60875   0.00000  Uiso   1.00
H1201  H     0.14340   0.42667   0.53202   0.00000  Uiso   1.00
H1202  H     0.03742   0.42637   0.74967   0.00000  Uiso   1.00
H1203  H     0.29593   0.57361   0.75052   0.00000  Uiso   1.00
H1204  H     0.29592   0.42637   0.74952   0.00000  Uiso   1.00
H1205  H     0.03740   0.57361   0.75067   0.00000  Uiso   1.00
H1206  H     0.14348   0.63375   0.63610   0.00000  Uiso   1.00
N1207  N     0.16667   0.61907   0.75000   0.00000  Uiso   1.00
N1208  N     0.16667   0.38093   0.75000   0.00000  Uiso   1.00
O1209  O     0.10559   0.53821   0.74999   0.00000  Uiso   1.00
O1210  O     0.17208   0.41579   0.88577   0.00000  Uiso   1.00
O1211  O     0.15192   0.58121   0.88837   0.00000  Uiso   1.00
O1212  O     0.15628   0.41604   0.61474   0.00000  Uiso   1.00
O1213  O     0.22774   0.46179   0.75000   0.00000  Uiso   1.00
O1214  O     0.22774   0.53821   0.75000   0.00000  Uiso   1.00
O1215  O     0.10559   0.46179   0.74999   0.00000  Uiso   1.00
O1216  O     0.16666   0.53822   0.68453   0.00000  Uiso   1.00
O1217  O     0.16667   0.46178   0.81547   0.00000  Uiso   1.00
O1218  O     0.16667   0.53822   0.81547   0.00000  Uiso   1.00
O1219  O     0.16666   0.46178   0.68453   0.00000  Uiso   1.00
O1220  O     0.17670   0.58135   0.61045   0.00000  Uiso   1.00
Zn1221 Zn    0.16667   0.55104   0.75000   0.00000  Uiso   1.00
Zn1222 Zn    0.16667   0.44896   0.75000   0.00000  Uiso   1.00
C1223  C     0.41994   0.50000   0.75002   0.00000  Uiso   1.00
C1224  C     0.64539   0.54135   0.75034   0.00000  Uiso   1.00
C1225  C     0.64539   0.45862   0.74979   0.00000  Uiso   1.00
C1226  C     0.35461   0.54135   0.75039   0.00000  Uiso   1.00
C1227  C     0.50653   0.53664   0.54566   0.00000  Uiso   1.00
C1228  C     0.50221   0.45712   0.95260   0.00000  Uiso   1.00
C1229  C     0.48260   0.53620   0.95308   0.00000  Uiso   1.00
C1230  C     0.48650   0.45775   0.54799   0.00000  Uiso   1.00
C1231  C     0.50425   0.53935   0.59108   0.00000  Uiso   1.00
C1232  C     0.50029   0.45693   0.90703   0.00000  Uiso   1.00
C1233  C     0.48907   0.53907   0.90814   0.00000  Uiso   1.00
C1234  C     0.58006   0.50000   0.75002   0.00000  Uiso   1.00
C1235  C     0.49273   0.45731   0.59318   0.00000  Uiso   1.00
C1236  C     0.49912   0.49899   0.61569   0.00000  Uiso   1.00
C1237  C     0.49659   0.49881   0.88414   0.00000  Uiso   1.00
C1238  C     0.49484   0.49692   0.52384   0.00000  Uiso   1.00
C1239  C     0.49255   0.49645   0.97587   0.00000  Uiso   1.00
C1240  C     0.62420   0.49999   0.75004   0.00000  Uiso   1.00
C1241  C     0.37580   0.49999   0.75009   0.00000  Uiso   1.00
C1242  C     0.47107   0.60329   0.61545   0.00000  Uiso   1.00
C1243  C     0.45142   0.61880   0.57137   0.00000  Uiso   1.00
C1244  C     0.41759   0.65425   0.57861   0.00000  Uiso   1.00
C1245  C     0.49999   0.49989   0.66378   0.00000  Uiso   1.00
C1246  C     0.46590   0.39663   0.87603   0.00000  Uiso   1.00
C1247  C     0.44670   0.37364   0.91653   0.00000  Uiso   1.00
C1248  C     0.41065   0.34270   0.90343   0.00000  Uiso   1.00
C1249  C     0.52475   0.60261   0.88659   0.00000  Uiso   1.00
C1250  C     0.54136   0.61747   0.93221   0.00000  Uiso   1.00
C1251  C     0.57576   0.65281   0.92803   0.00000  Uiso   1.00
C1252  C     0.52983   0.39697   0.62050   0.00000  Uiso   1.00
C1253  C     0.54613   0.37560   0.57778   0.00000  Uiso   1.00
C1254  C     0.58285   0.34410   0.58692   0.00000  Uiso   1.00
C1255  C     0.49936   0.49984   0.83619   0.00000  Uiso   1.00
C1256  C     0.53083   0.35729   0.77112   0.00000  Uiso   1.00
C1257  C     0.46872   0.64277   0.72968   0.00000  Uiso   1.00
C1258  C     0.46908   0.35736   0.72904   0.00000  Uiso   1.00
C1259  C     0.53112   0.64269   0.77062   0.00000  Uiso   1.00
C1260  C     0.35462   0.45862   0.74984   0.00000  Uiso   1.00
F1261  F     0.56133   0.37988   0.79301   0.00000  Uiso   1.00
F1262  F     0.43691   0.62030   0.70997   0.00000  Uiso   1.00
F1263  F     0.43847   0.37999   0.70732   0.00000  Uiso   1.00
F1264  F     0.56249   0.62011   0.79109   0.00000  Uiso   1.00
H1265  H     0.51570   0.56667   0.52763   0.00000  Uiso   1.00
H1266  H     0.44858   0.58156   0.63355   0.00000  Uiso   1.00
H1267  H     0.47546   0.63319   0.54946   0.00000  Uiso   1.00
H1268  H     0.43711   0.58925   0.55433   0.00000  Uiso   1.00
H1269  H     0.39287   0.64032   0.60011   0.00000  Uiso   1.00
H1270  H     0.40352   0.66395   0.54635   0.00000  Uiso   1.00
H1271  H     0.43097   0.35175   0.59421   0.00000  Uiso   1.00
H1272  H     0.47065   0.37067   0.85000   0.00000  Uiso   1.00
H1273  H     0.44363   0.42192   0.86196   0.00000  Uiso   1.00
H1274  H     0.47067   0.35342   0.93405   0.00000  Uiso   1.00
H1275  H     0.43495   0.39984   0.93961   0.00000  Uiso   1.00
H1276  H     0.51066   0.42596   0.96932   0.00000  Uiso   1.00
H1277  H     0.38597   0.36250   0.88622   0.00000  Uiso   1.00
H1278  H     0.39726   0.66038   0.93348   0.00000  Uiso   1.00
H1279  H     0.42163   0.64856   0.88135   0.00000  Uiso   1.00
H1280  H     0.52088   0.63328   0.86567   0.00000  Uiso   1.00
H1281  H     0.54822   0.58072   0.87018   0.00000  Uiso   1.00
H1282  H     0.51592   0.63177   0.95233   0.00000  Uiso   1.00
H1283  H     0.55427   0.58759   0.95002   0.00000  Uiso   1.00
H1284  H     0.60185   0.63904   0.90834   0.00000  Uiso   1.00
H1285  H     0.58763   0.66195   0.96138   0.00000  Uiso   1.00
H1286  H     0.56358   0.35062   0.91183   0.00000  Uiso   1.00
H1287  H     0.47245   0.56630   0.97034   0.00000  Uiso   1.00
H1288  H     0.52723   0.37012   0.64609   0.00000  Uiso   1.00
H1289  H     0.55285   0.42206   0.63342   0.00000  Uiso   1.00
H1290  H     0.52098   0.35616   0.56136   0.00000  Uiso   1.00
H1291  H     0.55637   0.40271   0.55482   0.00000  Uiso   1.00
H1292  H     0.60868   0.36313   0.60291   0.00000  Uiso   1.00
H1293  H     0.59408   0.66302   0.55534   0.00000  Uiso   1.00
H1294  H     0.57330   0.64907   0.60875   0.00000  Uiso   1.00
H1295  H     0.47673   0.42667   0.53202   0.00000  Uiso   1.00
H1296  H     0.37075   0.42637   0.74967   0.00000  Uiso   1.00
H1297  H     0.62926   0.57361   0.75052   0.00000  Uiso   1.00
H1298  H     0.62926   0.42637   0.74952   0.00000  Uiso   1.00
H1299  H     0.37073   0.57361   0.75067   0.00000  Uiso   1.00
H1300  H     0.47681   0.63375   0.63610   0.00000  Uiso   1.00
N1301  N     0.50000   0.61907   0.75000   0.00000  Uiso   1.00
N1302  N     0.50000   0.38093   0.75000   0.00000  Uiso   1.00
O1303  O     0.43892   0.53821   0.74999   0.00000  Uiso   1.00
O1304  O     0.50541   0.41579   0.88577   0.00000  Uiso   1.00
O1305  O     0.48525   0.58121   0.88837   0.00000  Uiso   1.00
O1306  O     0.48961   0.41604   0.61474   0.00000  Uiso   1.00
O1307  O     0.56108   0.46179   0.75000   0.00000  Uiso   1.00
O1308  O     0.56108   0.53821   0.75000   0.00000  Uiso   1.00
O1309  O     0.43892   0.46179   0.74999   0.00000  Uiso   1.00
O1310  O     0.50000   0.53822   0.68453   0.00000  Uiso   1.00
O1311  O     0.50000   0.46178   0.81547   0.00000  Uiso   1.00
O1312  O     0.50000   0.53822   0.81547   0.00000  Uiso   1.00
O1313  O     0.50000   0.46178   0.68453   0.00000  Uiso   1.00
O1314  O     0.51004   0.58135   0.61045   0.00000  Uiso   1.00
Zn1315 Zn    0.50000   0.55104   0.75000   0.00000  Uiso   1.00
Zn1316 Zn    0.50000   0.44896   0.75000   0.00000  Uiso   1.00
C1317  C     0.75328   0.50000   0.75002   0.00000  Uiso   1.00
C1318  C     0.97872   0.54135   0.75034   0.00000  Uiso   1.00
C1319  C     0.97872   0.45862   0.74979   0.00000  Uiso   1.00
C1320  C     0.68794   0.54135   0.75039   0.00000  Uiso   1.00
C1321  C     0.83986   0.53664   0.54566   0.00000  Uiso   1.00
C1322  C     0.83554   0.45712   0.95260   0.00000  Uiso   1.00
C1323  C     0.81594   0.53620   0.95308   0.00000  Uiso   1.00
C1324  C     0.81983   0.45775   0.54799   0.00000  Uiso   1.00
C1325  C     0.83758   0.53935   0.59108   0.00000  Uiso   1.00
C1326  C     0.83362   0.45693   0.90703   0.00000  Uiso   1.00
C1327  C     0.82240   0.53907   0.90814   0.00000  Uiso   1.00
C1328  C     0.91339   0.50000   0.75002   0.00000  Uiso   1.00
C1329  C     0.82606   0.45731   0.59318   0.00000  Uiso   1.00
C1330  C     0.83245   0.49899   0.61569   0.00000  Uiso   1.00
C1331  C     0.82993   0.49881   0.88414   0.00000  Uiso   1.00
C1332  C     0.82817   0.49692   0.52384   0.00000  Uiso   1.00
C1333  C     0.82588   0.49645   0.97587   0.00000  Uiso   1.00
C1334  C     0.95754   0.49999   0.75004   0.00000  Uiso   1.00
C1335  C     0.70913   0.49999   0.75009   0.00000  Uiso   1.00
C1336  C     0.80440   0.60329   0.61545   0.00000  Uiso   1.00
C1337  C     0.78475   0.61880   0.57137   0.00000  Uiso   1.00
C1338  C     0.75093   0.65425   0.57861   0.00000  Uiso   1.00
C1339  C     0.83332   0.49989   0.66378   0.00000  Uiso   1.00
C1340  C     0.79923   0.39663   0.87603   0.00000  Uiso   1.00
C1341  C     0.78004   0.37364   0.91653   0.00000  Uiso   1.00
C1342  C     0.74398   0.34270   0.90343   0.00000  Uiso   1.00
C1343  C     0.85808   0.60261   0.88659   0.00000  Uiso   1.00
C1344  C     0.87469   0.61747   0.93221   0.00000  Uiso   1.00
C1345  C     0.90909   0.65281   0.92803   0.00000  Uiso   1.00
C1346  C     0.86316   0.39697   0.62050   0.00000  Uiso   1.00
C1347  C     0.87946   0.37560   0.57778   0.00000  Uiso   1.00
C1348  C     0.91618   0.34410   0.58692   0.00000  Uiso   1.00
C1349  C     0.83269   0.49984   0.83619   0.00000  Uiso   1.00
C1350  C     0.86416   0.35729   0.77112   0.00000  Uiso   1.00
C1351  C     0.80205   0.64277   0.72968   0.00000  Uiso   1.00
C1352  C     0.80242   0.35736   0.72904   0.00000  Uiso   1.00
C1353  C     0.86445   0.64269   0.77062   0.00000  Uiso   1.00
C1354  C     0.68795   0.45862   0.74984   0.00000  Uiso   1.00
F1355  F     0.89466   0.37988   0.79301   0.00000  Uiso   1.00
F1356  F     0.77024   0.62030   0.70997   0.00000  Uiso   1.00
F1357  F     0.77180   0.37999   0.70732   0.00000  Uiso   1.00
F1358  F     0.89583   0.62011   0.79109   0.00000  Uiso   1.00
H1359  H     0.84903   0.56667   0.52763   0.00000  Uiso   1.00
H1360  H     0.78192   0.58156   0.63355   0.00000  Uiso   1.00
H1361  H     0.80879   0.63319   0.54946   0.00000  Uiso   1.00
H1362  H     0.77045   0.58925   0.55433   0.00000  Uiso   1.00
H1363  H     0.72620   0.64032   0.60011   0.00000  Uiso   1.00
H1364  H     0.73686   0.66395   0.54635   0.00000  Uiso   1.00
H1365  H     0.76431   0.35175   0.59421   0.00000  Uiso   1.00
H1366  H     0.80399   0.37067   0.85000   0.00000  Uiso   1.00
H1367  H     0.77696   0.42192   0.86196   0.00000  Uiso   1.00
H1368  H     0.80401   0.35342   0.93405   0.00000  Uiso   1.00
H1369  H     0.76828   0.39984   0.93961   0.00000  Uiso   1.00
H1370  H     0.84400   0.42596   0.96932   0.00000  Uiso   1.00
H1371  H     0.71931   0.36250   0.88622   0.00000  Uiso   1.00
H1372  H     0.73059   0.66038   0.93348   0.00000  Uiso   1.00
H1373  H     0.75497   0.64856   0.88135   0.00000  Uiso   1.00
H1374  H     0.85421   0.63328   0.86567   0.00000  Uiso   1.00
H1375  H     0.88155   0.58072   0.87018   0.00000  Uiso   1.00
H1376  H     0.84926   0.63177   0.95233   0.00000  Uiso   1.00
H1377  H     0.88760   0.58759   0.95002   0.00000  Uiso   1.00
H1378  H     0.93518   0.63904   0.90834   0.00000  Uiso   1.00
H1379  H     0.92097   0.66195   0.96138   0.00000  Uiso   1.00
H1380  H     0.89691   0.35062   0.91183   0.00000  Uiso   1.00
H1381  H     0.80578   0.56630   0.97034   0.00000  Uiso   1.00
H1382  H     0.86056   0.37012   0.64609   0.00000  Uiso   1.00
H1383  H     0.88618   0.42206   0.63342   0.00000  Uiso   1.00
H1384  H     0.85432   0.35616   0.56136   0.00000  Uiso   1.00
H1385  H     0.88970   0.40271   0.55482   0.00000  Uiso   1.00
H1386  H     0.94202   0.36313   0.60291   0.00000  Uiso   1.00
H1387  H     0.92741   0.66302   0.55534   0.00000  Uiso   1.00
H1388  H     0.90663   0.64907   0.60875   0.00000  Uiso   1.00
H1389  H     0.81006   0.42667   0.53202   0.00000  Uiso   1.00
H1390  H     0.70409   0.42637   0.74967   0.00000  Uiso   1.00
H1391  H     0.96259   0.57361   0.75052   0.00000  Uiso   1.00
H1392  H     0.96259   0.42637   0.74952   0.00000  Uiso   1.00
H1393  H     0.70407   0.57361   0.75067   0.00000  Uiso   1.00
H1394  H     0.81014   0.63375   0.63610   0.00000  Uiso   1.00
N1395  N     0.83333   0.61907   0.75000   0.00000  Uiso   1.00
N1396  N     0.83333   0.38093   0.75000   0.00000  Uiso   1.00
O1397  O     0.77226   0.53821   0.74999   0.00000  Uiso   1.00
O1398  O     0.83874   0.41579   0.88577   0.00000  Uiso   1.00
O1399  O     0.81859   0.58121   0.88837   0.00000  Uiso   1.00
O1400  O     0.82295   0.41604   0.61474   0.00000  Uiso   1.00
O1401  O     0.89441   0.46179   0.75000   0.00000  Uiso   1.00
O1402  O     0.89441   0.53821   0.75000   0.00000  Uiso   1.00
O1403  O     0.77226   0.46179   0.74999   0.00000  Uiso   1.00
O1404  O     0.83333   0.53822   0.68453   0.00000  Uiso   1.00
O1405  O     0.83334   0.46178   0.81547   0.00000  Uiso   1.00
O1406  O     0.83334   0.53822   0.81547   0.00000  Uiso   1.00
O1407  O     0.83333   0.46178   0.68453   0.00000  Uiso   1.00
O1408  O     0.84337   0.58135   0.61045   0.00000  Uiso   1.00
Zn1409 Zn    0.83333   0.55104   0.75000   0.00000  Uiso   1.00
Zn1410 Zn    0.83333   0.44896   0.75000   0.00000  Uiso   1.00
C1411  C     0.08661   0.83333   0.75002   0.00000  Uiso   1.00
C1412  C     0.31205   0.87469   0.75034   0.00000  Uiso   1.00
C1413  C     0.31206   0.79195   0.74979   0.00000  Uiso   1.00
C1414  C     0.02128   0.87469   0.75039   0.00000  Uiso   1.00
C1415  C     0.17320   0.86997   0.54566   0.00000  Uiso   1.00
C1416  C     0.16888   0.79045   0.95260   0.00000  Uiso   1.00
C1417  C     0.14927   0.86953   0.95308   0.00000  Uiso   1.00
C1418  C     0.15317   0.79108   0.54799   0.00000  Uiso   1.00
C1419  C     0.17091   0.87268   0.59108   0.00000  Uiso   1.00
C1420  C     0.16695   0.79026   0.90703   0.00000  Uiso   1.00
C1421  C     0.15573   0.87241   0.90814   0.00000  Uiso   1.00
C1422  C     0.24672   0.83333   0.75002   0.00000  Uiso   1.00
C1423  C     0.15939   0.79064   0.59318   0.00000  Uiso   1.00
C1424  C     0.16579   0.83232   0.61569   0.00000  Uiso   1.00
C1425  C     0.16326   0.83215   0.88414   0.00000  Uiso   1.00
C1426  C     0.16150   0.83025   0.52384   0.00000  Uiso   1.00
C1427  C     0.15921   0.82978   0.97587   0.00000  Uiso   1.00
C1428  C     0.29087   0.83332   0.75004   0.00000  Uiso   1.00
C1429  C     0.04247   0.83332   0.75009   0.00000  Uiso   1.00
C1430  C     0.13773   0.93663   0.61545   0.00000  Uiso   1.00
C1431  C     0.11808   0.95214   0.57137   0.00000  Uiso   1.00
C1432  C     0.08426   0.98758   0.57861   0.00000  Uiso   1.00
C1433  C     0.16665   0.83322   0.66378   0.00000  Uiso   1.00
C1434  C     0.13256   0.72996   0.87603   0.00000  Uiso   1.00
C1435  C     0.11337   0.70698   0.91653   0.00000  Uiso   1.00
C1436  C     0.07731   0.67604   0.90343   0.00000  Uiso   1.00
C1437  C     0.19142   0.93595   0.88659   0.00000  Uiso   1.00
C1438  C     0.20803   0.95081   0.93221   0.00000  Uiso   1.00
C1439  C     0.24243   0.98614   0.92803   0.00000  Uiso   1.00
C1440  C     0.19650   0.73030   0.62050   0.00000  Uiso   1.00
C1441  C     0.21280   0.70893   0.57778   0.00000  Uiso   1.00
C1442  C     0.24951   0.67743   0.58692   0.00000  Uiso   1.00
C1443  C     0.16602   0.83317   0.83619   0.00000  Uiso   1.00
C1444  C     0.19749   0.69063   0.77112   0.00000  Uiso   1.00
C1445  C     0.13539   0.97610   0.72968   0.00000  Uiso   1.00
C1446  C     0.13575   0.69069   0.72904   0.00000  Uiso   1.00
C1447  C     0.19779   0.97602   0.77062   0.00000  Uiso   1.00
C1448  C     0.02128   0.79195   0.74984   0.00000  Uiso   1.00
F1449  F     0.22800   0.71321   0.79301   0.00000  Uiso   1.00
F1450  F     0.10358   0.95363   0.70997   0.00000  Uiso   1.00
F1451  F     0.10513   0.71332   0.70732   0.00000  Uiso   1.00
F1452  F     0.22916   0.95344   0.79109   0.00000  Uiso   1.00
H1453  H     0.18236   0.90000   0.52763   0.00000  Uiso   1.00
H1454  H     0.11525   0.91489   0.63355   0.00000  Uiso   1.00
H1455  H     0.14213   0.96652   0.54946   0.00000  Uiso   1.00
H1456  H     0.10378   0.92258   0.55433   0.00000  Uiso   1.00
H1457  H     0.05953   0.97365   0.60011   0.00000  Uiso   1.00
H1458  H     0.07019   0.99728   0.54635   0.00000  Uiso   1.00
H1459  H     0.09764   0.68508   0.59421   0.00000  Uiso   1.00
H1460  H     0.13732   0.70400   0.85000   0.00000  Uiso   1.00
H1461  H     0.11030   0.75526   0.86196   0.00000  Uiso   1.00
H1462  H     0.13734   0.68675   0.93405   0.00000  Uiso   1.00
H1463  H     0.10162   0.73317   0.93961   0.00000  Uiso   1.00
H1464  H     0.17733   0.75930   0.96932   0.00000  Uiso   1.00
H1465  H     0.05264   0.69583   0.88622   0.00000  Uiso   1.00
H1466  H     0.06393   0.99371   0.93348   0.00000  Uiso   1.00
H1467  H     0.08830   0.98189   0.88135   0.00000  Uiso   1.00
H1468  H     0.18755   0.96661   0.86567   0.00000  Uiso   1.00
H1469  H     0.21489   0.91405   0.87018   0.00000  Uiso   1.00
H1470  H     0.18259   0.96510   0.95233   0.00000  Uiso   1.00
H1471  H     0.22093   0.92092   0.95002   0.00000  Uiso   1.00
H1472  H     0.26852   0.97238   0.90834   0.00000  Uiso   1.00
H1473  H     0.25430   0.99528   0.96138   0.00000  Uiso   1.00
H1474  H     0.23025   0.68395   0.91183   0.00000  Uiso   1.00
H1475  H     0.13912   0.89964   0.97034   0.00000  Uiso   1.00
H1476  H     0.19390   0.70345   0.64609   0.00000  Uiso   1.00
H1477  H     0.21951   0.75539   0.63342   0.00000  Uiso   1.00
H1478  H     0.18765   0.68950   0.56136   0.00000  Uiso   1.00
H1479  H     0.22304   0.73604   0.55482   0.00000  Uiso   1.00
H1480  H     0.27535   0.69646   0.60291   0.00000  Uiso   1.00
H1481  H     0.26075   0.99635   0.55534   0.00000  Uiso   1.00
H1482  H     0.23996   0.98240   0.60875   0.00000  Uiso   1.00
H1483  H     0.14340   0.76000   0.53202   0.00000  Uiso   1.00
H1484  H     0.03742   0.75970   0.74967   0.00000  Uiso   1.00
H1485  H     0.29593   0.90694   0.75052   0.00000  Uiso   1.00
H1486  H     0.29592   0.75970   0.74952   0.00000  Uiso   1.00
H1487  H     0.03740   0.90694   0.75067   0.00000  Uiso   1.00
H1488  H     0.14348   0.96708   0.63610   0.00000  Uiso   1.00
N1489  N     0.16667   0.95240   0.75000   0.00000  Uiso   1.00
N1490  N     0.16667   0.71427   0.75000   0.00000  Uiso   1.00
O1491  O     0.10559   0.87154   0.74999   0.00000  Uiso   1.00
O1492  O     0.17208   0.74912   0.88577   0.00000  Uiso   1.00
O1493  O     0.15192   0.91454   0.88837   0.00000  Uiso   1.00
O1494  O     0.15628   0.74937   0.61474   0.00000  Uiso   1.00
O1495  O     0.22774   0.79513   0.75000   0.00000  Uiso   1.00
O1496  O     0.22774   0.87154   0.75000   0.00000  Uiso   1.00
O1497  O     0.10559   0.79513   0.74999   0.00000  Uiso   1.00
O1498  O     0.16666   0.87155   0.68453   0.00000  Uiso   1.00
O1499  O     0.16667   0.79511   0.81547   0.00000  Uiso   1.00
O1500  O     0.16667   0.87155   0.81547   0.00000  Uiso   1.00
O1501  O     0.16666   0.79511   0.68453   0.00000  Uiso   1.00
O1502  O     0.17670   0.91468   0.61045   0.00000  Uiso   1.00
Zn1503 Zn    0.16667   0.88437   0.75000   0.00000  Uiso   1.00
Zn1504 Zn    0.16667   0.78229   0.75000   0.00000  Uiso   1.00
C1505  C     0.41994   0.83333   0.75002   0.00000  Uiso   1.00
C1506  C     0.64539   0.87469   0.75034   0.00000  Uiso   1.00
C1507  C     0.64539   0.79195   0.74979   0.00000  Uiso   1.00
C1508  C     0.35461   0.87469   0.75039   0.00000  Uiso   1.00
C1509  C     0.50653   0.86997   0.54566   0.00000  Uiso   1.00
C1510  C     0.50221   0.79045   0.95260   0.00000  Uiso   1.00
C1511  C     0.48260   0.86953   0.95308   0.00000  Uiso   1.00
C1512  C     0.48650   0.79108   0.54799   0.00000  Uiso   1.00
C1513  C     0.50425   0.87268   0.59108   0.00000  Uiso   1.00
C1514  C     0.50029   0.79026   0.90703   0.00000  Uiso   1.00
C1515  C     0.48907   0.87241   0.90814   0.00000  Uiso   1.00
C1516  C     0.58006   0.83333   0.75002   0.00000  Uiso   1.00
C1517  C     0.49273   0.79064   0.59318   0.00000  Uiso   1.00
C1518  C     0.49912   0.83232   0.61569   0.00000  Uiso   1.00
C1519  C     0.49659   0.83215   0.88414   0.00000  Uiso   1.00
C1520  C     0.49484   0.83025   0.52384   0.00000  Uiso   1.00
C1521  C     0.49255   0.82978   0.97587   0.00000  Uiso   1.00
C1522  C     0.62420   0.83332   0.75004   0.00000  Uiso   1.00
C1523  C     0.37580   0.83332   0.75009   0.00000  Uiso   1.00
C1524  C     0.47107   0.93663   0.61545   0.00000  Uiso   1.00
C1525  C     0.45142   0.95214   0.57137   0.00000  Uiso   1.00
C1526  C     0.41759   0.98758   0.57861   0.00000  Uiso   1.00
C1527  C     0.49999   0.83322   0.66378   0.00000  Uiso   1.00
C1528  C     0.46590   0.72996   0.87603   0.00000  Uiso   1.00
C1529  C     0.44670   0.70698   0.91653   0.00000  Uiso   1.00
C1530  C     0.41065   0.67604   0.90343   0.00000  Uiso   1.00
C1531  C     0.52475   0.93595   0.88659   0.00000  Uiso   1.00
C1532  C     0.54136   0.95081   0.93221   0.00000  Uiso   1.00
C1533  C     0.57576   0.98614   0.92803   0.00000  Uiso   1.00
C1534  C     0.52983   0.73030   0.62050   0.00000  Uiso   1.00
C1535  C     0.54613   0.70893   0.57778   0.00000  Uiso   1.00
C1536  C     0.58285   0.67743   0.58692   0.00000  Uiso   1.00
C1537  C     0.49936   0.83317   0.83619   0.00000  Uiso   1.00
C1538  C     0.53083   0.69063   0.77112   0.00000  Uiso   1.00
C1539  C     0.46872   0.97610   0.72968   0.00000  Uiso   1.00
C1540  C     0.46908   0.69069   0.72904   0.00000  Uiso   1.00
C1541  C     0.53112   0.97602   0.77062   0.00000  Uiso   1.00
C1542  C     0.35462   0.79195   0.74984   0.00000  Uiso   1.00
F1543  F     0.56133   0.71321   0.79301   0.00000  Uiso   1.00
F1544  F     0.43691   0.95363   0.70997   0.00000  Uiso   1.00
F1545  F     0.43847   0.71332   0.70732   0.00000  Uiso   1.00
F1546  F     0.56249   0.95344   0.79109   0.00000  Uiso   1.00
H1547  H     0.51570   0.90000   0.52763   0.00000  Uiso   1.00
H1548  H     0.44858   0.91489   0.63355   0.00000  Uiso   1.00
H1549  H     0.47546   0.96652   0.54946   0.00000  Uiso   1.00
H1550  H     0.43711   0.92258   0.55433   0.00000  Uiso   1.00
H1551  H     0.39287   0.97365   0.60011   0.00000  Uiso   1.00
H1552  H     0.40352   0.99728   0.54635   0.00000  Uiso   1.00
H1553  H     0.43097   0.68508   0.59421   0.00000  Uiso   1.00
H1554  H     0.47065   0.70400   0.85000   0.00000  Uiso   1.00
H1555  H     0.44363   0.75526   0.86196   0.00000  Uiso   1.00
H1556  H     0.47067   0.68675   0.93405   0.00000  Uiso   1.00
H1557  H     0.43495   0.73317   0.93961   0.00000  Uiso   1.00
H1558  H     0.51066   0.75930   0.96932   0.00000  Uiso   1.00
H1559  H     0.38597   0.69583   0.88622   0.00000  Uiso   1.00
H1560  H     0.39726   0.99371   0.93348   0.00000  Uiso   1.00
H1561  H     0.42163   0.98189   0.88135   0.00000  Uiso   1.00
H1562  H     0.52088   0.96661   0.86567   0.00000  Uiso   1.00
H1563  H     0.54822   0.91405   0.87018   0.00000  Uiso   1.00
H1564  H     0.51592   0.96510   0.95233   0.00000  Uiso   1.00
H1565  H     0.55427   0.92092   0.95002   0.00000  Uiso   1.00
H1566  H     0.60185   0.97238   0.90834   0.00000  Uiso   1.00
H1567  H     0.58763   0.99528   0.96138   0.00000  Uiso   1.00
H1568  H     0.56358   0.68395   0.91183   0.00000  Uiso   1.00
H1569  H     0.47245   0.89964   0.97034   0.00000  Uiso   1.00
H1570  H     0.52723   0.70345   0.64609   0.00000  Uiso   1.00
H1571  H     0.55285   0.75539   0.63342   0.00000  Uiso   1.00
H1572  H     0.52098   0.68950   0.56136   0.00000  Uiso   1.00
H1573  H     0.55637   0.73604   0.55482   0.00000  Uiso   1.00
H1574  H     0.60868   0.69646   0.60291   0.00000  Uiso   1.00
H1575  H     0.59408   0.99635   0.55534   0.00000  Uiso   1.00
H1576  H     0.57330   0.98240   0.60875   0.00000  Uiso   1.00
H1577  H     0.47673   0.76000   0.53202   0.00000  Uiso   1.00
H1578  H     0.37075   0.75970   0.74967   0.00000  Uiso   1.00
H1579  H     0.62926   0.90694   0.75052   0.00000  Uiso   1.00
H1580  H     0.62926   0.75970   0.74952   0.00000  Uiso   1.00
H1581  H     0.37073   0.90694   0.75067   0.00000  Uiso   1.00
H1582  H     0.47681   0.96708   0.63610   0.00000  Uiso   1.00
N1583  N     0.50000   0.95240   0.75000   0.00000  Uiso   1.00
N1584  N     0.50000   0.71427   0.75000   0.00000  Uiso   1.00
O1585  O     0.43892   0.87154   0.74999   0.00000  Uiso   1.00
O1586  O     0.50541   0.74912   0.88577   0.00000  Uiso   1.00
O1587  O     0.48525   0.91454   0.88837   0.00000  Uiso   1.00
O1588  O     0.48961   0.74937   0.61474   0.00000  Uiso   1.00
O1589  O     0.56108   0.79513   0.75000   0.00000  Uiso   1.00
O1590  O     0.56108   0.87154   0.75000   0.00000  Uiso   1.00
O1591  O     0.43892   0.79513   0.74999   0.00000  Uiso   1.00
O1592  O     0.50000   0.87155   0.68453   0.00000  Uiso   1.00
O1593  O     0.50000   0.79511   0.81547   0.00000  Uiso   1.00
O1594  O     0.50000   0.87155   0.81547   0.00000  Uiso   1.00
O1595  O     0.50000   0.79511   0.68453   0.00000  Uiso   1.00
O1596  O     0.51004   0.91468   0.61045   0.00000  Uiso   1.00
Zn1597 Zn    0.50000   0.88437   0.75000   0.00000  Uiso   1.00
Zn1598 Zn    0.50000   0.78229   0.75000   0.00000  Uiso   1.00
C1599  C     0.75328   0.83333   0.75002   0.00000  Uiso   1.00
C1600  C     0.97872   0.87469   0.75034   0.00000  Uiso   1.00
C1601  C     0.97872   0.79195   0.74979   0.00000  Uiso   1.00
C1602  C     0.68794   0.87469   0.75039   0.00000  Uiso   1.00
C1603  C     0.83986   0.86997   0.54566   0.00000  Uiso   1.00
C1604  C     0.83554   0.79045   0.95260   0.00000  Uiso   1.00
C1605  C     0.81594   0.86953   0.95308   0.00000  Uiso   1.00
C1606  C     0.81983   0.79108   0.54799   0.00000  Uiso   1.00
C1607  C     0.83758   0.87268   0.59108   0.00000  Uiso   1.00
C1608  C     0.83362   0.79026   0.90703   0.00000  Uiso   1.00
C1609  C     0.82240   0.87241   0.90814   0.00000  Uiso   1.00
C1610  C     0.91339   0.83333   0.75002   0.00000  Uiso   1.00
C1611  C     0.82606   0.79064   0.59318   0.00000  Uiso   1.00
C1612  C     0.83245   0.83232   0.61569   0.00000  Uiso   1.00
C1613  C     0.82993   0.83215   0.88414   0.00000  Uiso   1.00
C1614  C     0.82817   0.83025   0.52384   0.00000  Uiso   1.00
C1615  C     0.82588   0.82978   0.97587   0.00000  Uiso   1.00
C1616  C     0.95754   0.83332   0.75004   0.00000  Uiso   1.00
C1617  C     0.70913   0.83332   0.75009   0.00000  Uiso   1.00
C1618  C     0.80440   0.93663   0.61545   0.00000  Uiso   1.00
C1619  C     0.78475   0.95214   0.57137   0.00000  Uiso   1.00
C1620  C     0.75093   0.98758   0.57861   0.00000  Uiso   1.00
C1621  C     0.83332   0.83322   0.66378   0.00000  Uiso   1.00
C1622  C     0.79923   0.72996   0.87603   0.00000  Uiso   1.00
C1623  C     0.78004   0.70698   0.91653   0.00000  Uiso   1.00
C1624  C     0.74398   0.67604   0.90343   0.00000  Uiso   1.00
C1625  C     0.85808   0.93595   0.88659   0.00000  Uiso   1.00
C1626  C     0.87469   0.95081   0.93221   0.00000  Uiso   1.00
C1627  C     0.90909   0.98614   0.92803   0.00000  Uiso   1.00
C1628  C     0.86316   0.73030   0.62050   0.00000  Uiso   1.00
C1629  C     0.87946   0.70893   0.57778   0.00000  Uiso   1.00
C1630  C     0.91618   0.67743   0.58692   0.00000  Uiso   1.00
C1631  C     0.83269   0.83317   0.83619   0.00000  Uiso   1.00
C1632  C     0.86416   0.69063   0.77112   0.00000  Uiso   1.00
C1633  C     0.80205   0.97610   0.72968   0.00000  Uiso   1.00
C1634  C     0.80242   0.69069   0.72904   0.00000  Uiso   1.00
C1635  C     0.86445   0.97602   0.77062   0.00000  Uiso   1.00
C1636  C     0.68795   0.79195   0.74984   0.00000  Uiso   1.00
F1637  F     0.89466   0.71321   0.79301   0.00000  Uiso   1.00
F1638  F     0.77024   0.95363   0.70997   0.00000  Uiso   1.00
F1639  F     0.77180   0.71332   0.70732   0.00000  Uiso   1.00
F1640  F     0.89583   0.95344   0.79109   0.00000  Uiso   1.00
H1641  H     0.84903   0.90000   0.52763   0.00000  Uiso   1.00
H1642  H     0.78192   0.91489   0.63355   0.00000  Uiso   1.00
H1643  H     0.80879   0.96652   0.54946   0.00000  Uiso   1.00
H1644  H     0.77045   0.92258   0.55433   0.00000  Uiso   1.00
H1645  H     0.72620   0.97365   0.60011   0.00000  Uiso   1.00
H1646  H     0.73686   0.99728   0.54635   0.00000  Uiso   1.00
H1647  H     0.76431   0.68508   0.59421   0.00000  Uiso   1.00
H1648  H     0.80399   0.70400   0.85000   0.00000  Uiso   1.00
H1649  H     0.77696   0.75526   0.86196   0.00000  Uiso   1.00
H1650  H     0.80401   0.68675   0.93405   0.00000  Uiso   1.00
H1651  H     0.76828   0.73317   0.93961   0.00000  Uiso   1.00
H1652  H     0.84400   0.75930   0.96932   0.00000  Uiso   1.00
H1653  H     0.71931   0.69583   0.88622   0.00000  Uiso   1.00
H1654  H     0.73059   0.99371   0.93348   0.00000  Uiso   1.00
H1655  H     0.75497   0.98189   0.88135   0.00000  Uiso   1.00
H1656  H     0.85421   0.96661   0.86567   0.00000  Uiso   1.00
H1657  H     0.88155   0.91405   0.87018   0.00000  Uiso   1.00
H1658  H     0.84926   0.96510   0.95233   0.00000  Uiso   1.00
H1659  H     0.88760   0.92092   0.95002   0.00000  Uiso   1.00
H1660  H     0.93518   0.97238   0.90834   0.00000  Uiso   1.00
H1661  H     0.92097   0.99528   0.96138   0.00000  Uiso   1.00
H1662  H     0.89691   0.68395   0.91183   0.00000  Uiso   1.00
H1663  H     0.80578   0.89964   0.97034   0.00000  Uiso   1.00
H1664  H     0.86056   0.70345   0.64609   0.00000  Uiso   1.00
H1665  H     0.88618   0.75539   0.63342   0.00000  Uiso   1.00
H1666  H     0.85432   0.68950   0.56136   0.00000  Uiso   1.00
H1667  H     0.88970   0.73604   0.55482   0.00000  Uiso   1.00
H1668  H     0.94202   0.69646   0.60291   0.00000  Uiso   1.00
H1669  H     0.92741   0.99635   0.55534   0.00000  Uiso   1.00
H1670  H     0.90663   0.98240   0.60875   0.00000  Uiso   1.00
H1671  H     0.81006   0.76000   0.53202   0.00000  Uiso   1.00
H1672  H     0.70409   0.75970   0.74967   0.00000  Uiso   1.00
H1673  H     0.96259   0.90694   0.75052   0.00000  Uiso   1.00
H1674  H     0.96259   0.75970   0.74952   0.00000  Uiso   1.00
H1675  H     0.70407   0.90694   0.75067   0.00000  Uiso   1.00
H1676  H     0.81014   0.96708   0.63610   0.00000  Uiso   1.00
N1677  N     0.83333   0.95240   0.75000   0.00000  Uiso   1.00
N1678  N     0.83333   0.71427   0.75000   0.00000  Uiso   1.00
O1679  O     0.77226   0.87154   0.74999   0.00000  Uiso   1.00
O1680  O     0.83874   0.74912   0.88577   0.00000  Uiso   1.00
O1681  O     0.81859   0.91454   0.88837   0.00000  Uiso   1.00
O1682  O     0.82295   0.74937   0.61474   0.00000  Uiso   1.00
O1683  O     0.89441   0.79513   0.75000   0.00000  Uiso   1.00
O1684  O     0.89441   0.87154   0.75000   0.00000  Uiso   1.00
O1685  O     0.77226   0.79513   0.74999   0.00000  Uiso   1.00
O1686  O     0.83333   0.87155   0.68453   0.00000  Uiso   1.00
O1687  O     0.83334   0.79511   0.81547   0.00000  Uiso   1.00
O1688  O     0.83334   0.87155   0.81547   0.00000  Uiso   1.00
O1689  O     0.83333   0.79511   0.68453   0.00000  Uiso   1.00
O1690  O     0.84337   0.91468   0.61045   0.00000  Uiso   1.00
Zn1691 Zn    0.83333   0.88437   0.75000   0.00000  Uiso   1.00
Zn1692 Zn    0.83333   0.78229   0.75000   0.00000  Uiso   1.00
loop_
_geom_bond_atom_site_label_1
_geom_bond_atom_site_label_2
_geom_bond_distance
_geom_bond_site_symmetry_2
_ccdc_geom_bond_type
C1     O87     1.281   .     A
C1     O81     1.281   .     A
C1     C19     1.420   .     S
C2     C18     1.397   .     A
C2     H75     1.083   .     S
C2     C98     1.369   .     S
C3     C18     1.397   .     A
C3     H76     1.083   .     S
C3     C132    1.369   .     S
C4     C19     1.397   .     A
C4     H77     1.083   .     S
C4     C190    1.369   1_455 S
C5     C16     1.396   .     A
C5     H43     1.082   .     S
C5     C9      1.381   .     A
C6     H54     1.082   .     S
C6     C17     1.394   .     A
C6     C10     1.381   .     A
C7     C11     1.382   .     A
C7     H65     1.083   .     S
C7     C17     1.395   .     A
C8     C13     1.382   .     A
C8     C16     1.394   .     A
C8     H73     1.082   .     S
C9     O92     1.383   .     S
C9     C14     1.414   .     A
C10    C15     1.420   .     A
C10    O82     1.385   .     S
C11    C15     1.415   .     A
C11    O83     1.384   .     S
C12    O85     1.281   .     A
C12    O86     1.281   .     A
C12    C18     1.420   .     S
C13    O84     1.384   .     S
C13    C14     1.420   .     A
C14    C23     1.457   .     S
C15    C33     1.457   .     S
C16    C863    1.454   1_554 S
C17    C862    1.454   .     S
C19    C38     1.397   .     A
C20    O92     1.420   .     S
C20    H44     1.114   .     S
C20    H78     1.110   .     S
C20    C21     1.541   .     S
C21    C22     1.526   .     S
C21    H45     1.108   .     S
C21    H46     1.111   .     S
C22    H48     1.111   .     S
C22    H47     1.111   .     S
C22    H331    1.110   .     S
C23    O88     1.294   .     A
C23    O91     1.287   .     A
C24    O82     1.420   .     S
C24    H51     1.116   .     S
C24    H50     1.111   .     S
C24    C25     1.536   .     S
C25    H53     1.111   .     S
C25    C26     1.526   .     S
C25    H52     1.106   .     S
C26    H55     1.111   .     S
C26    H620    1.111   1_545 S
C26    H621    1.111   1_545 S
C27    H58     1.110   .     S
C27    O83     1.420   .     S
C27    H59     1.114   .     S
C27    C28     1.541   .     S
C28    C29     1.526   .     S
C28    H61     1.111   .     S
C28    H60     1.108   .     S
C29    H63     1.111   .     S
C29    H62     1.111   .     S
C29    H346    1.110   .     S
C30    C31     1.537   .     S
C30    H67     1.115   .     S
C30    H66     1.111   .     S
C30    O84     1.420   .     S
C31    H68     1.106   .     S
C31    C32     1.526   .     S
C31    H69     1.111   .     S
C32    H70     1.111   .     S
C32    H635    1.111   1_545 S
C32    H636    1.111   1_545 S
C33    O89     1.287   .     A
C33    O90     1.294   .     A
C34    N80     1.366   .     A
C34    F39     1.355   .     S
C34    C601    1.414   1_545 S
C35    F40     1.354   .     S
C35    N79     1.367   .     A
C35    C318    1.413   .     S
C36    F41     1.355   .     S
C36    N80     1.366   .     A
C36    C599    1.413   1_545 S
C37    F42     1.354   .     S
C37    N79     1.367   .     A
C37    C316    1.414   .     S
C38    H74     1.083   .     S
C38    C191    1.369   1_455 S
H49    C586    1.110   1_545 S
H56    C308    1.111   .     S
H57    C308    1.111   .     S
H64    C593    1.110   1_545 S
H71    C314    1.111   .     S
H72    C314    1.111   .     S
N79    Zn93    2.006   .     S
N80    Zn94    2.006   .     S
O81    Zn93    2.001   .     S
O85    Zn94    2.001   .     S
O86    Zn93    2.001   .     S
O87    Zn94    2.001   .     S
O88    Zn93    2.019   .     S
O89    Zn94    2.019   .     S
O90    Zn93    2.019   .     S
O91    Zn94    2.019   .     S
C95    O181    1.281   .     A
C95    O175    1.281   .     A
C95    C113    1.420   .     S
C96    C112    1.397   .     A
C96    H169    1.083   .     S
C96    C192    1.369   .     S
C97    C112    1.397   .     A
C97    H170    1.083   .     S
C97    C226    1.369   .     S
C98    C113    1.397   .     A
C98    H171    1.083   .     S
C99    C110    1.396   .     A
C99    H137    1.082   .     S
C99    C103    1.381   .     A
C100   H148    1.082   .     S
C100   C111    1.394   .     A
C100   C104    1.381   .     A
C101   C105    1.382   .     A
C101   H159    1.083   .     S
C101   C111    1.395   .     A
C102   C107    1.382   .     A
C102   C110    1.394   .     A
C102   H167    1.082   .     S
C103   O186    1.383   .     S
C103   C108    1.414   .     A
C104   C109    1.420   .     A
C104   O176    1.385   .     S
C105   C109    1.415   .     A
C105   O177    1.384   .     S
C106   O179    1.281   .     A
C106   O180    1.281   .     A
C106   C112    1.420   .     S
C107   O178    1.384   .     S
C107   C108    1.420   .     A
C108   C117    1.457   .     S
C109   C127    1.457   .     S
C110   C957    1.454   1_554 S
C111   C956    1.454   .     S
C113   C132    1.397   .     A
C114   O186    1.420   .     S
C114   H138    1.114   .     S
C114   H172    1.110   .     S
C114   C115    1.541   .     S
C115   C116    1.526   .     S
C115   H139    1.108   .     S
C115   H140    1.111   .     S
C116   H142    1.111   .     S
C116   H141    1.111   .     S
C116   H425    1.110   .     S
C117   O182    1.294   .     A
C117   O185    1.287   .     A
C118   O176    1.420   .     S
C118   H145    1.116   .     S
C118   H144    1.111   .     S
C118   C119    1.536   .     S
C119   H147    1.111   .     S
C119   C120    1.526   .     S
C119   H146    1.106   .     S
C120   H149    1.111   .     S
C120   H714    1.111   1_545 S
C120   H715    1.111   1_545 S
C121   H152    1.110   .     S
C121   O177    1.420   .     S
C121   H153    1.114   .     S
C121   C122    1.541   .     S
C122   C123    1.526   .     S
C122   H155    1.111   .     S
C122   H154    1.108   .     S
C123   H157    1.111   .     S
C123   H156    1.111   .     S
C123   H440    1.110   .     S
C124   C125    1.537   .     S
C124   H161    1.115   .     S
C124   H160    1.111   .     S
C124   O178    1.420   .     S
C125   H162    1.106   .     S
C125   C126    1.526   .     S
C125   H163    1.111   .     S
C126   H164    1.111   .     S
C126   H729    1.111   1_545 S
C126   H730    1.111   1_545 S
C127   O183    1.287   .     A
C127   O184    1.294   .     A
C128   N174    1.366   .     A
C128   F133    1.355   .     S
C128   C695    1.414   1_545 S
C129   F134    1.354   .     S
C129   N173    1.367   .     A
C129   C412    1.413   .     S
C130   F135    1.355   .     S
C130   N174    1.366   .     A
C130   C693    1.413   1_545 S
C131   F136    1.354   .     S
C131   N173    1.367   .     A
C131   C410    1.414   .     S
C132   H168    1.083   .     S
H143   C680    1.110   1_545 S
H150   C402    1.111   .     S
H151   C402    1.111   .     S
H158   C687    1.110   1_545 S
H165   C408    1.111   .     S
H166   C408    1.111   .     S
N173   Zn187   2.006   .     S
N174   Zn188   2.006   .     S
O175   Zn187   2.001   .     S
O179   Zn188   2.001   .     S
O180   Zn187   2.001   .     S
O181   Zn188   2.001   .     S
O182   Zn187   2.019   .     S
O183   Zn188   2.019   .     S
O184   Zn187   2.019   .     S
O185   Zn188   2.019   .     S
C189   O275    1.281   .     A
C189   O269    1.281   .     A
C189   C207    1.420   .     S
C190   C206    1.397   .     A
C190   H263    1.083   .     S
C190   C4      1.369   1_655 S
C191   C206    1.397   .     A
C191   H264    1.083   .     S
C191   C38     1.369   1_655 S
C192   C207    1.397   .     A
C192   H265    1.083   .     S
C193   C204    1.396   .     A
C193   H231    1.082   .     S
C193   C197    1.381   .     A
C194   H242    1.082   .     S
C194   C205    1.394   .     A
C194   C198    1.381   .     A
C195   C199    1.382   .     A
C195   H253    1.083   .     S
C195   C205    1.395   .     A
C196   C201    1.382   .     A
C196   C204    1.394   .     A
C196   H261    1.082   .     S
C197   O280    1.383   .     S
C197   C202    1.414   .     A
C198   C203    1.420   .     A
C198   O270    1.385   .     S
C199   C203    1.415   .     A
C199   O271    1.384   .     S
C200   O273    1.281   .     A
C200   O274    1.281   .     A
C200   C206    1.420   .     S
C201   O272    1.384   .     S
C201   C202    1.420   .     A
C202   C211    1.457   .     S
C203   C221    1.457   .     S
C204   C1051   1.454   1_554 S
C205   C1050   1.454   .     S
C207   C226    1.397   .     A
C208   O280    1.420   .     S
C208   H232    1.114   .     S
C208   H266    1.110   .     S
C208   C209    1.541   .     S
C209   C210    1.526   .     S
C209   H233    1.108   .     S
C209   H234    1.111   .     S
C210   H236    1.111   .     S
C210   H235    1.111   .     S
C210   H519    1.110   .     S
C211   O276    1.294   .     A
C211   O279    1.287   .     A
C212   O270    1.420   .     S
C212   H239    1.116   .     S
C212   H238    1.111   .     S
C212   C213    1.536   .     S
C213   H241    1.111   .     S
C213   C214    1.526   .     S
C213   H240    1.106   .     S
C214   H243    1.111   .     S
C214   H808    1.111   1_545 S
C214   H809    1.111   1_545 S
C215   H246    1.110   .     S
C215   O271    1.420   .     S
C215   H247    1.114   .     S
C215   C216    1.541   .     S
C216   C217    1.526   .     S
C216   H249    1.111   .     S
C216   H248    1.108   .     S
C217   H251    1.111   .     S
C217   H250    1.111   .     S
C217   H534    1.110   .     S
C218   C219    1.537   .     S
C218   H255    1.115   .     S
C218   H254    1.111   .     S
C218   O272    1.420   .     S
C219   H256    1.106   .     S
C219   C220    1.526   .     S
C219   H257    1.111   .     S
C220   H258    1.111   .     S
C220   H823    1.111   1_545 S
C220   H824    1.111   1_545 S
C221   O277    1.287   .     A
C221   O278    1.294   .     A
C222   N268    1.366   .     A
C222   F227    1.355   .     S
C222   C789    1.414   1_545 S
C223   F228    1.354   .     S
C223   N267    1.367   .     A
C223   C506    1.413   .     S
C224   F229    1.355   .     S
C224   N268    1.366   .     A
C224   C787    1.413   1_545 S
C225   F230    1.354   .     S
C225   N267    1.367   .     A
C225   C504    1.414   .     S
C226   H262    1.083   .     S
H237   C774    1.110   1_545 S
H244   C496    1.111   .     S
H245   C496    1.111   .     S
H252   C781    1.110   1_545 S
H259   C502    1.111   .     S
H260   C502    1.111   .     S
N267   Zn281   2.006   .     S
N268   Zn282   2.006   .     S
O269   Zn281   2.001   .     S
O273   Zn282   2.001   .     S
O274   Zn281   2.001   .     S
O275   Zn282   2.001   .     S
O276   Zn281   2.019   .     S
O277   Zn282   2.019   .     S
O278   Zn281   2.019   .     S
O279   Zn282   2.019   .     S
C283   O369    1.281   .     A
C283   O363    1.281   .     A
C283   C301    1.420   .     S
C284   C300    1.397   .     A
C284   H357    1.083   .     S
C284   C380    1.369   .     S
C285   C300    1.397   .     A
C285   H358    1.083   .     S
C285   C414    1.369   .     S
C286   C301    1.397   .     A
C286   H359    1.083   .     S
C286   C472    1.369   1_455 S
C287   C298    1.396   .     A
C287   H325    1.082   .     S
C287   C291    1.381   .     A
C288   H336    1.082   .     S
C288   C299    1.394   .     A
C288   C292    1.381   .     A
C289   C293    1.382   .     A
C289   H347    1.083   .     S
C289   C299    1.395   .     A
C290   C295    1.382   .     A
C290   C298    1.394   .     A
C290   H355    1.082   .     S
C291   O374    1.383   .     S
C291   C296    1.414   .     A
C292   C297    1.420   .     A
C292   O364    1.385   .     S
C293   C297    1.415   .     A
C293   O365    1.384   .     S
C294   O367    1.281   .     A
C294   O368    1.281   .     A
C294   C300    1.420   .     S
C295   O366    1.384   .     S
C295   C296    1.420   .     A
C296   C305    1.457   .     S
C297   C315    1.457   .     S
C298   C1145   1.454   1_554 S
C299   C1144   1.454   .     S
C301   C320    1.397   .     A
C302   O374    1.420   .     S
C302   H326    1.114   .     S
C302   H360    1.110   .     S
C302   C303    1.541   .     S
C303   C304    1.526   .     S
C303   H327    1.108   .     S
C303   H328    1.111   .     S
C304   H330    1.111   .     S
C304   H329    1.111   .     S
C304   H613    1.110   .     S
C305   O370    1.294   .     A
C305   O373    1.287   .     A
C306   O364    1.420   .     S
C306   H333    1.116   .     S
C306   H332    1.111   .     S
C306   C307    1.536   .     S
C307   H335    1.111   .     S
C307   C308    1.526   .     S
C307   H334    1.106   .     S
C308   H337    1.111   .     S
C309   H340    1.110   .     S
C309   O365    1.420   .     S
C309   H341    1.114   .     S
C309   C310    1.541   .     S
C310   C311    1.526   .     S
C310   H343    1.111   .     S
C310   H342    1.108   .     S
C311   H345    1.111   .     S
C311   H344    1.111   .     S
C311   H628    1.110   .     S
C312   C313    1.537   .     S
C312   H349    1.115   .     S
C312   H348    1.111   .     S
C312   O366    1.420   .     S
C313   H350    1.106   .     S
C313   C314    1.526   .     S
C313   H351    1.111   .     S
C314   H352    1.111   .     S
C315   O371    1.287   .     A
C315   O372    1.294   .     A
C316   N362    1.366   .     A
C316   F321    1.355   .     S
C317   F322    1.354   .     S
C317   N361    1.367   .     A
C317   C600    1.413   .     S
C318   F323    1.355   .     S
C318   N362    1.366   .     A
C319   F324    1.354   .     S
C319   N361    1.367   .     A
C319   C598    1.414   .     S
C320   H356    1.083   .     S
C320   C473    1.369   1_455 S
H338   C590    1.111   .     S
H339   C590    1.111   .     S
H353   C596    1.111   .     S
H354   C596    1.111   .     S
N361   Zn375   2.006   .     S
N362   Zn376   2.006   .     S
O363   Zn375   2.001   .     S
O367   Zn376   2.001   .     S
O368   Zn375   2.001   .     S
O369   Zn376   2.001   .     S
O370   Zn375   2.019   .     S
O371   Zn376   2.019   .     S
O372   Zn375   2.019   .     S
O373   Zn376   2.019   .     S
C377   O463    1.281   .     A
C377   O457    1.281   .     A
C377   C395    1.420   .     S
C378   C394    1.397   .     A
C378   H451    1.083   .     S
C378   C474    1.369   .     S
C379   C394    1.397   .     A
C379   H452    1.083   .     S
C379   C508    1.369   .     S
C380   C395    1.397   .     A
C380   H453    1.083   .     S
C381   C392    1.396   .     A
C381   H419    1.082   .     S
C381   C385    1.381   .     A
C382   H430    1.082   .     S
C382   C393    1.394   .     A
C382   C386    1.381   .     A
C383   C387    1.382   .     A
C383   H441    1.083   .     S
C383   C393    1.395   .     A
C384   C389    1.382   .     A
C384   C392    1.394   .     A
C384   H449    1.082   .     S
C385   O468    1.383   .     S
C385   C390    1.414   .     A
C386   C391    1.420   .     A
C386   O458    1.385   .     S
C387   C391    1.415   .     A
C387   O459    1.384   .     S
C388   O461    1.281   .     A
C388   O462    1.281   .     A
C388   C394    1.420   .     S
C389   O460    1.384   .     S
C389   C390    1.420   .     A
C390   C399    1.457   .     S
C391   C409    1.457   .     S
C392   C1239   1.454   1_554 S
C393   C1238   1.454   .     S
C395   C414    1.397   .     A
C396   O468    1.420   .     S
C396   H420    1.114   .     S
C396   H454    1.110   .     S
C396   C397    1.541   .     S
C397   C398    1.526   .     S
C397   H421    1.108   .     S
C397   H422    1.111   .     S
C398   H424    1.111   .     S
C398   H423    1.111   .     S
C398   H707    1.110   .     S
C399   O464    1.294   .     A
C399   O467    1.287   .     A
C400   O458    1.420   .     S
C400   H427    1.116   .     S
C400   H426    1.111   .     S
C400   C401    1.536   .     S
C401   H429    1.111   .     S
C401   C402    1.526   .     S
C401   H428    1.106   .     S
C402   H431    1.111   .     S
C403   H434    1.110   .     S
C403   O459    1.420   .     S
C403   H435    1.114   .     S
C403   C404    1.541   .     S
C404   C405    1.526   .     S
C404   H437    1.111   .     S
C404   H436    1.108   .     S
C405   H439    1.111   .     S
C405   H438    1.111   .     S
C405   H722    1.110   .     S
C406   C407    1.537   .     S
C406   H443    1.115   .     S
C406   H442    1.111   .     S
C406   O460    1.420   .     S
C407   H444    1.106   .     S
C407   C408    1.526   .     S
C407   H445    1.111   .     S
C408   H446    1.111   .     S
C409   O465    1.287   .     A
C409   O466    1.294   .     A
C410   N456    1.366   .     A
C410   F415    1.355   .     S
C411   F416    1.354   .     S
C411   N455    1.367   .     A
C411   C694    1.413   .     S
C412   F417    1.355   .     S
C412   N456    1.366   .     A
C413   F418    1.354   .     S
C413   N455    1.367   .     A
C413   C692    1.414   .     S
C414   H450    1.083   .     S
H432   C684    1.111   .     S
H433   C684    1.111   .     S
H447   C690    1.111   .     S
H448   C690    1.111   .     S
N455   Zn469   2.006   .     S
N456   Zn470   2.006   .     S
O457   Zn469   2.001   .     S
O461   Zn470   2.001   .     S
O462   Zn469   2.001   .     S
O463   Zn470   2.001   .     S
O464   Zn469   2.019   .     S
O465   Zn470   2.019   .     S
O466   Zn469   2.019   .     S
O467   Zn470   2.019   .     S
C471   O557    1.281   .     A
C471   O551    1.281   .     A
C471   C489    1.420   .     S
C472   C488    1.397   .     A
C472   H545    1.083   .     S
C472   C286    1.369   1_655 S
C473   C488    1.397   .     A
C473   H546    1.083   .     S
C473   C320    1.369   1_655 S
C474   C489    1.397   .     A
C474   H547    1.083   .     S
C475   C486    1.396   .     A
C475   H513    1.082   .     S
C475   C479    1.381   .     A
C476   H524    1.082   .     S
C476   C487    1.394   .     A
C476   C480    1.381   .     A
C477   C481    1.382   .     A
C477   H535    1.083   .     S
C477   C487    1.395   .     A
C478   C483    1.382   .     A
C478   C486    1.394   .     A
C478   H543    1.082   .     S
C479   O562    1.383   .     S
C479   C484    1.414   .     A
C480   C485    1.420   .     A
C480   O552    1.385   .     S
C481   C485    1.415   .     A
C481   O553    1.384   .     S
C482   O555    1.281   .     A
C482   O556    1.281   .     A
C482   C488    1.420   .     S
C483   O554    1.384   .     S
C483   C484    1.420   .     A
C484   C493    1.457   .     S
C485   C503    1.457   .     S
C486   C1333   1.454   1_554 S
C487   C1332   1.454   .     S
C489   C508    1.397   .     A
C490   O562    1.420   .     S
C490   H514    1.114   .     S
C490   H548    1.110   .     S
C490   C491    1.541   .     S
C491   C492    1.526   .     S
C491   H515    1.108   .     S
C491   H516    1.111   .     S
C492   H518    1.111   .     S
C492   H517    1.111   .     S
C492   H801    1.110   .     S
C493   O558    1.294   .     A
C493   O561    1.287   .     A
C494   O552    1.420   .     S
C494   H521    1.116   .     S
C494   H520    1.111   .     S
C494   C495    1.536   .     S
C495   H523    1.111   .     S
C495   C496    1.526   .     S
C495   H522    1.106   .     S
C496   H525    1.111   .     S
C497   H528    1.110   .     S
C497   O553    1.420   .     S
C497   H529    1.114   .     S
C497   C498    1.541   .     S
C498   C499    1.526   .     S
C498   H531    1.111   .     S
C498   H530    1.108   .     S
C499   H533    1.111   .     S
C499   H532    1.111   .     S
C499   H816    1.110   .     S
C500   C501    1.537   .     S
C500   H537    1.115   .     S
C500   H536    1.111   .     S
C500   O554    1.420   .     S
C501   H538    1.106   .     S
C501   C502    1.526   .     S
C501   H539    1.111   .     S
C502   H540    1.111   .     S
C503   O559    1.287   .     A
C503   O560    1.294   .     A
C504   N550    1.366   .     A
C504   F509    1.355   .     S
C505   F510    1.354   .     S
C505   N549    1.367   .     A
C505   C788    1.413   .     S
C506   F511    1.355   .     S
C506   N550    1.366   .     A
C507   F512    1.354   .     S
C507   N549    1.367   .     A
C507   C786    1.414   .     S
C508   H544    1.083   .     S
H526   C778    1.111   .     S
H527   C778    1.111   .     S
H541   C784    1.111   .     S
H542   C784    1.111   .     S
N549   Zn563   2.006   .     S
N550   Zn564   2.006   .     S
O551   Zn563   2.001   .     S
O555   Zn564   2.001   .     S
O556   Zn563   2.001   .     S
O557   Zn564   2.001   .     S
O558   Zn563   2.019   .     S
O559   Zn564   2.019   .     S
O560   Zn563   2.019   .     S
O561   Zn564   2.019   .     S
C565   O651    1.281   .     A
C565   O645    1.281   .     A
C565   C583    1.420   .     S
C566   C582    1.397   .     A
C566   H639    1.083   .     S
C566   C662    1.369   .     S
C567   C582    1.397   .     A
C567   H640    1.083   .     S
C567   C696    1.369   .     S
C568   C583    1.397   .     A
C568   H641    1.083   .     S
C568   C754    1.369   1_455 S
C569   C580    1.396   .     A
C569   H607    1.082   .     S
C569   C573    1.381   .     A
C570   H618    1.082   .     S
C570   C581    1.394   .     A
C570   C574    1.381   .     A
C571   C575    1.382   .     A
C571   H629    1.083   .     S
C571   C581    1.395   .     A
C572   C577    1.382   .     A
C572   C580    1.394   .     A
C572   H637    1.082   .     S
C573   O656    1.383   .     S
C573   C578    1.414   .     A
C574   C579    1.420   .     A
C574   O646    1.385   .     S
C575   C579    1.415   .     A
C575   O647    1.384   .     S
C576   O649    1.281   .     A
C576   O650    1.281   .     A
C576   C582    1.420   .     S
C577   O648    1.384   .     S
C577   C578    1.420   .     A
C578   C587    1.457   .     S
C579   C597    1.457   .     S
C580   C1427   1.454   1_554 S
C581   C1426   1.454   .     S
C583   C602    1.397   .     A
C584   O656    1.420   .     S
C584   H608    1.114   .     S
C584   H642    1.110   .     S
C584   C585    1.541   .     S
C585   C586    1.526   .     S
C585   H609    1.108   .     S
C585   H610    1.111   .     S
C586   H612    1.111   .     S
C586   H611    1.111   .     S
C586   H49     1.110   1_565 S
C587   O652    1.294   .     A
C587   O655    1.287   .     A
C588   O646    1.420   .     S
C588   H615    1.116   .     S
C588   H614    1.111   .     S
C588   C589    1.536   .     S
C589   H617    1.111   .     S
C589   C590    1.526   .     S
C589   H616    1.106   .     S
C590   H619    1.111   .     S
C591   H622    1.110   .     S
C591   O647    1.420   .     S
C591   H623    1.114   .     S
C591   C592    1.541   .     S
C592   C593    1.526   .     S
C592   H625    1.111   .     S
C592   H624    1.108   .     S
C593   H627    1.111   .     S
C593   H626    1.111   .     S
C593   H64     1.110   1_565 S
C594   C595    1.537   .     S
C594   H631    1.115   .     S
C594   H630    1.111   .     S
C594   O648    1.420   .     S
C595   H632    1.106   .     S
C595   C596    1.526   .     S
C595   H633    1.111   .     S
C596   H634    1.111   .     S
C597   O653    1.287   .     A
C597   O654    1.294   .     A
C598   N644    1.366   .     A
C598   F603    1.355   .     S
C599   F604    1.354   .     S
C599   N643    1.367   .     A
C599   C36     1.413   1_565 S
C600   F605    1.355   .     S
C600   N644    1.366   .     A
C601   F606    1.354   .     S
C601   N643    1.367   .     A
C601   C34     1.414   1_565 S
C602   H638    1.083   .     S
C602   C755    1.369   1_455 S
H620   C26     1.111   1_565 S
H621   C26     1.111   1_565 S
H635   C32     1.111   1_565 S
H636   C32     1.111   1_565 S
N643   Zn657   2.006   .     S
N644   Zn658   2.006   .     S
O645   Zn657   2.001   .     S
O649   Zn658   2.001   .     S
O650   Zn657   2.001   .     S
O651   Zn658   2.001   .     S
O652   Zn657   2.019   .     S
O653   Zn658   2.019   .     S
O654   Zn657   2.019   .     S
O655   Zn658   2.019   .     S
C659   O745    1.281   .     A
C659   O739    1.281   .     A
C659   C677    1.420   .     S
C660   C676    1.397   .     A
C660   H733    1.083   .     S
C660   C756    1.369   .     S
C661   C676    1.397   .     A
C661   H734    1.083   .     S
C661   C790    1.369   .     S
C662   C677    1.397   .     A
C662   H735    1.083   .     S
C663   C674    1.396   .     A
C663   H701    1.082   .     S
C663   C667    1.381   .     A
C664   H712    1.082   .     S
C664   C675    1.394   .     A
C664   C668    1.381   .     A
C665   C669    1.382   .     A
C665   H723    1.083   .     S
C665   C675    1.395   .     A
C666   C671    1.382   .     A
C666   C674    1.394   .     A
C666   H731    1.082   .     S
C667   O750    1.383   .     S
C667   C672    1.414   .     A
C668   C673    1.420   .     A
C668   O740    1.385   .     S
C669   C673    1.415   .     A
C669   O741    1.384   .     S
C670   O743    1.281   .     A
C670   O744    1.281   .     A
C670   C676    1.420   .     S
C671   O742    1.384   .     S
C671   C672    1.420   .     A
C672   C681    1.457   .     S
C673   C691    1.457   .     S
C674   C1521   1.454   1_554 S
C675   C1520   1.454   .     S
C677   C696    1.397   .     A
C678   O750    1.420   .     S
C678   H702    1.114   .     S
C678   H736    1.110   .     S
C678   C679    1.541   .     S
C679   C680    1.526   .     S
C679   H703    1.108   .     S
C679   H704    1.111   .     S
C680   H706    1.111   .     S
C680   H705    1.111   .     S
C680   H143    1.110   1_565 S
C681   O746    1.294   .     A
C681   O749    1.287   .     A
C682   O740    1.420   .     S
C682   H709    1.116   .     S
C682   H708    1.111   .     S
C682   C683    1.536   .     S
C683   H711    1.111   .     S
C683   C684    1.526   .     S
C683   H710    1.106   .     S
C684   H713    1.111   .     S
C685   H716    1.110   .     S
C685   O741    1.420   .     S
C685   H717    1.114   .     S
C685   C686    1.541   .     S
C686   C687    1.526   .     S
C686   H719    1.111   .     S
C686   H718    1.108   .     S
C687   H721    1.111   .     S
C687   H720    1.111   .     S
C687   H158    1.110   1_565 S
C688   C689    1.537   .     S
C688   H725    1.115   .     S
C688   H724    1.111   .     S
C688   O742    1.420   .     S
C689   H726    1.106   .     S
C689   C690    1.526   .     S
C689   H727    1.111   .     S
C690   H728    1.111   .     S
C691   O747    1.287   .     A
C691   O748    1.294   .     A
C692   N738    1.366   .     A
C692   F697    1.355   .     S
C693   F698    1.354   .     S
C693   N737    1.367   .     A
C693   C130    1.413   1_565 S
C694   F699    1.355   .     S
C694   N738    1.366   .     A
C695   F700    1.354   .     S
C695   N737    1.367   .     A
C695   C128    1.414   1_565 S
C696   H732    1.083   .     S
H714   C120    1.111   1_565 S
H715   C120    1.111   1_565 S
H729   C126    1.111   1_565 S
H730   C126    1.111   1_565 S
N737   Zn751   2.006   .     S
N738   Zn752   2.006   .     S
O739   Zn751   2.001   .     S
O743   Zn752   2.001   .     S
O744   Zn751   2.001   .     S
O745   Zn752   2.001   .     S
O746   Zn751   2.019   .     S
O747   Zn752   2.019   .     S
O748   Zn751   2.019   .     S
O749   Zn752   2.019   .     S
C753   O839    1.281   .     A
C753   O833    1.281   .     A
C753   C771    1.420   .     S
C754   C770    1.397   .     A
C754   H827    1.083   .     S
C754   C568    1.369   1_655 S
C755   C770    1.397   .     A
C755   H828    1.083   .     S
C755   C602    1.369   1_655 S
C756   C771    1.397   .     A
C756   H829    1.083   .     S
C757   C768    1.396   .     A
C757   H795    1.082   .     S
C757   C761    1.381   .     A
C758   H806    1.082   .     S
C758   C769    1.394   .     A
C758   C762    1.381   .     A
C759   C763    1.382   .     A
C759   H817    1.083   .     S
C759   C769    1.395   .     A
C760   C765    1.382   .     A
C760   C768    1.394   .     A
C760   H825    1.082   .     S
C761   O844    1.383   .     S
C761   C766    1.414   .     A
C762   C767    1.420   .     A
C762   O834    1.385   .     S
C763   C767    1.415   .     A
C763   O835    1.384   .     S
C764   O837    1.281   .     A
C764   O838    1.281   .     A
C764   C770    1.420   .     S
C765   O836    1.384   .     S
C765   C766    1.420   .     A
C766   C775    1.457   .     S
C767   C785    1.457   .     S
C768   C1615   1.454   1_554 S
C769   C1614   1.454   .     S
C771   C790    1.397   .     A
C772   O844    1.420   .     S
C772   H796    1.114   .     S
C772   H830    1.110   .     S
C772   C773    1.541   .     S
C773   C774    1.526   .     S
C773   H797    1.108   .     S
C773   H798    1.111   .     S
C774   H800    1.111   .     S
C774   H799    1.111   .     S
C774   H237    1.110   1_565 S
C775   O840    1.294   .     A
C775   O843    1.287   .     A
C776   O834    1.420   .     S
C776   H803    1.116   .     S
C776   H802    1.111   .     S
C776   C777    1.536   .     S
C777   H805    1.111   .     S
C777   C778    1.526   .     S
C777   H804    1.106   .     S
C778   H807    1.111   .     S
C779   H810    1.110   .     S
C779   O835    1.420   .     S
C779   H811    1.114   .     S
C779   C780    1.541   .     S
C780   C781    1.526   .     S
C780   H813    1.111   .     S
C780   H812    1.108   .     S
C781   H815    1.111   .     S
C781   H814    1.111   .     S
C781   H252    1.110   1_565 S
C782   C783    1.537   .     S
C782   H819    1.115   .     S
C782   H818    1.111   .     S
C782   O836    1.420   .     S
C783   H820    1.106   .     S
C783   C784    1.526   .     S
C783   H821    1.111   .     S
C784   H822    1.111   .     S
C785   O841    1.287   .     A
C785   O842    1.294   .     A
C786   N832    1.366   .     A
C786   F791    1.355   .     S
C787   F792    1.354   .     S
C787   N831    1.367   .     A
C787   C224    1.413   1_565 S
C788   F793    1.355   .     S
C788   N832    1.366   .     A
C789   F794    1.354   .     S
C789   N831    1.367   .     A
C789   C222    1.414   1_565 S
C790   H826    1.083   .     S
H808   C214    1.111   1_565 S
H809   C214    1.111   1_565 S
H823   C220    1.111   1_565 S
H824   C220    1.111   1_565 S
N831   Zn845   2.006   .     S
N832   Zn846   2.006   .     S
O833   Zn845   2.001   .     S
O837   Zn846   2.001   .     S
O838   Zn845   2.001   .     S
O839   Zn846   2.001   .     S
O840   Zn845   2.019   .     S
O841   Zn846   2.019   .     S
O842   Zn845   2.019   .     S
O843   Zn846   2.019   .     S
C847   O933    1.281   .     A
C847   O927    1.281   .     A
C847   C865    1.420   .     S
C848   C864    1.397   .     A
C848   H921    1.083   .     S
C848   C944    1.369   .     S
C849   C864    1.397   .     A
C849   H922    1.083   .     S
C849   C978    1.369   .     S
C850   C865    1.397   .     A
C850   H923    1.083   .     S
C850   C1036   1.369   1_455 S
C851   C862    1.396   .     A
C851   H889    1.082   .     S
C851   C855    1.381   .     A
C852   H900    1.082   .     S
C852   C863    1.394   .     A
C852   C856    1.381   .     A
C853   C857    1.382   .     A
C853   H911    1.083   .     S
C853   C863    1.395   .     A
C854   C859    1.382   .     A
C854   C862    1.394   .     A
C854   H919    1.082   .     S
C855   O938    1.383   .     S
C855   C860    1.414   .     A
C856   C861    1.420   .     A
C856   O928    1.385   .     S
C857   C861    1.415   .     A
C857   O929    1.384   .     S
C858   O931    1.281   .     A
C858   O932    1.281   .     A
C858   C864    1.420   .     S
C859   O930    1.384   .     S
C859   C860    1.420   .     A
C860   C869    1.457   .     S
C861   C879    1.457   .     S
C863   C16     1.454   1_556 S
C865   C884    1.397   .     A
C866   O938    1.420   .     S
C866   H890    1.114   .     S
C866   H924    1.110   .     S
C866   C867    1.541   .     S
C867   C868    1.526   .     S
C867   H891    1.108   .     S
C867   H892    1.111   .     S
C868   H894    1.111   .     S
C868   H893    1.111   .     S
C868   H1177   1.110   .     S
C869   O934    1.294   .     A
C869   O937    1.287   .     A
C870   O928    1.420   .     S
C870   H897    1.116   .     S
C870   H896    1.111   .     S
C870   C871    1.536   .     S
C871   H899    1.111   .     S
C871   C872    1.526   .     S
C871   H898    1.106   .     S
C872   H901    1.111   .     S
C872   H1466   1.111   1_545 S
C872   H1467   1.111   1_545 S
C873   H904    1.110   .     S
C873   O929    1.420   .     S
C873   H905    1.114   .     S
C873   C874    1.541   .     S
C874   C875    1.526   .     S
C874   H907    1.111   .     S
C874   H906    1.108   .     S
C875   H909    1.111   .     S
C875   H908    1.111   .     S
C875   H1192   1.110   .     S
C876   C877    1.537   .     S
C876   H913    1.115   .     S
C876   H912    1.111   .     S
C876   O930    1.420   .     S
C877   H914    1.106   .     S
C877   C878    1.526   .     S
C877   H915    1.111   .     S
C878   H916    1.111   .     S
C878   H1481   1.111   1_545 S
C878   H1482   1.111   1_545 S
C879   O935    1.287   .     A
C879   O936    1.294   .     A
C880   N926    1.366   .     A
C880   F885    1.355   .     S
C880   C1447   1.414   1_545 S
C881   F886    1.354   .     S
C881   N925    1.367   .     A
C881   C1164   1.413   .     S
C882   F887    1.355   .     S
C882   N926    1.366   .     A
C882   C1445   1.413   1_545 S
C883   F888    1.354   .     S
C883   N925    1.367   .     A
C883   C1162   1.414   .     S
C884   H920    1.083   .     S
C884   C1037   1.369   1_455 S
H895   C1432   1.110   1_545 S
H902   C1154   1.111   .     S
H903   C1154   1.111   .     S
H910   C1439   1.110   1_545 S
H917   C1160   1.111   .     S
H918   C1160   1.111   .     S
N925   Zn939   2.006   .     S
N926   Zn940   2.006   .     S
O927   Zn939   2.001   .     S
O931   Zn940   2.001   .     S
O932   Zn939   2.001   .     S
O933   Zn940   2.001   .     S
O934   Zn939   2.019   .     S
O935   Zn940   2.019   .     S
O936   Zn939   2.019   .     S
O937   Zn940   2.019   .     S
C941   O1027   1.281   .     A
C941   O1021   1.281   .     A
C941   C959    1.420   .     S
C942   C958    1.397   .     A
C942   H1015   1.083   .     S
C942   C1038   1.369   .     S
C943   C958    1.397   .     A
C943   H1016   1.083   .     S
C943   C1072   1.369   .     S
C944   C959    1.397   .     A
C944   H1017   1.083   .     S
C945   C956    1.396   .     A
C945   H983    1.082   .     S
C945   C949    1.381   .     A
C946   H994    1.082   .     S
C946   C957    1.394   .     A
C946   C950    1.381   .     A
C947   C951    1.382   .     A
C947   H1005   1.083   .     S
C947   C957    1.395   .     A
C948   C953    1.382   .     A
C948   C956    1.394   .     A
C948   H1013   1.082   .     S
C949   O1032   1.383   .     S
C949   C954    1.414   .     A
C950   C955    1.420   .     A
C950   O1022   1.385   .     S
C951   C955    1.415   .     A
C951   O1023   1.384   .     S
C952   O1025   1.281   .     A
C952   O1026   1.281   .     A
C952   C958    1.420   .     S
C953   O1024   1.384   .     S
C953   C954    1.420   .     A
C954   C963    1.457   .     S
C955   C973    1.457   .     S
C957   C110    1.454   1_556 S
C959   C978    1.397   .     A
C960   O1032   1.420   .     S
C960   H984    1.114   .     S
C960   H1018   1.110   .     S
C960   C961    1.541   .     S
C961   C962    1.526   .     S
C961   H985    1.108   .     S
C961   H986    1.111   .     S
C962   H988    1.111   .     S
C962   H987    1.111   .     S
C962   H1271   1.110   .     S
C963   O1028   1.294   .     A
C963   O1031   1.287   .     A
C964   O1022   1.420   .     S
C964   H991    1.116   .     S
C964   H990    1.111   .     S
C964   C965    1.536   .     S
C965   H993    1.111   .     S
C965   C966    1.526   .     S
C965   H992    1.106   .     S
C966   H995    1.111   .     S
C966   H1560   1.111   1_545 S
C966   H1561   1.111   1_545 S
C967   H998    1.110   .     S
C967   O1023   1.420   .     S
C967   H999    1.114   .     S
C967   C968    1.541   .     S
C968   C969    1.526   .     S
C968   H1001   1.111   .     S
C968   H1000   1.108   .     S
C969   H1003   1.111   .     S
C969   H1002   1.111   .     S
C969   H1286   1.110   .     S
C970   C971    1.537   .     S
C970   H1007   1.115   .     S
C970   H1006   1.111   .     S
C970   O1024   1.420   .     S
C971   H1008   1.106   .     S
C971   C972    1.526   .     S
C971   H1009   1.111   .     S
C972   H1010   1.111   .     S
C972   H1575   1.111   1_545 S
C972   H1576   1.111   1_545 S
C973   O1029   1.287   .     A
C973   O1030   1.294   .     A
C974   N1020   1.366   .     A
C974   F979    1.355   .     S
C974   C1541   1.414   1_545 S
C975   F980    1.354   .     S
C975   N1019   1.367   .     A
C975   C1258   1.413   .     S
C976   F981    1.355   .     S
C976   N1020   1.366   .     A
C976   C1539   1.413   1_545 S
C977   F982    1.354   .     S
C977   N1019   1.367   .     A
C977   C1256   1.414   .     S
C978   H1014   1.083   .     S
H989   C1526   1.110   1_545 S
H996   C1248   1.111   .     S
H997   C1248   1.111   .     S
H1004  C1533   1.110   1_545 S
H1011  C1254   1.111   .     S
H1012  C1254   1.111   .     S
N1019  Zn1033  2.006   .     S
N1020  Zn1034  2.006   .     S
O1021  Zn1033  2.001   .     S
O1025  Zn1034  2.001   .     S
O1026  Zn1033  2.001   .     S
O1027  Zn1034  2.001   .     S
O1028  Zn1033  2.019   .     S
O1029  Zn1034  2.019   .     S
O1030  Zn1033  2.019   .     S
O1031  Zn1034  2.019   .     S
C1035  O1121   1.281   .     A
C1035  O1115   1.281   .     A
C1035  C1053   1.420   .     S
C1036  C1052   1.397   .     A
C1036  H1109   1.083   .     S
C1036  C850    1.369   1_655 S
C1037  C1052   1.397   .     A
C1037  H1110   1.083   .     S
C1037  C884    1.369   1_655 S
C1038  C1053   1.397   .     A
C1038  H1111   1.083   .     S
C1039  C1050   1.396   .     A
C1039  H1077   1.082   .     S
C1039  C1043   1.381   .     A
C1040  H1088   1.082   .     S
C1040  C1051   1.394   .     A
C1040  C1044   1.381   .     A
C1041  C1045   1.382   .     A
C1041  H1099   1.083   .     S
C1041  C1051   1.395   .     A
C1042  C1047   1.382   .     A
C1042  C1050   1.394   .     A
C1042  H1107   1.082   .     S
C1043  O1126   1.383   .     S
C1043  C1048   1.414   .     A
C1044  C1049   1.420   .     A
C1044  O1116   1.385   .     S
C1045  C1049   1.415   .     A
C1045  O1117   1.384   .     S
C1046  O1119   1.281   .     A
C1046  O1120   1.281   .     A
C1046  C1052   1.420   .     S
C1047  O1118   1.384   .     S
C1047  C1048   1.420   .     A
C1048  C1057   1.457   .     S
C1049  C1067   1.457   .     S
C1051  C204    1.454   1_556 S
C1053  C1072   1.397   .     A
C1054  O1126   1.420   .     S
C1054  H1078   1.114   .     S
C1054  H1112   1.110   .     S
C1054  C1055   1.541   .     S
C1055  C1056   1.526   .     S
C1055  H1079   1.108   .     S
C1055  H1080   1.111   .     S
C1056  H1082   1.111   .     S
C1056  H1081   1.111   .     S
C1056  H1365   1.110   .     S
C1057  O1122   1.294   .     A
C1057  O1125   1.287   .     A
C1058  O1116   1.420   .     S
C1058  H1085   1.116   .     S
C1058  H1084   1.111   .     S
C1058  C1059   1.536   .     S
C1059  H1087   1.111   .     S
C1059  C1060   1.526   .     S
C1059  H1086   1.106   .     S
C1060  H1089   1.111   .     S
C1060  H1654   1.111   1_545 S
C1060  H1655   1.111   1_545 S
C1061  H1092   1.110   .     S
C1061  O1117   1.420   .     S
C1061  H1093   1.114   .     S
C1061  C1062   1.541   .     S
C1062  C1063   1.526   .     S
C1062  H1095   1.111   .     S
C1062  H1094   1.108   .     S
C1063  H1097   1.111   .     S
C1063  H1096   1.111   .     S
C1063  H1380   1.110   .     S
C1064  C1065   1.537   .     S
C1064  H1101   1.115   .     S
C1064  H1100   1.111   .     S
C1064  O1118   1.420   .     S
C1065  H1102   1.106   .     S
C1065  C1066   1.526   .     S
C1065  H1103   1.111   .     S
C1066  H1104   1.111   .     S
C1066  H1669   1.111   1_545 S
C1066  H1670   1.111   1_545 S
C1067  O1123   1.287   .     A
C1067  O1124   1.294   .     A
C1068  N1114   1.366   .     A
C1068  F1073   1.355   .     S
C1068  C1635   1.414   1_545 S
C1069  F1074   1.354   .     S
C1069  N1113   1.367   .     A
C1069  C1352   1.413   .     S
C1070  F1075   1.355   .     S
C1070  N1114   1.366   .     A
C1070  C1633   1.413   1_545 S
C1071  F1076   1.354   .     S
C1071  N1113   1.367   .     A
C1071  C1350   1.414   .     S
C1072  H1108   1.083   .     S
H1083  C1620   1.110   1_545 S
H1090  C1342   1.111   .     S
H1091  C1342   1.111   .     S
H1098  C1627   1.110   1_545 S
H1105  C1348   1.111   .     S
H1106  C1348   1.111   .     S
N1113  Zn1127  2.006   .     S
N1114  Zn1128  2.006   .     S
O1115  Zn1127  2.001   .     S
O1119  Zn1128  2.001   .     S
O1120  Zn1127  2.001   .     S
O1121  Zn1128  2.001   .     S
O1122  Zn1127  2.019   .     S
O1123  Zn1128  2.019   .     S
O1124  Zn1127  2.019   .     S
O1125  Zn1128  2.019   .     S
C1129  O1215   1.281   .     A
C1129  O1209   1.281   .     A
C1129  C1147   1.420   .     S
C1130  C1146   1.397   .     A
C1130  H1203   1.083   .     S
C1130  C1226   1.369   .     S
C1131  C1146   1.397   .     A
C1131  H1204   1.083   .     S
C1131  C1260   1.369   .     S
C1132  C1147   1.397   .     A
C1132  H1205   1.083   .     S
C1132  C1318   1.369   1_455 S
C1133  C1144   1.396   .     A
C1133  H1171   1.082   .     S
C1133  C1137   1.381   .     A
C1134  H1182   1.082   .     S
C1134  C1145   1.394   .     A
C1134  C1138   1.381   .     A
C1135  C1139   1.382   .     A
C1135  H1193   1.083   .     S
C1135  C1145   1.395   .     A
C1136  C1141   1.382   .     A
C1136  C1144   1.394   .     A
C1136  H1201   1.082   .     S
C1137  O1220   1.383   .     S
C1137  C1142   1.414   .     A
C1138  C1143   1.420   .     A
C1138  O1210   1.385   .     S
C1139  C1143   1.415   .     A
C1139  O1211   1.384   .     S
C1140  O1213   1.281   .     A
C1140  O1214   1.281   .     A
C1140  C1146   1.420   .     S
C1141  O1212   1.384   .     S
C1141  C1142   1.420   .     A
C1142  C1151   1.457   .     S
C1143  C1161   1.457   .     S
C1145  C298    1.454   1_556 S
C1147  C1166   1.397   .     A
C1148  O1220   1.420   .     S
C1148  H1172   1.114   .     S
C1148  H1206   1.110   .     S
C1148  C1149   1.541   .     S
C1149  C1150   1.526   .     S
C1149  H1173   1.108   .     S
C1149  H1174   1.111   .     S
C1150  H1176   1.111   .     S
C1150  H1175   1.111   .     S
C1150  H1459   1.110   .     S
C1151  O1216   1.294   .     A
C1151  O1219   1.287   .     A
C1152  O1210   1.420   .     S
C1152  H1179   1.116   .     S
C1152  H1178   1.111   .     S
C1152  C1153   1.536   .     S
C1153  H1181   1.111   .     S
C1153  C1154   1.526   .     S
C1153  H1180   1.106   .     S
C1154  H1183   1.111   .     S
C1155  H1186   1.110   .     S
C1155  O1211   1.420   .     S
C1155  H1187   1.114   .     S
C1155  C1156   1.541   .     S
C1156  C1157   1.526   .     S
C1156  H1189   1.111   .     S
C1156  H1188   1.108   .     S
C1157  H1191   1.111   .     S
C1157  H1190   1.111   .     S
C1157  H1474   1.110   .     S
C1158  C1159   1.537   .     S
C1158  H1195   1.115   .     S
C1158  H1194   1.111   .     S
C1158  O1212   1.420   .     S
C1159  H1196   1.106   .     S
C1159  C1160   1.526   .     S
C1159  H1197   1.111   .     S
C1160  H1198   1.111   .     S
C1161  O1217   1.287   .     A
C1161  O1218   1.294   .     A
C1162  N1208   1.366   .     A
C1162  F1167   1.355   .     S
C1163  F1168   1.354   .     S
C1163  N1207   1.367   .     A
C1163  C1446   1.413   .     S
C1164  F1169   1.355   .     S
C1164  N1208   1.366   .     A
C1165  F1170   1.354   .     S
C1165  N1207   1.367   .     A
C1165  C1444   1.414   .     S
C1166  H1202   1.083   .     S
C1166  C1319   1.369   1_455 S
H1184  C1436   1.111   .     S
H1185  C1436   1.111   .     S
H1199  C1442   1.111   .     S
H1200  C1442   1.111   .     S
N1207  Zn1221  2.006   .     S
N1208  Zn1222  2.006   .     S
O1209  Zn1221  2.001   .     S
O1213  Zn1222  2.001   .     S
O1214  Zn1221  2.001   .     S
O1215  Zn1222  2.001   .     S
O1216  Zn1221  2.019   .     S
O1217  Zn1222  2.019   .     S
O1218  Zn1221  2.019   .     S
O1219  Zn1222  2.019   .     S
C1223  O1309   1.281   .     A
C1223  O1303   1.281   .     A
C1223  C1241   1.420   .     S
C1224  C1240   1.397   .     A
C1224  H1297   1.083   .     S
C1224  C1320   1.369   .     S
C1225  C1240   1.397   .     A
C1225  H1298   1.083   .     S
C1225  C1354   1.369   .     S
C1226  C1241   1.397   .     A
C1226  H1299   1.083   .     S
C1227  C1238   1.396   .     A
C1227  H1265   1.082   .     S
C1227  C1231   1.381   .     A
C1228  H1276   1.082   .     S
C1228  C1239   1.394   .     A
C1228  C1232   1.381   .     A
C1229  C1233   1.382   .     A
C1229  H1287   1.083   .     S
C1229  C1239   1.395   .     A
C1230  C1235   1.382   .     A
C1230  C1238   1.394   .     A
C1230  H1295   1.082   .     S
C1231  O1314   1.383   .     S
C1231  C1236   1.414   .     A
C1232  C1237   1.420   .     A
C1232  O1304   1.385   .     S
C1233  C1237   1.415   .     A
C1233  O1305   1.384   .     S
C1234  O1307   1.281   .     A
C1234  O1308   1.281   .     A
C1234  C1240   1.420   .     S
C1235  O1306   1.384   .     S
C1235  C1236   1.420   .     A
C1236  C1245   1.457   .     S
C1237  C1255   1.457   .     S
C1239  C392    1.454   1_556 S
C1241  C1260   1.397   .     A
C1242  O1314   1.420   .     S
C1242  H1266   1.114   .     S
C1242  H1300   1.110   .     S
C1242  C1243   1.541   .     S
C1243  C1244   1.526   .     S
C1243  H1267   1.108   .     S
C1243  H1268   1.111   .     S
C1244  H1270   1.111   .     S
C1244  H1269   1.111   .     S
C1244  H1553   1.110   .     S
C1245  O1310   1.294   .     A
C1245  O1313   1.287   .     A
C1246  O1304   1.420   .     S
C1246  H1273   1.116   .     S
C1246  H1272   1.111   .     S
C1246  C1247   1.536   .     S
C1247  H1275   1.111   .     S
C1247  C1248   1.526   .     S
C1247  H1274   1.106   .     S
C1248  H1277   1.111   .     S
C1249  H1280   1.110   .     S
C1249  O1305   1.420   .     S
C1249  H1281   1.114   .     S
C1249  C1250   1.541   .     S
C1250  C1251   1.526   .     S
C1250  H1283   1.111   .     S
C1250  H1282   1.108   .     S
C1251  H1285   1.111   .     S
C1251  H1284   1.111   .     S
C1251  H1568   1.110   .     S
C1252  C1253   1.537   .     S
C1252  H1289   1.115   .     S
C1252  H1288   1.111   .     S
C1252  O1306   1.420   .     S
C1253  H1290   1.106   .     S
C1253  C1254   1.526   .     S
C1253  H1291   1.111   .     S
C1254  H1292   1.111   .     S
C1255  O1311   1.287   .     A
C1255  O1312   1.294   .     A
C1256  N1302   1.366   .     A
C1256  F1261   1.355   .     S
C1257  F1262   1.354   .     S
C1257  N1301   1.367   .     A
C1257  C1540   1.413   .     S
C1258  F1263   1.355   .     S
C1258  N1302   1.366   .     A
C1259  F1264   1.354   .     S
C1259  N1301   1.367   .     A
C1259  C1538   1.414   .     S
C1260  H1296   1.083   .     S
H1278  C1530   1.111   .     S
H1279  C1530   1.111   .     S
H1293  C1536   1.111   .     S
H1294  C1536   1.111   .     S
N1301  Zn1315  2.006   .     S
N1302  Zn1316  2.006   .     S
O1303  Zn1315  2.001   .     S
O1307  Zn1316  2.001   .     S
O1308  Zn1315  2.001   .     S
O1309  Zn1316  2.001   .     S
O1310  Zn1315  2.019   .     S
O1311  Zn1316  2.019   .     S
O1312  Zn1315  2.019   .     S
O1313  Zn1316  2.019   .     S
C1317  O1403   1.281   .     A
C1317  O1397   1.281   .     A
C1317  C1335   1.420   .     S
C1318  C1334   1.397   .     A
C1318  H1391   1.083   .     S
C1318  C1132   1.369   1_655 S
C1319  C1334   1.397   .     A
C1319  H1392   1.083   .     S
C1319  C1166   1.369   1_655 S
C1320  C1335   1.397   .     A
C1320  H1393   1.083   .     S
C1321  C1332   1.396   .     A
C1321  H1359   1.082   .     S
C1321  C1325   1.381   .     A
C1322  H1370   1.082   .     S
C1322  C1333   1.394   .     A
C1322  C1326   1.381   .     A
C1323  C1327   1.382   .     A
C1323  H1381   1.083   .     S
C1323  C1333   1.395   .     A
C1324  C1329   1.382   .     A
C1324  C1332   1.394   .     A
C1324  H1389   1.082   .     S
C1325  O1408   1.383   .     S
C1325  C1330   1.414   .     A
C1326  C1331   1.420   .     A
C1326  O1398   1.385   .     S
C1327  C1331   1.415   .     A
C1327  O1399   1.384   .     S
C1328  O1401   1.281   .     A
C1328  O1402   1.281   .     A
C1328  C1334   1.420   .     S
C1329  O1400   1.384   .     S
C1329  C1330   1.420   .     A
C1330  C1339   1.457   .     S
C1331  C1349   1.457   .     S
C1333  C486    1.454   1_556 S
C1335  C1354   1.397   .     A
C1336  O1408   1.420   .     S
C1336  H1360   1.114   .     S
C1336  H1394   1.110   .     S
C1336  C1337   1.541   .     S
C1337  C1338   1.526   .     S
C1337  H1361   1.108   .     S
C1337  H1362   1.111   .     S
C1338  H1364   1.111   .     S
C1338  H1363   1.111   .     S
C1338  H1647   1.110   .     S
C1339  O1404   1.294   .     A
C1339  O1407   1.287   .     A
C1340  O1398   1.420   .     S
C1340  H1367   1.116   .     S
C1340  H1366   1.111   .     S
C1340  C1341   1.536   .     S
C1341  H1369   1.111   .     S
C1341  C1342   1.526   .     S
C1341  H1368   1.106   .     S
C1342  H1371   1.111   .     S
C1343  H1374   1.110   .     S
C1343  O1399   1.420   .     S
C1343  H1375   1.114   .     S
C1343  C1344   1.541   .     S
C1344  C1345   1.526   .     S
C1344  H1377   1.111   .     S
C1344  H1376   1.108   .     S
C1345  H1379   1.111   .     S
C1345  H1378   1.111   .     S
C1345  H1662   1.110   .     S
C1346  C1347   1.537   .     S
C1346  H1383   1.115   .     S
C1346  H1382   1.111   .     S
C1346  O1400   1.420   .     S
C1347  H1384   1.106   .     S
C1347  C1348   1.526   .     S
C1347  H1385   1.111   .     S
C1348  H1386   1.111   .     S
C1349  O1405   1.287   .     A
C1349  O1406   1.294   .     A
C1350  N1396   1.366   .     A
C1350  F1355   1.355   .     S
C1351  F1356   1.354   .     S
C1351  N1395   1.367   .     A
C1351  C1634   1.413   .     S
C1352  F1357   1.355   .     S
C1352  N1396   1.366   .     A
C1353  F1358   1.354   .     S
C1353  N1395   1.367   .     A
C1353  C1632   1.414   .     S
C1354  H1390   1.083   .     S
H1372  C1624   1.111   .     S
H1373  C1624   1.111   .     S
H1387  C1630   1.111   .     S
H1388  C1630   1.111   .     S
N1395  Zn1409  2.006   .     S
N1396  Zn1410  2.006   .     S
O1397  Zn1409  2.001   .     S
O1401  Zn1410  2.001   .     S
O1402  Zn1409  2.001   .     S
O1403  Zn1410  2.001   .     S
O1404  Zn1409  2.019   .     S
O1405  Zn1410  2.019   .     S
O1406  Zn1409  2.019   .     S
O1407  Zn1410  2.019   .     S
C1411  O1497   1.281   .     A
C1411  O1491   1.281   .     A
C1411  C1429   1.420   .     S
C1412  C1428   1.397   .     A
C1412  H1485   1.083   .     S
C1412  C1508   1.369   .     S
C1413  C1428   1.397   .     A
C1413  H1486   1.083   .     S
C1413  C1542   1.369   .     S
C1414  C1429   1.397   .     A
C1414  H1487   1.083   .     S
C1414  C1600   1.369   1_455 S
C1415  C1426   1.396   .     A
C1415  H1453   1.082   .     S
C1415  C1419   1.381   .     A
C1416  H1464   1.082   .     S
C1416  C1427   1.394   .     A
C1416  C1420   1.381   .     A
C1417  C1421   1.382   .     A
C1417  H1475   1.083   .     S
C1417  C1427   1.395   .     A
C1418  C1423   1.382   .     A
C1418  C1426   1.394   .     A
C1418  H1483   1.082   .     S
C1419  O1502   1.383   .     S
C1419  C1424   1.414   .     A
C1420  C1425   1.420   .     A
C1420  O1492   1.385   .     S
C1421  C1425   1.415   .     A
C1421  O1493   1.384   .     S
C1422  O1495   1.281   .     A
C1422  O1496   1.281   .     A
C1422  C1428   1.420   .     S
C1423  O1494   1.384   .     S
C1423  C1424   1.420   .     A
C1424  C1433   1.457   .     S
C1425  C1443   1.457   .     S
C1427  C580    1.454   1_556 S
C1429  C1448   1.397   .     A
C1430  O1502   1.420   .     S
C1430  H1454   1.114   .     S
C1430  H1488   1.110   .     S
C1430  C1431   1.541   .     S
C1431  C1432   1.526   .     S
C1431  H1455   1.108   .     S
C1431  H1456   1.111   .     S
C1432  H1458   1.111   .     S
C1432  H1457   1.111   .     S
C1432  H895    1.110   1_565 S
C1433  O1498   1.294   .     A
C1433  O1501   1.287   .     A
C1434  O1492   1.420   .     S
C1434  H1461   1.116   .     S
C1434  H1460   1.111   .     S
C1434  C1435   1.536   .     S
C1435  H1463   1.111   .     S
C1435  C1436   1.526   .     S
C1435  H1462   1.106   .     S
C1436  H1465   1.111   .     S
C1437  H1468   1.110   .     S
C1437  O1493   1.420   .     S
C1437  H1469   1.114   .     S
C1437  C1438   1.541   .     S
C1438  C1439   1.526   .     S
C1438  H1471   1.111   .     S
C1438  H1470   1.108   .     S
C1439  H1473   1.111   .     S
C1439  H1472   1.111   .     S
C1439  H910    1.110   1_565 S
C1440  C1441   1.537   .     S
C1440  H1477   1.115   .     S
C1440  H1476   1.111   .     S
C1440  O1494   1.420   .     S
C1441  H1478   1.106   .     S
C1441  C1442   1.526   .     S
C1441  H1479   1.111   .     S
C1442  H1480   1.111   .     S
C1443  O1499   1.287   .     A
C1443  O1500   1.294   .     A
C1444  N1490   1.366   .     A
C1444  F1449   1.355   .     S
C1445  F1450   1.354   .     S
C1445  N1489   1.367   .     A
C1445  C882    1.413   1_565 S
C1446  F1451   1.355   .     S
C1446  N1490   1.366   .     A
C1447  F1452   1.354   .     S
C1447  N1489   1.367   .     A
C1447  C880    1.414   1_565 S
C1448  H1484   1.083   .     S
C1448  C1601   1.369   1_455 S
H1466  C872    1.111   1_565 S
H1467  C872    1.111   1_565 S
H1481  C878    1.111   1_565 S
H1482  C878    1.111   1_565 S
N1489  Zn1503  2.006   .     S
N1490  Zn1504  2.006   .     S
O1491  Zn1503  2.001   .     S
O1495  Zn1504  2.001   .     S
O1496  Zn1503  2.001   .     S
O1497  Zn1504  2.001   .     S
O1498  Zn1503  2.019   .     S
O1499  Zn1504  2.019   .     S
O1500  Zn1503  2.019   .     S
O1501  Zn1504  2.019   .     S
C1505  O1591   1.281   .     A
C1505  O1585   1.281   .     A
C1505  C1523   1.420   .     S
C1506  C1522   1.397   .     A
C1506  H1579   1.083   .     S
C1506  C1602   1.369   .     S
C1507  C1522   1.397   .     A
C1507  H1580   1.083   .     S
C1507  C1636   1.369   .     S
C1508  C1523   1.397   .     A
C1508  H1581   1.083   .     S
C1509  C1520   1.396   .     A
C1509  H1547   1.082   .     S
C1509  C1513   1.381   .     A
C1510  H1558   1.082   .     S
C1510  C1521   1.394   .     A
C1510  C1514   1.381   .     A
C1511  C1515   1.382   .     A
C1511  H1569   1.083   .     S
C1511  C1521   1.395   .     A
C1512  C1517   1.382   .     A
C1512  C1520   1.394   .     A
C1512  H1577   1.082   .     S
C1513  O1596   1.383   .     S
C1513  C1518   1.414   .     A
C1514  C1519   1.420   .     A
C1514  O1586   1.385   .     S
C1515  C1519   1.415   .     A
C1515  O1587   1.384   .     S
C1516  O1589   1.281   .     A
C1516  O1590   1.281   .     A
C1516  C1522   1.420   .     S
C1517  O1588   1.384   .     S
C1517  C1518   1.420   .     A
C1518  C1527   1.457   .     S
C1519  C1537   1.457   .     S
C1521  C674    1.454   1_556 S
C1523  C1542   1.397   .     A
C1524  O1596   1.420   .     S
C1524  H1548   1.114   .     S
C1524  H1582   1.110   .     S
C1524  C1525   1.541   .     S
C1525  C1526   1.526   .     S
C1525  H1549   1.108   .     S
C1525  H1550   1.111   .     S
C1526  H1552   1.111   .     S
C1526  H1551   1.111   .     S
C1526  H989    1.110   1_565 S
C1527  O1592   1.294   .     A
C1527  O1595   1.287   .     A
C1528  O1586   1.420   .     S
C1528  H1555   1.116   .     S
C1528  H1554   1.111   .     S
C1528  C1529   1.536   .     S
C1529  H1557   1.111   .     S
C1529  C1530   1.526   .     S
C1529  H1556   1.106   .     S
C1530  H1559   1.111   .     S
C1531  H1562   1.110   .     S
C1531  O1587   1.420   .     S
C1531  H1563   1.114   .     S
C1531  C1532   1.541   .     S
C1532  C1533   1.526   .     S
C1532  H1565   1.111   .     S
C1532  H1564   1.108   .     S
C1533  H1567   1.111   .     S
C1533  H1566   1.111   .     S
C1533  H1004   1.110   1_565 S
C1534  C1535   1.537   .     S
C1534  H1571   1.115   .     S
C1534  H1570   1.111   .     S
C1534  O1588   1.420   .     S
C1535  H1572   1.106   .     S
C1535  C1536   1.526   .     S
C1535  H1573   1.111   .     S
C1536  H1574   1.111   .     S
C1537  O1593   1.287   .     A
C1537  O1594   1.294   .     A
C1538  N1584   1.366   .     A
C1538  F1543   1.355   .     S
C1539  F1544   1.354   .     S
C1539  N1583   1.367   .     A
C1539  C976    1.413   1_565 S
C1540  F1545   1.355   .     S
C1540  N1584   1.366   .     A
C1541  F1546   1.354   .     S
C1541  N1583   1.367   .     A
C1541  C974    1.414   1_565 S
C1542  H1578   1.083   .     S
H1560  C966    1.111   1_565 S
H1561  C966    1.111   1_565 S
H1575  C972    1.111   1_565 S
H1576  C972    1.111   1_565 S
N1583  Zn1597  2.006   .     S
N1584  Zn1598  2.006   .     S
O1585  Zn1597  2.001   .     S
O1589  Zn1598  2.001   .     S
O1590  Zn1597  2.001   .     S
O1591  Zn1598  2.001   .     S
O1592  Zn1597  2.019   .     S
O1593  Zn1598  2.019   .     S
O1594  Zn1597  2.019   .     S
O1595  Zn1598  2.019   .     S
C1599  O1685   1.281   .     A
C1599  O1679   1.281   .     A
C1599  C1617   1.420   .     S
C1600  C1616   1.397   .     A
C1600  H1673   1.083   .     S
C1600  C1414   1.369   1_655 S
C1601  C1616   1.397   .     A
C1601  H1674   1.083   .     S
C1601  C1448   1.369   1_655 S
C1602  C1617   1.397   .     A
C1602  H1675   1.083   .     S
C1603  C1614   1.396   .     A
C1603  H1641   1.082   .     S
C1603  C1607   1.381   .     A
C1604  H1652   1.082   .     S
C1604  C1615   1.394   .     A
C1604  C1608   1.381   .     A
C1605  C1609   1.382   .     A
C1605  H1663   1.083   .     S
C1605  C1615   1.395   .     A
C1606  C1611   1.382   .     A
C1606  C1614   1.394   .     A
C1606  H1671   1.082   .     S
C1607  O1690   1.383   .     S
C1607  C1612   1.414   .     A
C1608  C1613   1.420   .     A
C1608  O1680   1.385   .     S
C1609  C1613   1.415   .     A
C1609  O1681   1.384   .     S
C1610  O1683   1.281   .     A
C1610  O1684   1.281   .     A
C1610  C1616   1.420   .     S
C1611  O1682   1.384   .     S
C1611  C1612   1.420   .     A
C1612  C1621   1.457   .     S
C1613  C1631   1.457   .     S
C1615  C768    1.454   1_556 S
C1617  C1636   1.397   .     A
C1618  O1690   1.420   .     S
C1618  H1642   1.114   .     S
C1618  H1676   1.110   .     S
C1618  C1619   1.541   .     S
C1619  C1620   1.526   .     S
C1619  H1643   1.108   .     S
C1619  H1644   1.111   .     S
C1620  H1646   1.111   .     S
C1620  H1645   1.111   .     S
C1620  H1083   1.110   1_565 S
C1621  O1686   1.294   .     A
C1621  O1689   1.287   .     A
C1622  O1680   1.420   .     S
C1622  H1649   1.116   .     S
C1622  H1648   1.111   .     S
C1622  C1623   1.536   .     S
C1623  H1651   1.111   .     S
C1623  C1624   1.526   .     S
C1623  H1650   1.106   .     S
C1624  H1653   1.111   .     S
C1625  H1656   1.110   .     S
C1625  O1681   1.420   .     S
C1625  H1657   1.114   .     S
C1625  C1626   1.541   .     S
C1626  C1627   1.526   .     S
C1626  H1659   1.111   .     S
C1626  H1658   1.108   .     S
C1627  H1661   1.111   .     S
C1627  H1660   1.111   .     S
C1627  H1098   1.110   1_565 S
C1628  C1629   1.537   .     S
C1628  H1665   1.115   .     S
C1628  H1664   1.111   .     S
C1628  O1682   1.420   .     S
C1629  H1666   1.106   .     S
C1629  C1630   1.526   .     S
C1629  H1667   1.111   .     S
C1630  H1668   1.111   .     S
C1631  O1687   1.287   .     A
C1631  O1688   1.294   .     A
C1632  N1678   1.366   .     A
C1632  F1637   1.355   .     S
C1633  F1638   1.354   .     S
C1633  N1677   1.367   .     A
C1633  C1070   1.413   1_565 S
C1634  F1639   1.355   .     S
C1634  N1678   1.366   .     A
C1635  F1640   1.354   .     S
C1635  N1677   1.367   .     A
C1635  C1068   1.414   1_565 S
C1636  H1672   1.083   .     S
H1654  C1060   1.111   1_565 S
H1655  C1060   1.111   1_565 S
H1669  C1066   1.111   1_565 S
H1670  C1066   1.111   1_565 S
N1677  Zn1691  2.006   .     S
N1678  Zn1692  2.006   .     S
O1679  Zn1691  2.001   .     S
O1683  Zn1692  2.001   .     S
O1684  Zn1691  2.001   .     S
O1685  Zn1692  2.001   .     S
O1686  Zn1691  2.019   .     S
O1687  Zn1692  2.019   .     S
O1688  Zn1691  2.019   .     S
O1689  Zn1692  2.019   .     S
