data_str_m2_o10_o17_pcu_sym.194
_audit_creation_date              2020-01-03
_audit_creation_method            'Materials Studio'
_symmetry_space_group_name_H-M    'P1'
_symmetry_Int_Tables_number       1
_symmetry_cell_setting            triclinic
loop_
_symmetry_equiv_pos_as_xyz
  x,y,z
_cell_length_a                    30.0206
_cell_length_b                    26.0310
_cell_length_c                    22.5451
_cell_angle_alpha                 103.4509
_cell_angle_beta                  94.1994
_cell_angle_gamma                 92.8784
loop_
_atom_site_label
_atom_site_type_symbol
_atom_site_fract_x
_atom_site_fract_y
_atom_site_fract_z
_atom_site_U_iso_or_equiv
_atom_site_adp_type
_atom_site_occupancy
O1     O     0.25326   0.09538   0.20659   0.00000  Uiso   1.00
O2     O     0.24675   0.23796   0.12674   0.00000  Uiso   1.00
O3     O     0.24480   0.08559   0.10279   0.00000  Uiso   1.00
O4     O     0.25520   0.24774   0.23055   0.00000  Uiso   1.00
C5     C     0.24855   0.06659   0.15099   0.00000  Uiso   1.00
C6     C     0.25145   0.26674   0.18235   0.00000  Uiso   1.00
O7     O     0.18936   0.17155   0.21857   0.00000  Uiso   1.00
O8     O     0.31065   0.16179   0.11476   0.00000  Uiso   1.00
O9     O     0.18090   0.16176   0.11477   0.00000  Uiso   1.00
O10    O     0.31910   0.17157   0.21857   0.00000  Uiso   1.00
C11    C     0.16466   0.16574   0.16726   0.00000  Uiso   1.00
C12    C     0.33534   0.16759   0.16608   0.00000  Uiso   1.00
Cu13   Cu    0.25501   0.17246   0.22813   0.00000  Uiso   1.00
Cu14   Cu    0.24500   0.16087   0.10521   0.00000  Uiso   1.00
C15    C     0.41054   0.21011   0.20436   0.00000  Uiso   1.00
C16    C     0.08946   0.12322   0.12898   0.00000  Uiso   1.00
C17    C     0.38354   0.16846   0.16495   0.00000  Uiso   1.00
C18    C     0.11646   0.16488   0.16838   0.00000  Uiso   1.00
C19    C     0.40236   0.12568   0.12742   0.00000  Uiso   1.00
C20    C     0.09764   0.20765   0.20591   0.00000  Uiso   1.00
C21    C     0.44897   0.12545   0.12709   0.00000  Uiso   1.00
C22    C     0.05103   0.20788   0.20625   0.00000  Uiso   1.00
C23    C     0.47654   0.16701   0.16652   0.00000  Uiso   1.00
C24    C     0.02346   0.16632   0.16682   0.00000  Uiso   1.00
C25    C     0.45732   0.20935   0.20548   0.00000  Uiso   1.00
C26    C     0.04268   0.12398   0.12786   0.00000  Uiso   1.00
C27    C     0.46846   0.08395   0.08861   0.00000  Uiso   1.00
C28    C     0.03154   0.24938   0.24473   0.00000  Uiso   1.00
C29    C     0.01465   0.08288   0.08947   0.00000  Uiso   1.00
C30    C     0.48535   0.25045   0.24387   0.00000  Uiso   1.00
H31    H     0.44809   0.05175   0.05784   0.00000  Uiso   1.00
H32    H     0.05191   0.28158   0.27550   0.00000  Uiso   1.00
H33    H     0.02800   0.04936   0.05994   0.00000  Uiso   1.00
H34    H     0.47200   0.28397   0.27340   0.00000  Uiso   1.00
C35    C     0.24781   0.01043   0.14239   0.00000  Uiso   1.00
C36    C     0.25219   0.32291   0.19094   0.00000  Uiso   1.00
H37    H     0.24375   0.31950   0.09578   0.00000  Uiso   1.00
H38    H     0.25626   0.01383   0.23755   0.00000  Uiso   1.00
N39    N     0.23745   0.15214   0.01284   0.00000  Uiso   1.00
N40    N     0.26256   0.18119   0.32049   0.00000  Uiso   1.00
N41    N     0.39022   0.25336   0.24223   0.00000  Uiso   1.00
O42    O     0.36366   0.28200   0.21742   0.00000  Uiso   1.00
O43    O     0.39552   0.26158   0.30156   0.00000  Uiso   1.00
N44    N     0.10978   0.07997   0.09111   0.00000  Uiso   1.00
O45    O     0.13635   0.05134   0.11593   0.00000  Uiso   1.00
O46    O     0.10447   0.07175   0.03178   0.00000  Uiso   1.00
O47    O     0.37487   0.08467   0.09007   0.00000  Uiso   1.00
C48    C     0.36672   0.04561   0.12288   0.00000  Uiso   1.00
H49    H     0.39808   0.02757   0.13422   0.00000  Uiso   1.00
H50    H     0.34356   0.01368   0.09366   0.00000  Uiso   1.00
H51    H     0.35036   0.06166   0.16541   0.00000  Uiso   1.00
O52    O     0.12512   0.24867   0.24325   0.00000  Uiso   1.00
C53    C     0.13327   0.28773   0.21043   0.00000  Uiso   1.00
H54    H     0.15636   0.31971   0.23967   0.00000  Uiso   1.00
H55    H     0.10189   0.30570   0.19899   0.00000  Uiso   1.00
H56    H     0.14970   0.27170   0.16796   0.00000  Uiso   1.00
N57    N     0.19449   0.13899   0.31814   0.00000  Uiso   1.00
O58    O     0.18290   0.09003   0.29035   0.00000  Uiso   1.00
O59    O     0.16351   0.17198   0.33157   0.00000  Uiso   1.00
N60    N     0.30550   0.19441   0.01523   0.00000  Uiso   1.00
O61    O     0.31703   0.24339   0.04301   0.00000  Uiso   1.00
O62    O     0.33653   0.16148   0.00181   0.00000  Uiso   1.00
O63    O     0.75326   0.09538   0.20659   0.00000  Uiso   1.00
O64    O     0.74675   0.23796   0.12674   0.00000  Uiso   1.00
O65    O     0.74480   0.08559   0.10279   0.00000  Uiso   1.00
O66    O     0.75520   0.24774   0.23055   0.00000  Uiso   1.00
C67    C     0.74855   0.06659   0.15099   0.00000  Uiso   1.00
C68    C     0.75145   0.26674   0.18235   0.00000  Uiso   1.00
O69    O     0.68936   0.17155   0.21857   0.00000  Uiso   1.00
O70    O     0.81065   0.16179   0.11476   0.00000  Uiso   1.00
O71    O     0.68090   0.16176   0.11477   0.00000  Uiso   1.00
O72    O     0.81910   0.17157   0.21857   0.00000  Uiso   1.00
C73    C     0.66466   0.16574   0.16726   0.00000  Uiso   1.00
C74    C     0.83534   0.16759   0.16608   0.00000  Uiso   1.00
Cu75   Cu    0.75501   0.17246   0.22813   0.00000  Uiso   1.00
Cu76   Cu    0.74500   0.16087   0.10521   0.00000  Uiso   1.00
C77    C     0.91054   0.21011   0.20436   0.00000  Uiso   1.00
C78    C     0.58946   0.12322   0.12898   0.00000  Uiso   1.00
C79    C     0.88354   0.16846   0.16495   0.00000  Uiso   1.00
C80    C     0.61646   0.16488   0.16838   0.00000  Uiso   1.00
C81    C     0.90236   0.12568   0.12742   0.00000  Uiso   1.00
C82    C     0.59764   0.20765   0.20591   0.00000  Uiso   1.00
C83    C     0.94897   0.12545   0.12709   0.00000  Uiso   1.00
C84    C     0.55103   0.20788   0.20625   0.00000  Uiso   1.00
C85    C     0.97654   0.16701   0.16652   0.00000  Uiso   1.00
C86    C     0.52346   0.16632   0.16682   0.00000  Uiso   1.00
C87    C     0.95732   0.20935   0.20548   0.00000  Uiso   1.00
C88    C     0.54268   0.12398   0.12786   0.00000  Uiso   1.00
C89    C     0.96846   0.08395   0.08861   0.00000  Uiso   1.00
C90    C     0.53154   0.24938   0.24473   0.00000  Uiso   1.00
C91    C     0.51465   0.08288   0.08947   0.00000  Uiso   1.00
C92    C     0.98535   0.25045   0.24387   0.00000  Uiso   1.00
H93    H     0.94809   0.05175   0.05784   0.00000  Uiso   1.00
H94    H     0.55191   0.28158   0.27550   0.00000  Uiso   1.00
H95    H     0.52800   0.04936   0.05994   0.00000  Uiso   1.00
H96    H     0.97200   0.28397   0.27340   0.00000  Uiso   1.00
C97    C     0.74781   0.01043   0.14239   0.00000  Uiso   1.00
C98    C     0.75219   0.32291   0.19094   0.00000  Uiso   1.00
H99    H     0.74375   0.31950   0.09578   0.00000  Uiso   1.00
H100   H     0.75626   0.01383   0.23755   0.00000  Uiso   1.00
N101   N     0.73745   0.15214   0.01284   0.00000  Uiso   1.00
N102   N     0.76256   0.18119   0.32049   0.00000  Uiso   1.00
N103   N     0.89022   0.25336   0.24223   0.00000  Uiso   1.00
O104   O     0.86366   0.28200   0.21742   0.00000  Uiso   1.00
O105   O     0.89552   0.26158   0.30156   0.00000  Uiso   1.00
N106   N     0.60978   0.07997   0.09111   0.00000  Uiso   1.00
O107   O     0.63635   0.05134   0.11593   0.00000  Uiso   1.00
O108   O     0.60447   0.07175   0.03178   0.00000  Uiso   1.00
O109   O     0.87487   0.08467   0.09007   0.00000  Uiso   1.00
C110   C     0.86672   0.04561   0.12288   0.00000  Uiso   1.00
H111   H     0.89808   0.02757   0.13422   0.00000  Uiso   1.00
H112   H     0.84356   0.01368   0.09366   0.00000  Uiso   1.00
H113   H     0.85036   0.06166   0.16541   0.00000  Uiso   1.00
O114   O     0.62512   0.24867   0.24325   0.00000  Uiso   1.00
C115   C     0.63327   0.28773   0.21043   0.00000  Uiso   1.00
H116   H     0.65636   0.31971   0.23967   0.00000  Uiso   1.00
H117   H     0.60189   0.30570   0.19899   0.00000  Uiso   1.00
H118   H     0.64970   0.27170   0.16796   0.00000  Uiso   1.00
N119   N     0.69449   0.13899   0.31814   0.00000  Uiso   1.00
O120   O     0.68290   0.09003   0.29035   0.00000  Uiso   1.00
O121   O     0.66351   0.17198   0.33157   0.00000  Uiso   1.00
N122   N     0.80550   0.19441   0.01523   0.00000  Uiso   1.00
O123   O     0.81703   0.24339   0.04301   0.00000  Uiso   1.00
O124   O     0.83653   0.16148   0.00181   0.00000  Uiso   1.00
O125   O     0.25326   0.42871   0.20659   0.00000  Uiso   1.00
O126   O     0.24675   0.57129   0.12674   0.00000  Uiso   1.00
O127   O     0.24480   0.41892   0.10279   0.00000  Uiso   1.00
O128   O     0.25520   0.58108   0.23055   0.00000  Uiso   1.00
C129   C     0.24855   0.39992   0.15099   0.00000  Uiso   1.00
C130   C     0.25145   0.60008   0.18235   0.00000  Uiso   1.00
O131   O     0.18936   0.50488   0.21857   0.00000  Uiso   1.00
O132   O     0.31065   0.49512   0.11476   0.00000  Uiso   1.00
O133   O     0.18090   0.49510   0.11477   0.00000  Uiso   1.00
O134   O     0.31910   0.50490   0.21857   0.00000  Uiso   1.00
C135   C     0.16466   0.49908   0.16726   0.00000  Uiso   1.00
C136   C     0.33534   0.50093   0.16608   0.00000  Uiso   1.00
Cu137  Cu    0.25501   0.50579   0.22813   0.00000  Uiso   1.00
Cu138  Cu    0.24500   0.49421   0.10521   0.00000  Uiso   1.00
C139   C     0.41054   0.54344   0.20436   0.00000  Uiso   1.00
C140   C     0.08946   0.45655   0.12898   0.00000  Uiso   1.00
C141   C     0.38354   0.50179   0.16495   0.00000  Uiso   1.00
C142   C     0.11646   0.49821   0.16838   0.00000  Uiso   1.00
C143   C     0.40236   0.45902   0.12742   0.00000  Uiso   1.00
C144   C     0.09764   0.54099   0.20591   0.00000  Uiso   1.00
C145   C     0.44897   0.45879   0.12709   0.00000  Uiso   1.00
C146   C     0.05103   0.54121   0.20625   0.00000  Uiso   1.00
C147   C     0.47654   0.50035   0.16652   0.00000  Uiso   1.00
C148   C     0.02346   0.49965   0.16682   0.00000  Uiso   1.00
C149   C     0.45732   0.54268   0.20548   0.00000  Uiso   1.00
C150   C     0.04268   0.45732   0.12786   0.00000  Uiso   1.00
C151   C     0.46846   0.41728   0.08861   0.00000  Uiso   1.00
C152   C     0.03154   0.58272   0.24473   0.00000  Uiso   1.00
C153   C     0.01465   0.41622   0.08947   0.00000  Uiso   1.00
C154   C     0.48535   0.58378   0.24387   0.00000  Uiso   1.00
H155   H     0.44809   0.38509   0.05784   0.00000  Uiso   1.00
H156   H     0.05191   0.61492   0.27550   0.00000  Uiso   1.00
H157   H     0.02800   0.38269   0.05994   0.00000  Uiso   1.00
H158   H     0.47200   0.61730   0.27340   0.00000  Uiso   1.00
C159   C     0.24781   0.34376   0.14239   0.00000  Uiso   1.00
C160   C     0.25219   0.65624   0.19094   0.00000  Uiso   1.00
H161   H     0.24375   0.65283   0.09578   0.00000  Uiso   1.00
H162   H     0.25626   0.34717   0.23755   0.00000  Uiso   1.00
N163   N     0.23745   0.48547   0.01284   0.00000  Uiso   1.00
N164   N     0.26256   0.51453   0.32049   0.00000  Uiso   1.00
N165   N     0.39022   0.58670   0.24223   0.00000  Uiso   1.00
O166   O     0.36366   0.61533   0.21742   0.00000  Uiso   1.00
O167   O     0.39552   0.59491   0.30156   0.00000  Uiso   1.00
N168   N     0.10978   0.41330   0.09111   0.00000  Uiso   1.00
O169   O     0.13635   0.38467   0.11593   0.00000  Uiso   1.00
O170   O     0.10447   0.40508   0.03178   0.00000  Uiso   1.00
O171   O     0.37487   0.41800   0.09007   0.00000  Uiso   1.00
C172   C     0.36672   0.37894   0.12288   0.00000  Uiso   1.00
H173   H     0.39808   0.36090   0.13422   0.00000  Uiso   1.00
H174   H     0.34356   0.34701   0.09366   0.00000  Uiso   1.00
H175   H     0.35036   0.39499   0.16541   0.00000  Uiso   1.00
O176   O     0.12512   0.58201   0.24325   0.00000  Uiso   1.00
C177   C     0.13327   0.62107   0.21043   0.00000  Uiso   1.00
H178   H     0.15636   0.65304   0.23967   0.00000  Uiso   1.00
H179   H     0.10189   0.63904   0.19899   0.00000  Uiso   1.00
H180   H     0.14970   0.60503   0.16796   0.00000  Uiso   1.00
N181   N     0.19449   0.47233   0.31814   0.00000  Uiso   1.00
O182   O     0.18290   0.42337   0.29035   0.00000  Uiso   1.00
O183   O     0.16351   0.50532   0.33157   0.00000  Uiso   1.00
N184   N     0.30550   0.52774   0.01523   0.00000  Uiso   1.00
O185   O     0.31703   0.57672   0.04301   0.00000  Uiso   1.00
O186   O     0.33653   0.49482   0.00181   0.00000  Uiso   1.00
O187   O     0.75326   0.42871   0.20659   0.00000  Uiso   1.00
O188   O     0.74675   0.57129   0.12674   0.00000  Uiso   1.00
O189   O     0.74480   0.41892   0.10279   0.00000  Uiso   1.00
O190   O     0.75520   0.58108   0.23055   0.00000  Uiso   1.00
C191   C     0.74855   0.39992   0.15099   0.00000  Uiso   1.00
C192   C     0.75145   0.60008   0.18235   0.00000  Uiso   1.00
O193   O     0.68936   0.50488   0.21857   0.00000  Uiso   1.00
O194   O     0.81065   0.49512   0.11476   0.00000  Uiso   1.00
O195   O     0.68090   0.49510   0.11477   0.00000  Uiso   1.00
O196   O     0.81910   0.50490   0.21857   0.00000  Uiso   1.00
C197   C     0.66466   0.49908   0.16726   0.00000  Uiso   1.00
C198   C     0.83534   0.50093   0.16608   0.00000  Uiso   1.00
Cu199  Cu    0.75501   0.50579   0.22813   0.00000  Uiso   1.00
Cu200  Cu    0.74500   0.49421   0.10521   0.00000  Uiso   1.00
C201   C     0.91054   0.54344   0.20436   0.00000  Uiso   1.00
C202   C     0.58946   0.45655   0.12898   0.00000  Uiso   1.00
C203   C     0.88354   0.50179   0.16495   0.00000  Uiso   1.00
C204   C     0.61646   0.49821   0.16838   0.00000  Uiso   1.00
C205   C     0.90236   0.45902   0.12742   0.00000  Uiso   1.00
C206   C     0.59764   0.54099   0.20591   0.00000  Uiso   1.00
C207   C     0.94897   0.45879   0.12709   0.00000  Uiso   1.00
C208   C     0.55103   0.54121   0.20625   0.00000  Uiso   1.00
C209   C     0.97654   0.50035   0.16652   0.00000  Uiso   1.00
C210   C     0.52346   0.49965   0.16682   0.00000  Uiso   1.00
C211   C     0.95732   0.54268   0.20548   0.00000  Uiso   1.00
C212   C     0.54268   0.45732   0.12786   0.00000  Uiso   1.00
C213   C     0.96846   0.41728   0.08861   0.00000  Uiso   1.00
C214   C     0.53154   0.58272   0.24473   0.00000  Uiso   1.00
C215   C     0.51465   0.41622   0.08947   0.00000  Uiso   1.00
C216   C     0.98535   0.58378   0.24387   0.00000  Uiso   1.00
H217   H     0.94809   0.38509   0.05784   0.00000  Uiso   1.00
H218   H     0.55191   0.61492   0.27550   0.00000  Uiso   1.00
H219   H     0.52800   0.38269   0.05994   0.00000  Uiso   1.00
H220   H     0.97200   0.61730   0.27340   0.00000  Uiso   1.00
C221   C     0.74781   0.34376   0.14239   0.00000  Uiso   1.00
C222   C     0.75219   0.65624   0.19094   0.00000  Uiso   1.00
H223   H     0.74375   0.65283   0.09578   0.00000  Uiso   1.00
H224   H     0.75626   0.34717   0.23755   0.00000  Uiso   1.00
N225   N     0.73745   0.48547   0.01284   0.00000  Uiso   1.00
N226   N     0.76256   0.51453   0.32049   0.00000  Uiso   1.00
N227   N     0.89022   0.58670   0.24223   0.00000  Uiso   1.00
O228   O     0.86366   0.61533   0.21742   0.00000  Uiso   1.00
O229   O     0.89552   0.59491   0.30156   0.00000  Uiso   1.00
N230   N     0.60978   0.41330   0.09111   0.00000  Uiso   1.00
O231   O     0.63635   0.38467   0.11593   0.00000  Uiso   1.00
O232   O     0.60447   0.40508   0.03178   0.00000  Uiso   1.00
O233   O     0.87487   0.41800   0.09007   0.00000  Uiso   1.00
C234   C     0.86672   0.37894   0.12288   0.00000  Uiso   1.00
H235   H     0.89808   0.36090   0.13422   0.00000  Uiso   1.00
H236   H     0.84356   0.34701   0.09366   0.00000  Uiso   1.00
H237   H     0.85036   0.39499   0.16541   0.00000  Uiso   1.00
O238   O     0.62512   0.58201   0.24325   0.00000  Uiso   1.00
C239   C     0.63327   0.62107   0.21043   0.00000  Uiso   1.00
H240   H     0.65636   0.65304   0.23967   0.00000  Uiso   1.00
H241   H     0.60189   0.63904   0.19899   0.00000  Uiso   1.00
H242   H     0.64970   0.60503   0.16796   0.00000  Uiso   1.00
N243   N     0.69449   0.47233   0.31814   0.00000  Uiso   1.00
O244   O     0.68290   0.42337   0.29035   0.00000  Uiso   1.00
O245   O     0.66351   0.50532   0.33157   0.00000  Uiso   1.00
N246   N     0.80550   0.52774   0.01523   0.00000  Uiso   1.00
O247   O     0.81703   0.57672   0.04301   0.00000  Uiso   1.00
O248   O     0.83653   0.49482   0.00181   0.00000  Uiso   1.00
O249   O     0.25326   0.76204   0.20659   0.00000  Uiso   1.00
O250   O     0.24675   0.90462   0.12674   0.00000  Uiso   1.00
O251   O     0.24480   0.75226   0.10279   0.00000  Uiso   1.00
O252   O     0.25520   0.91441   0.23055   0.00000  Uiso   1.00
C253   C     0.24855   0.73326   0.15099   0.00000  Uiso   1.00
C254   C     0.25145   0.93341   0.18235   0.00000  Uiso   1.00
O255   O     0.18936   0.83821   0.21857   0.00000  Uiso   1.00
O256   O     0.31065   0.82845   0.11476   0.00000  Uiso   1.00
O257   O     0.18090   0.82843   0.11477   0.00000  Uiso   1.00
O258   O     0.31910   0.83824   0.21857   0.00000  Uiso   1.00
C259   C     0.16466   0.83241   0.16726   0.00000  Uiso   1.00
C260   C     0.33534   0.83426   0.16608   0.00000  Uiso   1.00
Cu261  Cu    0.25501   0.83913   0.22813   0.00000  Uiso   1.00
Cu262  Cu    0.24500   0.82754   0.10521   0.00000  Uiso   1.00
C263   C     0.41054   0.87678   0.20436   0.00000  Uiso   1.00
C264   C     0.08946   0.78989   0.12898   0.00000  Uiso   1.00
C265   C     0.38354   0.83512   0.16495   0.00000  Uiso   1.00
C266   C     0.11646   0.83154   0.16838   0.00000  Uiso   1.00
C267   C     0.40236   0.79235   0.12742   0.00000  Uiso   1.00
C268   C     0.09764   0.87432   0.20591   0.00000  Uiso   1.00
C269   C     0.44897   0.79212   0.12709   0.00000  Uiso   1.00
C270   C     0.05103   0.87454   0.20625   0.00000  Uiso   1.00
C271   C     0.47654   0.83368   0.16652   0.00000  Uiso   1.00
C272   C     0.02346   0.83298   0.16682   0.00000  Uiso   1.00
C273   C     0.45732   0.87601   0.20548   0.00000  Uiso   1.00
C274   C     0.04268   0.79065   0.12786   0.00000  Uiso   1.00
C275   C     0.46846   0.75061   0.08861   0.00000  Uiso   1.00
C276   C     0.03154   0.91605   0.24473   0.00000  Uiso   1.00
C277   C     0.01465   0.74955   0.08947   0.00000  Uiso   1.00
C278   C     0.48535   0.91711   0.24387   0.00000  Uiso   1.00
H279   H     0.44809   0.71842   0.05784   0.00000  Uiso   1.00
H280   H     0.05191   0.94825   0.27550   0.00000  Uiso   1.00
H281   H     0.02800   0.71603   0.05994   0.00000  Uiso   1.00
H282   H     0.47200   0.95064   0.27340   0.00000  Uiso   1.00
C283   C     0.24781   0.67709   0.14239   0.00000  Uiso   1.00
C284   C     0.25219   0.98957   0.19094   0.00000  Uiso   1.00
H285   H     0.24375   0.98617   0.09578   0.00000  Uiso   1.00
H286   H     0.25626   0.68050   0.23755   0.00000  Uiso   1.00
N287   N     0.23745   0.81881   0.01284   0.00000  Uiso   1.00
N288   N     0.26256   0.84786   0.32049   0.00000  Uiso   1.00
N289   N     0.39022   0.92003   0.24223   0.00000  Uiso   1.00
O290   O     0.36366   0.94867   0.21742   0.00000  Uiso   1.00
O291   O     0.39552   0.92824   0.30156   0.00000  Uiso   1.00
N292   N     0.10978   0.74663   0.09111   0.00000  Uiso   1.00
O293   O     0.13635   0.71800   0.11593   0.00000  Uiso   1.00
O294   O     0.10447   0.73841   0.03178   0.00000  Uiso   1.00
O295   O     0.37487   0.75134   0.09007   0.00000  Uiso   1.00
C296   C     0.36672   0.71227   0.12288   0.00000  Uiso   1.00
H297   H     0.39808   0.69423   0.13422   0.00000  Uiso   1.00
H298   H     0.34356   0.68035   0.09366   0.00000  Uiso   1.00
H299   H     0.35036   0.72832   0.16541   0.00000  Uiso   1.00
O300   O     0.12512   0.91534   0.24325   0.00000  Uiso   1.00
C301   C     0.13327   0.95440   0.21043   0.00000  Uiso   1.00
H302   H     0.15636   0.98638   0.23967   0.00000  Uiso   1.00
H303   H     0.10189   0.97237   0.19899   0.00000  Uiso   1.00
H304   H     0.14970   0.93836   0.16796   0.00000  Uiso   1.00
N305   N     0.19449   0.80566   0.31814   0.00000  Uiso   1.00
O306   O     0.18290   0.75670   0.29035   0.00000  Uiso   1.00
O307   O     0.16351   0.83865   0.33157   0.00000  Uiso   1.00
N308   N     0.30550   0.86107   0.01523   0.00000  Uiso   1.00
O309   O     0.31703   0.91006   0.04301   0.00000  Uiso   1.00
O310   O     0.33653   0.82815   0.00181   0.00000  Uiso   1.00
O311   O     0.75326   0.76204   0.20659   0.00000  Uiso   1.00
O312   O     0.74675   0.90462   0.12674   0.00000  Uiso   1.00
O313   O     0.74480   0.75226   0.10279   0.00000  Uiso   1.00
O314   O     0.75520   0.91441   0.23055   0.00000  Uiso   1.00
C315   C     0.74855   0.73326   0.15099   0.00000  Uiso   1.00
C316   C     0.75145   0.93341   0.18235   0.00000  Uiso   1.00
O317   O     0.68936   0.83821   0.21857   0.00000  Uiso   1.00
O318   O     0.81065   0.82845   0.11476   0.00000  Uiso   1.00
O319   O     0.68090   0.82843   0.11477   0.00000  Uiso   1.00
O320   O     0.81910   0.83824   0.21857   0.00000  Uiso   1.00
C321   C     0.66466   0.83241   0.16726   0.00000  Uiso   1.00
C322   C     0.83534   0.83426   0.16608   0.00000  Uiso   1.00
Cu323  Cu    0.75501   0.83913   0.22813   0.00000  Uiso   1.00
Cu324  Cu    0.74500   0.82754   0.10521   0.00000  Uiso   1.00
C325   C     0.91054   0.87678   0.20436   0.00000  Uiso   1.00
C326   C     0.58946   0.78989   0.12898   0.00000  Uiso   1.00
C327   C     0.88354   0.83512   0.16495   0.00000  Uiso   1.00
C328   C     0.61646   0.83154   0.16838   0.00000  Uiso   1.00
C329   C     0.90236   0.79235   0.12742   0.00000  Uiso   1.00
C330   C     0.59764   0.87432   0.20591   0.00000  Uiso   1.00
C331   C     0.94897   0.79212   0.12709   0.00000  Uiso   1.00
C332   C     0.55103   0.87454   0.20625   0.00000  Uiso   1.00
C333   C     0.97654   0.83368   0.16652   0.00000  Uiso   1.00
C334   C     0.52346   0.83298   0.16682   0.00000  Uiso   1.00
C335   C     0.95732   0.87601   0.20548   0.00000  Uiso   1.00
C336   C     0.54268   0.79065   0.12786   0.00000  Uiso   1.00
C337   C     0.96846   0.75061   0.08861   0.00000  Uiso   1.00
C338   C     0.53154   0.91605   0.24473   0.00000  Uiso   1.00
C339   C     0.51465   0.74955   0.08947   0.00000  Uiso   1.00
C340   C     0.98535   0.91711   0.24387   0.00000  Uiso   1.00
H341   H     0.94809   0.71842   0.05784   0.00000  Uiso   1.00
H342   H     0.55191   0.94825   0.27550   0.00000  Uiso   1.00
H343   H     0.52800   0.71603   0.05994   0.00000  Uiso   1.00
H344   H     0.97200   0.95064   0.27340   0.00000  Uiso   1.00
C345   C     0.74781   0.67709   0.14239   0.00000  Uiso   1.00
C346   C     0.75219   0.98957   0.19094   0.00000  Uiso   1.00
H347   H     0.74375   0.98617   0.09578   0.00000  Uiso   1.00
H348   H     0.75626   0.68050   0.23755   0.00000  Uiso   1.00
N349   N     0.73745   0.81881   0.01284   0.00000  Uiso   1.00
N350   N     0.76256   0.84786   0.32049   0.00000  Uiso   1.00
N351   N     0.89022   0.92003   0.24223   0.00000  Uiso   1.00
O352   O     0.86366   0.94867   0.21742   0.00000  Uiso   1.00
O353   O     0.89552   0.92824   0.30156   0.00000  Uiso   1.00
N354   N     0.60978   0.74663   0.09111   0.00000  Uiso   1.00
O355   O     0.63635   0.71800   0.11593   0.00000  Uiso   1.00
O356   O     0.60447   0.73841   0.03178   0.00000  Uiso   1.00
O357   O     0.87487   0.75134   0.09007   0.00000  Uiso   1.00
C358   C     0.86672   0.71227   0.12288   0.00000  Uiso   1.00
H359   H     0.89808   0.69423   0.13422   0.00000  Uiso   1.00
H360   H     0.84356   0.68035   0.09366   0.00000  Uiso   1.00
H361   H     0.85036   0.72832   0.16541   0.00000  Uiso   1.00
O362   O     0.62512   0.91534   0.24325   0.00000  Uiso   1.00
C363   C     0.63327   0.95440   0.21043   0.00000  Uiso   1.00
H364   H     0.65636   0.98638   0.23967   0.00000  Uiso   1.00
H365   H     0.60189   0.97237   0.19899   0.00000  Uiso   1.00
H366   H     0.64970   0.93836   0.16796   0.00000  Uiso   1.00
N367   N     0.69449   0.80566   0.31814   0.00000  Uiso   1.00
O368   O     0.68290   0.75670   0.29035   0.00000  Uiso   1.00
O369   O     0.66351   0.83865   0.33157   0.00000  Uiso   1.00
N370   N     0.80550   0.86107   0.01523   0.00000  Uiso   1.00
O371   O     0.81703   0.91006   0.04301   0.00000  Uiso   1.00
O372   O     0.83653   0.82815   0.00181   0.00000  Uiso   1.00
O373   O     0.25326   0.09538   0.53992   0.00000  Uiso   1.00
O374   O     0.24675   0.23796   0.46008   0.00000  Uiso   1.00
O375   O     0.24480   0.08559   0.43612   0.00000  Uiso   1.00
O376   O     0.25520   0.24774   0.56388   0.00000  Uiso   1.00
C377   C     0.24855   0.06659   0.48432   0.00000  Uiso   1.00
C378   C     0.25145   0.26674   0.51568   0.00000  Uiso   1.00
O379   O     0.18936   0.17155   0.55191   0.00000  Uiso   1.00
O380   O     0.31065   0.16179   0.44809   0.00000  Uiso   1.00
O381   O     0.18090   0.16176   0.44810   0.00000  Uiso   1.00
O382   O     0.31910   0.17157   0.55190   0.00000  Uiso   1.00
C383   C     0.16466   0.16574   0.50059   0.00000  Uiso   1.00
C384   C     0.33534   0.16759   0.49941   0.00000  Uiso   1.00
Cu385  Cu    0.25501   0.17246   0.56146   0.00000  Uiso   1.00
Cu386  Cu    0.24500   0.16087   0.43854   0.00000  Uiso   1.00
C387   C     0.41054   0.21011   0.53769   0.00000  Uiso   1.00
C388   C     0.08946   0.12322   0.46231   0.00000  Uiso   1.00
C389   C     0.38354   0.16846   0.49829   0.00000  Uiso   1.00
C390   C     0.11646   0.16488   0.50172   0.00000  Uiso   1.00
C391   C     0.40236   0.12568   0.46075   0.00000  Uiso   1.00
C392   C     0.09764   0.20765   0.53925   0.00000  Uiso   1.00
C393   C     0.44897   0.12545   0.46042   0.00000  Uiso   1.00
C394   C     0.05103   0.20788   0.53958   0.00000  Uiso   1.00
C395   C     0.47654   0.16701   0.49986   0.00000  Uiso   1.00
C396   C     0.02346   0.16632   0.50015   0.00000  Uiso   1.00
C397   C     0.45732   0.20935   0.53882   0.00000  Uiso   1.00
C398   C     0.04268   0.12398   0.46119   0.00000  Uiso   1.00
C399   C     0.46846   0.08395   0.42194   0.00000  Uiso   1.00
C400   C     0.03154   0.24938   0.57806   0.00000  Uiso   1.00
C401   C     0.01465   0.08288   0.42281   0.00000  Uiso   1.00
C402   C     0.48535   0.25045   0.57720   0.00000  Uiso   1.00
H403   H     0.44809   0.05175   0.39117   0.00000  Uiso   1.00
H404   H     0.05191   0.28158   0.60883   0.00000  Uiso   1.00
H405   H     0.02800   0.04936   0.39327   0.00000  Uiso   1.00
H406   H     0.47200   0.28397   0.60674   0.00000  Uiso   1.00
C407   C     0.24781   0.01043   0.47572   0.00000  Uiso   1.00
C408   C     0.25219   0.32291   0.52428   0.00000  Uiso   1.00
H409   H     0.24375   0.31950   0.42912   0.00000  Uiso   1.00
H410   H     0.25626   0.01383   0.57088   0.00000  Uiso   1.00
N411   N     0.23745   0.15214   0.34617   0.00000  Uiso   1.00
N412   N     0.26256   0.18119   0.65383   0.00000  Uiso   1.00
N413   N     0.39022   0.25336   0.57556   0.00000  Uiso   1.00
O414   O     0.36366   0.28200   0.55075   0.00000  Uiso   1.00
O415   O     0.39552   0.26158   0.63489   0.00000  Uiso   1.00
N416   N     0.10978   0.07997   0.42445   0.00000  Uiso   1.00
O417   O     0.13635   0.05134   0.44926   0.00000  Uiso   1.00
O418   O     0.10447   0.07175   0.36511   0.00000  Uiso   1.00
O419   O     0.37487   0.08467   0.42340   0.00000  Uiso   1.00
C420   C     0.36672   0.04561   0.45621   0.00000  Uiso   1.00
H421   H     0.39808   0.02757   0.46755   0.00000  Uiso   1.00
H422   H     0.34356   0.01368   0.42700   0.00000  Uiso   1.00
H423   H     0.35036   0.06166   0.49874   0.00000  Uiso   1.00
O424   O     0.12512   0.24867   0.57659   0.00000  Uiso   1.00
C425   C     0.13327   0.28773   0.54376   0.00000  Uiso   1.00
H426   H     0.15636   0.31971   0.57301   0.00000  Uiso   1.00
H427   H     0.10189   0.30570   0.53232   0.00000  Uiso   1.00
H428   H     0.14970   0.27170   0.50129   0.00000  Uiso   1.00
N429   N     0.19449   0.13899   0.65148   0.00000  Uiso   1.00
O430   O     0.18290   0.09003   0.62369   0.00000  Uiso   1.00
O431   O     0.16351   0.17198   0.66490   0.00000  Uiso   1.00
N432   N     0.30550   0.19441   0.34856   0.00000  Uiso   1.00
O433   O     0.31703   0.24339   0.37635   0.00000  Uiso   1.00
O434   O     0.33653   0.16148   0.33514   0.00000  Uiso   1.00
O435   O     0.75326   0.09538   0.53992   0.00000  Uiso   1.00
O436   O     0.74675   0.23796   0.46008   0.00000  Uiso   1.00
O437   O     0.74480   0.08559   0.43612   0.00000  Uiso   1.00
O438   O     0.75520   0.24774   0.56388   0.00000  Uiso   1.00
C439   C     0.74855   0.06659   0.48432   0.00000  Uiso   1.00
C440   C     0.75145   0.26674   0.51568   0.00000  Uiso   1.00
O441   O     0.68936   0.17155   0.55191   0.00000  Uiso   1.00
O442   O     0.81065   0.16179   0.44809   0.00000  Uiso   1.00
O443   O     0.68090   0.16176   0.44810   0.00000  Uiso   1.00
O444   O     0.81910   0.17157   0.55190   0.00000  Uiso   1.00
C445   C     0.66466   0.16574   0.50059   0.00000  Uiso   1.00
C446   C     0.83534   0.16759   0.49941   0.00000  Uiso   1.00
Cu447  Cu    0.75501   0.17246   0.56146   0.00000  Uiso   1.00
Cu448  Cu    0.74500   0.16087   0.43854   0.00000  Uiso   1.00
C449   C     0.91054   0.21011   0.53769   0.00000  Uiso   1.00
C450   C     0.58946   0.12322   0.46231   0.00000  Uiso   1.00
C451   C     0.88354   0.16846   0.49829   0.00000  Uiso   1.00
C452   C     0.61646   0.16488   0.50172   0.00000  Uiso   1.00
C453   C     0.90236   0.12568   0.46075   0.00000  Uiso   1.00
C454   C     0.59764   0.20765   0.53925   0.00000  Uiso   1.00
C455   C     0.94897   0.12545   0.46042   0.00000  Uiso   1.00
C456   C     0.55103   0.20788   0.53958   0.00000  Uiso   1.00
C457   C     0.97654   0.16701   0.49986   0.00000  Uiso   1.00
C458   C     0.52346   0.16632   0.50015   0.00000  Uiso   1.00
C459   C     0.95732   0.20935   0.53882   0.00000  Uiso   1.00
C460   C     0.54268   0.12398   0.46119   0.00000  Uiso   1.00
C461   C     0.96846   0.08395   0.42194   0.00000  Uiso   1.00
C462   C     0.53154   0.24938   0.57806   0.00000  Uiso   1.00
C463   C     0.51465   0.08288   0.42281   0.00000  Uiso   1.00
C464   C     0.98535   0.25045   0.57720   0.00000  Uiso   1.00
H465   H     0.94809   0.05175   0.39117   0.00000  Uiso   1.00
H466   H     0.55191   0.28158   0.60883   0.00000  Uiso   1.00
H467   H     0.52800   0.04936   0.39327   0.00000  Uiso   1.00
H468   H     0.97200   0.28397   0.60674   0.00000  Uiso   1.00
C469   C     0.74781   0.01043   0.47572   0.00000  Uiso   1.00
C470   C     0.75219   0.32291   0.52428   0.00000  Uiso   1.00
H471   H     0.74375   0.31950   0.42912   0.00000  Uiso   1.00
H472   H     0.75626   0.01383   0.57088   0.00000  Uiso   1.00
N473   N     0.73745   0.15214   0.34617   0.00000  Uiso   1.00
N474   N     0.76256   0.18119   0.65383   0.00000  Uiso   1.00
N475   N     0.89022   0.25336   0.57556   0.00000  Uiso   1.00
O476   O     0.86366   0.28200   0.55075   0.00000  Uiso   1.00
O477   O     0.89552   0.26158   0.63489   0.00000  Uiso   1.00
N478   N     0.60978   0.07997   0.42445   0.00000  Uiso   1.00
O479   O     0.63635   0.05134   0.44926   0.00000  Uiso   1.00
O480   O     0.60447   0.07175   0.36511   0.00000  Uiso   1.00
O481   O     0.87487   0.08467   0.42340   0.00000  Uiso   1.00
C482   C     0.86672   0.04561   0.45621   0.00000  Uiso   1.00
H483   H     0.89808   0.02757   0.46755   0.00000  Uiso   1.00
H484   H     0.84356   0.01368   0.42700   0.00000  Uiso   1.00
H485   H     0.85036   0.06166   0.49874   0.00000  Uiso   1.00
O486   O     0.62512   0.24867   0.57659   0.00000  Uiso   1.00
C487   C     0.63327   0.28773   0.54376   0.00000  Uiso   1.00
H488   H     0.65636   0.31971   0.57301   0.00000  Uiso   1.00
H489   H     0.60189   0.30570   0.53232   0.00000  Uiso   1.00
H490   H     0.64970   0.27170   0.50129   0.00000  Uiso   1.00
N491   N     0.69449   0.13899   0.65148   0.00000  Uiso   1.00
O492   O     0.68290   0.09003   0.62369   0.00000  Uiso   1.00
O493   O     0.66351   0.17198   0.66490   0.00000  Uiso   1.00
N494   N     0.80550   0.19441   0.34856   0.00000  Uiso   1.00
O495   O     0.81703   0.24339   0.37635   0.00000  Uiso   1.00
O496   O     0.83653   0.16148   0.33514   0.00000  Uiso   1.00
O497   O     0.25326   0.42871   0.53992   0.00000  Uiso   1.00
O498   O     0.24675   0.57129   0.46008   0.00000  Uiso   1.00
O499   O     0.24480   0.41892   0.43612   0.00000  Uiso   1.00
O500   O     0.25520   0.58108   0.56388   0.00000  Uiso   1.00
C501   C     0.24855   0.39992   0.48432   0.00000  Uiso   1.00
C502   C     0.25145   0.60008   0.51568   0.00000  Uiso   1.00
O503   O     0.18936   0.50488   0.55191   0.00000  Uiso   1.00
O504   O     0.31065   0.49512   0.44809   0.00000  Uiso   1.00
O505   O     0.18090   0.49510   0.44810   0.00000  Uiso   1.00
O506   O     0.31910   0.50490   0.55190   0.00000  Uiso   1.00
C507   C     0.16466   0.49908   0.50059   0.00000  Uiso   1.00
C508   C     0.33534   0.50093   0.49941   0.00000  Uiso   1.00
Cu509  Cu    0.25501   0.50579   0.56146   0.00000  Uiso   1.00
Cu510  Cu    0.24500   0.49421   0.43854   0.00000  Uiso   1.00
C511   C     0.41054   0.54344   0.53769   0.00000  Uiso   1.00
C512   C     0.08946   0.45655   0.46231   0.00000  Uiso   1.00
C513   C     0.38354   0.50179   0.49829   0.00000  Uiso   1.00
C514   C     0.11646   0.49821   0.50172   0.00000  Uiso   1.00
C515   C     0.40236   0.45902   0.46075   0.00000  Uiso   1.00
C516   C     0.09764   0.54099   0.53925   0.00000  Uiso   1.00
C517   C     0.44897   0.45879   0.46042   0.00000  Uiso   1.00
C518   C     0.05103   0.54121   0.53958   0.00000  Uiso   1.00
C519   C     0.47654   0.50035   0.49986   0.00000  Uiso   1.00
C520   C     0.02346   0.49965   0.50015   0.00000  Uiso   1.00
C521   C     0.45732   0.54268   0.53882   0.00000  Uiso   1.00
C522   C     0.04268   0.45732   0.46119   0.00000  Uiso   1.00
C523   C     0.46846   0.41728   0.42194   0.00000  Uiso   1.00
C524   C     0.03154   0.58272   0.57806   0.00000  Uiso   1.00
C525   C     0.01465   0.41622   0.42281   0.00000  Uiso   1.00
C526   C     0.48535   0.58378   0.57720   0.00000  Uiso   1.00
H527   H     0.44809   0.38509   0.39117   0.00000  Uiso   1.00
H528   H     0.05191   0.61492   0.60883   0.00000  Uiso   1.00
H529   H     0.02800   0.38269   0.39327   0.00000  Uiso   1.00
H530   H     0.47200   0.61730   0.60674   0.00000  Uiso   1.00
C531   C     0.24781   0.34376   0.47572   0.00000  Uiso   1.00
C532   C     0.25219   0.65624   0.52428   0.00000  Uiso   1.00
H533   H     0.24375   0.65283   0.42912   0.00000  Uiso   1.00
H534   H     0.25626   0.34717   0.57088   0.00000  Uiso   1.00
N535   N     0.23745   0.48547   0.34617   0.00000  Uiso   1.00
N536   N     0.26256   0.51453   0.65383   0.00000  Uiso   1.00
N537   N     0.39022   0.58670   0.57556   0.00000  Uiso   1.00
O538   O     0.36366   0.61533   0.55075   0.00000  Uiso   1.00
O539   O     0.39552   0.59491   0.63489   0.00000  Uiso   1.00
N540   N     0.10978   0.41330   0.42445   0.00000  Uiso   1.00
O541   O     0.13635   0.38467   0.44926   0.00000  Uiso   1.00
O542   O     0.10447   0.40508   0.36511   0.00000  Uiso   1.00
O543   O     0.37487   0.41800   0.42340   0.00000  Uiso   1.00
C544   C     0.36672   0.37894   0.45621   0.00000  Uiso   1.00
H545   H     0.39808   0.36090   0.46755   0.00000  Uiso   1.00
H546   H     0.34356   0.34701   0.42700   0.00000  Uiso   1.00
H547   H     0.35036   0.39499   0.49874   0.00000  Uiso   1.00
O548   O     0.12512   0.58201   0.57659   0.00000  Uiso   1.00
C549   C     0.13327   0.62107   0.54376   0.00000  Uiso   1.00
H550   H     0.15636   0.65304   0.57301   0.00000  Uiso   1.00
H551   H     0.10189   0.63904   0.53232   0.00000  Uiso   1.00
H552   H     0.14970   0.60503   0.50129   0.00000  Uiso   1.00
N553   N     0.19449   0.47233   0.65148   0.00000  Uiso   1.00
O554   O     0.18290   0.42337   0.62369   0.00000  Uiso   1.00
O555   O     0.16351   0.50532   0.66490   0.00000  Uiso   1.00
N556   N     0.30550   0.52774   0.34856   0.00000  Uiso   1.00
O557   O     0.31703   0.57672   0.37635   0.00000  Uiso   1.00
O558   O     0.33653   0.49482   0.33514   0.00000  Uiso   1.00
O559   O     0.75326   0.42871   0.53992   0.00000  Uiso   1.00
O560   O     0.74675   0.57129   0.46008   0.00000  Uiso   1.00
O561   O     0.74480   0.41892   0.43612   0.00000  Uiso   1.00
O562   O     0.75520   0.58108   0.56388   0.00000  Uiso   1.00
C563   C     0.74855   0.39992   0.48432   0.00000  Uiso   1.00
C564   C     0.75145   0.60008   0.51568   0.00000  Uiso   1.00
O565   O     0.68936   0.50488   0.55191   0.00000  Uiso   1.00
O566   O     0.81065   0.49512   0.44809   0.00000  Uiso   1.00
O567   O     0.68090   0.49510   0.44810   0.00000  Uiso   1.00
O568   O     0.81910   0.50490   0.55190   0.00000  Uiso   1.00
C569   C     0.66466   0.49908   0.50059   0.00000  Uiso   1.00
C570   C     0.83534   0.50093   0.49941   0.00000  Uiso   1.00
Cu571  Cu    0.75501   0.50579   0.56146   0.00000  Uiso   1.00
Cu572  Cu    0.74500   0.49421   0.43854   0.00000  Uiso   1.00
C573   C     0.91054   0.54344   0.53769   0.00000  Uiso   1.00
C574   C     0.58946   0.45655   0.46231   0.00000  Uiso   1.00
C575   C     0.88354   0.50179   0.49829   0.00000  Uiso   1.00
C576   C     0.61646   0.49821   0.50172   0.00000  Uiso   1.00
C577   C     0.90236   0.45902   0.46075   0.00000  Uiso   1.00
C578   C     0.59764   0.54099   0.53925   0.00000  Uiso   1.00
C579   C     0.94897   0.45879   0.46042   0.00000  Uiso   1.00
C580   C     0.55103   0.54121   0.53958   0.00000  Uiso   1.00
C581   C     0.97654   0.50035   0.49986   0.00000  Uiso   1.00
C582   C     0.52346   0.49965   0.50015   0.00000  Uiso   1.00
C583   C     0.95732   0.54268   0.53882   0.00000  Uiso   1.00
C584   C     0.54268   0.45732   0.46119   0.00000  Uiso   1.00
C585   C     0.96846   0.41728   0.42194   0.00000  Uiso   1.00
C586   C     0.53154   0.58272   0.57806   0.00000  Uiso   1.00
C587   C     0.51465   0.41622   0.42281   0.00000  Uiso   1.00
C588   C     0.98535   0.58378   0.57720   0.00000  Uiso   1.00
H589   H     0.94809   0.38509   0.39117   0.00000  Uiso   1.00
H590   H     0.55191   0.61492   0.60883   0.00000  Uiso   1.00
H591   H     0.52800   0.38269   0.39327   0.00000  Uiso   1.00
H592   H     0.97200   0.61730   0.60674   0.00000  Uiso   1.00
C593   C     0.74781   0.34376   0.47572   0.00000  Uiso   1.00
C594   C     0.75219   0.65624   0.52428   0.00000  Uiso   1.00
H595   H     0.74375   0.65283   0.42912   0.00000  Uiso   1.00
H596   H     0.75626   0.34717   0.57088   0.00000  Uiso   1.00
N597   N     0.73745   0.48547   0.34617   0.00000  Uiso   1.00
N598   N     0.76256   0.51453   0.65383   0.00000  Uiso   1.00
N599   N     0.89022   0.58670   0.57556   0.00000  Uiso   1.00
O600   O     0.86366   0.61533   0.55075   0.00000  Uiso   1.00
O601   O     0.89552   0.59491   0.63489   0.00000  Uiso   1.00
N602   N     0.60978   0.41330   0.42445   0.00000  Uiso   1.00
O603   O     0.63635   0.38467   0.44926   0.00000  Uiso   1.00
O604   O     0.60447   0.40508   0.36511   0.00000  Uiso   1.00
O605   O     0.87487   0.41800   0.42340   0.00000  Uiso   1.00
C606   C     0.86672   0.37894   0.45621   0.00000  Uiso   1.00
H607   H     0.89808   0.36090   0.46755   0.00000  Uiso   1.00
H608   H     0.84356   0.34701   0.42700   0.00000  Uiso   1.00
H609   H     0.85036   0.39499   0.49874   0.00000  Uiso   1.00
O610   O     0.62512   0.58201   0.57659   0.00000  Uiso   1.00
C611   C     0.63327   0.62107   0.54376   0.00000  Uiso   1.00
H612   H     0.65636   0.65304   0.57301   0.00000  Uiso   1.00
H613   H     0.60189   0.63904   0.53232   0.00000  Uiso   1.00
H614   H     0.64970   0.60503   0.50129   0.00000  Uiso   1.00
N615   N     0.69449   0.47233   0.65148   0.00000  Uiso   1.00
O616   O     0.68290   0.42337   0.62369   0.00000  Uiso   1.00
O617   O     0.66351   0.50532   0.66490   0.00000  Uiso   1.00
N618   N     0.80550   0.52774   0.34856   0.00000  Uiso   1.00
O619   O     0.81703   0.57672   0.37635   0.00000  Uiso   1.00
O620   O     0.83653   0.49482   0.33514   0.00000  Uiso   1.00
O621   O     0.25326   0.76204   0.53992   0.00000  Uiso   1.00
O622   O     0.24675   0.90462   0.46008   0.00000  Uiso   1.00
O623   O     0.24480   0.75226   0.43612   0.00000  Uiso   1.00
O624   O     0.25520   0.91441   0.56388   0.00000  Uiso   1.00
C625   C     0.24855   0.73326   0.48432   0.00000  Uiso   1.00
C626   C     0.25145   0.93341   0.51568   0.00000  Uiso   1.00
O627   O     0.18936   0.83821   0.55191   0.00000  Uiso   1.00
O628   O     0.31065   0.82845   0.44809   0.00000  Uiso   1.00
O629   O     0.18090   0.82843   0.44810   0.00000  Uiso   1.00
O630   O     0.31910   0.83824   0.55190   0.00000  Uiso   1.00
C631   C     0.16466   0.83241   0.50059   0.00000  Uiso   1.00
C632   C     0.33534   0.83426   0.49941   0.00000  Uiso   1.00
Cu633  Cu    0.25501   0.83913   0.56146   0.00000  Uiso   1.00
Cu634  Cu    0.24500   0.82754   0.43854   0.00000  Uiso   1.00
C635   C     0.41054   0.87678   0.53769   0.00000  Uiso   1.00
C636   C     0.08946   0.78989   0.46231   0.00000  Uiso   1.00
C637   C     0.38354   0.83512   0.49829   0.00000  Uiso   1.00
C638   C     0.11646   0.83154   0.50172   0.00000  Uiso   1.00
C639   C     0.40236   0.79235   0.46075   0.00000  Uiso   1.00
C640   C     0.09764   0.87432   0.53925   0.00000  Uiso   1.00
C641   C     0.44897   0.79212   0.46042   0.00000  Uiso   1.00
C642   C     0.05103   0.87454   0.53958   0.00000  Uiso   1.00
C643   C     0.47654   0.83368   0.49986   0.00000  Uiso   1.00
C644   C     0.02346   0.83298   0.50015   0.00000  Uiso   1.00
C645   C     0.45732   0.87601   0.53882   0.00000  Uiso   1.00
C646   C     0.04268   0.79065   0.46119   0.00000  Uiso   1.00
C647   C     0.46846   0.75061   0.42194   0.00000  Uiso   1.00
C648   C     0.03154   0.91605   0.57806   0.00000  Uiso   1.00
C649   C     0.01465   0.74955   0.42281   0.00000  Uiso   1.00
C650   C     0.48535   0.91711   0.57720   0.00000  Uiso   1.00
H651   H     0.44809   0.71842   0.39117   0.00000  Uiso   1.00
H652   H     0.05191   0.94825   0.60883   0.00000  Uiso   1.00
H653   H     0.02800   0.71603   0.39327   0.00000  Uiso   1.00
H654   H     0.47200   0.95064   0.60674   0.00000  Uiso   1.00
C655   C     0.24781   0.67709   0.47572   0.00000  Uiso   1.00
C656   C     0.25219   0.98957   0.52428   0.00000  Uiso   1.00
H657   H     0.24375   0.98617   0.42912   0.00000  Uiso   1.00
H658   H     0.25626   0.68050   0.57088   0.00000  Uiso   1.00
N659   N     0.23745   0.81881   0.34617   0.00000  Uiso   1.00
N660   N     0.26256   0.84786   0.65383   0.00000  Uiso   1.00
N661   N     0.39022   0.92003   0.57556   0.00000  Uiso   1.00
O662   O     0.36366   0.94867   0.55075   0.00000  Uiso   1.00
O663   O     0.39552   0.92824   0.63489   0.00000  Uiso   1.00
N664   N     0.10978   0.74663   0.42445   0.00000  Uiso   1.00
O665   O     0.13635   0.71800   0.44926   0.00000  Uiso   1.00
O666   O     0.10447   0.73841   0.36511   0.00000  Uiso   1.00
O667   O     0.37487   0.75134   0.42340   0.00000  Uiso   1.00
C668   C     0.36672   0.71227   0.45621   0.00000  Uiso   1.00
H669   H     0.39808   0.69423   0.46755   0.00000  Uiso   1.00
H670   H     0.34356   0.68035   0.42700   0.00000  Uiso   1.00
H671   H     0.35036   0.72832   0.49874   0.00000  Uiso   1.00
O672   O     0.12512   0.91534   0.57659   0.00000  Uiso   1.00
C673   C     0.13327   0.95440   0.54376   0.00000  Uiso   1.00
H674   H     0.15636   0.98638   0.57301   0.00000  Uiso   1.00
H675   H     0.10189   0.97237   0.53232   0.00000  Uiso   1.00
H676   H     0.14970   0.93836   0.50129   0.00000  Uiso   1.00
N677   N     0.19449   0.80566   0.65148   0.00000  Uiso   1.00
O678   O     0.18290   0.75670   0.62369   0.00000  Uiso   1.00
O679   O     0.16351   0.83865   0.66490   0.00000  Uiso   1.00
N680   N     0.30550   0.86107   0.34856   0.00000  Uiso   1.00
O681   O     0.31703   0.91006   0.37635   0.00000  Uiso   1.00
O682   O     0.33653   0.82815   0.33514   0.00000  Uiso   1.00
O683   O     0.75326   0.76204   0.53992   0.00000  Uiso   1.00
O684   O     0.74675   0.90462   0.46008   0.00000  Uiso   1.00
O685   O     0.74480   0.75226   0.43612   0.00000  Uiso   1.00
O686   O     0.75520   0.91441   0.56388   0.00000  Uiso   1.00
C687   C     0.74855   0.73326   0.48432   0.00000  Uiso   1.00
C688   C     0.75145   0.93341   0.51568   0.00000  Uiso   1.00
O689   O     0.68936   0.83821   0.55191   0.00000  Uiso   1.00
O690   O     0.81065   0.82845   0.44809   0.00000  Uiso   1.00
O691   O     0.68090   0.82843   0.44810   0.00000  Uiso   1.00
O692   O     0.81910   0.83824   0.55190   0.00000  Uiso   1.00
C693   C     0.66466   0.83241   0.50059   0.00000  Uiso   1.00
C694   C     0.83534   0.83426   0.49941   0.00000  Uiso   1.00
Cu695  Cu    0.75501   0.83913   0.56146   0.00000  Uiso   1.00
Cu696  Cu    0.74500   0.82754   0.43854   0.00000  Uiso   1.00
C697   C     0.91054   0.87678   0.53769   0.00000  Uiso   1.00
C698   C     0.58946   0.78989   0.46231   0.00000  Uiso   1.00
C699   C     0.88354   0.83512   0.49829   0.00000  Uiso   1.00
C700   C     0.61646   0.83154   0.50172   0.00000  Uiso   1.00
C701   C     0.90236   0.79235   0.46075   0.00000  Uiso   1.00
C702   C     0.59764   0.87432   0.53925   0.00000  Uiso   1.00
C703   C     0.94897   0.79212   0.46042   0.00000  Uiso   1.00
C704   C     0.55103   0.87454   0.53958   0.00000  Uiso   1.00
C705   C     0.97654   0.83368   0.49986   0.00000  Uiso   1.00
C706   C     0.52346   0.83298   0.50015   0.00000  Uiso   1.00
C707   C     0.95732   0.87601   0.53882   0.00000  Uiso   1.00
C708   C     0.54268   0.79065   0.46119   0.00000  Uiso   1.00
C709   C     0.96846   0.75061   0.42194   0.00000  Uiso   1.00
C710   C     0.53154   0.91605   0.57806   0.00000  Uiso   1.00
C711   C     0.51465   0.74955   0.42281   0.00000  Uiso   1.00
C712   C     0.98535   0.91711   0.57720   0.00000  Uiso   1.00
H713   H     0.94809   0.71842   0.39117   0.00000  Uiso   1.00
H714   H     0.55191   0.94825   0.60883   0.00000  Uiso   1.00
H715   H     0.52800   0.71603   0.39327   0.00000  Uiso   1.00
H716   H     0.97200   0.95064   0.60674   0.00000  Uiso   1.00
C717   C     0.74781   0.67709   0.47572   0.00000  Uiso   1.00
C718   C     0.75219   0.98957   0.52428   0.00000  Uiso   1.00
H719   H     0.74375   0.98617   0.42912   0.00000  Uiso   1.00
H720   H     0.75626   0.68050   0.57088   0.00000  Uiso   1.00
N721   N     0.73745   0.81881   0.34617   0.00000  Uiso   1.00
N722   N     0.76256   0.84786   0.65383   0.00000  Uiso   1.00
N723   N     0.89022   0.92003   0.57556   0.00000  Uiso   1.00
O724   O     0.86366   0.94867   0.55075   0.00000  Uiso   1.00
O725   O     0.89552   0.92824   0.63489   0.00000  Uiso   1.00
N726   N     0.60978   0.74663   0.42445   0.00000  Uiso   1.00
O727   O     0.63635   0.71800   0.44926   0.00000  Uiso   1.00
O728   O     0.60447   0.73841   0.36511   0.00000  Uiso   1.00
O729   O     0.87487   0.75134   0.42340   0.00000  Uiso   1.00
C730   C     0.86672   0.71227   0.45621   0.00000  Uiso   1.00
H731   H     0.89808   0.69423   0.46755   0.00000  Uiso   1.00
H732   H     0.84356   0.68035   0.42700   0.00000  Uiso   1.00
H733   H     0.85036   0.72832   0.49874   0.00000  Uiso   1.00
O734   O     0.62512   0.91534   0.57659   0.00000  Uiso   1.00
C735   C     0.63327   0.95440   0.54376   0.00000  Uiso   1.00
H736   H     0.65636   0.98638   0.57301   0.00000  Uiso   1.00
H737   H     0.60189   0.97237   0.53232   0.00000  Uiso   1.00
H738   H     0.64970   0.93836   0.50129   0.00000  Uiso   1.00
N739   N     0.69449   0.80566   0.65148   0.00000  Uiso   1.00
O740   O     0.68290   0.75670   0.62369   0.00000  Uiso   1.00
O741   O     0.66351   0.83865   0.66490   0.00000  Uiso   1.00
N742   N     0.80550   0.86107   0.34856   0.00000  Uiso   1.00
O743   O     0.81703   0.91006   0.37635   0.00000  Uiso   1.00
O744   O     0.83653   0.82815   0.33514   0.00000  Uiso   1.00
O745   O     0.25326   0.09538   0.87326   0.00000  Uiso   1.00
O746   O     0.24675   0.23796   0.79341   0.00000  Uiso   1.00
O747   O     0.24480   0.08559   0.76945   0.00000  Uiso   1.00
O748   O     0.25520   0.24774   0.89721   0.00000  Uiso   1.00
C749   C     0.24855   0.06659   0.81766   0.00000  Uiso   1.00
C750   C     0.25145   0.26674   0.84901   0.00000  Uiso   1.00
O751   O     0.18936   0.17155   0.88524   0.00000  Uiso   1.00
O752   O     0.31065   0.16179   0.78143   0.00000  Uiso   1.00
O753   O     0.18090   0.16176   0.78143   0.00000  Uiso   1.00
O754   O     0.31910   0.17157   0.88523   0.00000  Uiso   1.00
C755   C     0.16466   0.16574   0.83393   0.00000  Uiso   1.00
C756   C     0.33534   0.16759   0.83274   0.00000  Uiso   1.00
Cu757  Cu    0.25501   0.17246   0.89479   0.00000  Uiso   1.00
Cu758  Cu    0.24500   0.16087   0.77187   0.00000  Uiso   1.00
C759   C     0.41054   0.21011   0.87103   0.00000  Uiso   1.00
C760   C     0.08946   0.12322   0.79564   0.00000  Uiso   1.00
C761   C     0.38354   0.16846   0.83162   0.00000  Uiso   1.00
C762   C     0.11646   0.16488   0.83505   0.00000  Uiso   1.00
C763   C     0.40236   0.12568   0.79409   0.00000  Uiso   1.00
C764   C     0.09764   0.20765   0.87258   0.00000  Uiso   1.00
C765   C     0.44897   0.12545   0.79375   0.00000  Uiso   1.00
C766   C     0.05103   0.20788   0.87292   0.00000  Uiso   1.00
C767   C     0.47654   0.16701   0.83319   0.00000  Uiso   1.00
C768   C     0.02346   0.16632   0.83348   0.00000  Uiso   1.00
C769   C     0.45732   0.20935   0.87215   0.00000  Uiso   1.00
C770   C     0.04268   0.12398   0.79452   0.00000  Uiso   1.00
C771   C     0.46846   0.08395   0.75528   0.00000  Uiso   1.00
C772   C     0.03154   0.24938   0.91139   0.00000  Uiso   1.00
C773   C     0.01465   0.08288   0.75614   0.00000  Uiso   1.00
C774   C     0.48535   0.25045   0.91053   0.00000  Uiso   1.00
H775   H     0.44809   0.05175   0.72450   0.00000  Uiso   1.00
H776   H     0.05191   0.28158   0.94216   0.00000  Uiso   1.00
H777   H     0.02800   0.04936   0.72660   0.00000  Uiso   1.00
H778   H     0.47200   0.28397   0.94007   0.00000  Uiso   1.00
C779   C     0.24781   0.01043   0.80906   0.00000  Uiso   1.00
C780   C     0.25219   0.32291   0.85761   0.00000  Uiso   1.00
H781   H     0.24375   0.31950   0.76245   0.00000  Uiso   1.00
H782   H     0.25626   0.01383   0.90422   0.00000  Uiso   1.00
N783   N     0.23745   0.15214   0.67951   0.00000  Uiso   1.00
N784   N     0.26256   0.18119   0.98716   0.00000  Uiso   1.00
N785   N     0.39022   0.25336   0.90889   0.00000  Uiso   1.00
O786   O     0.36366   0.28200   0.88408   0.00000  Uiso   1.00
O787   O     0.39552   0.26158   0.96823   0.00000  Uiso   1.00
N788   N     0.10978   0.07997   0.75778   0.00000  Uiso   1.00
O789   O     0.13635   0.05134   0.78259   0.00000  Uiso   1.00
O790   O     0.10447   0.07175   0.69845   0.00000  Uiso   1.00
O791   O     0.37487   0.08467   0.75673   0.00000  Uiso   1.00
C792   C     0.36672   0.04561   0.78955   0.00000  Uiso   1.00
H793   H     0.39808   0.02757   0.80089   0.00000  Uiso   1.00
H794   H     0.34356   0.01368   0.76033   0.00000  Uiso   1.00
H795   H     0.35036   0.06166   0.83207   0.00000  Uiso   1.00
O796   O     0.12512   0.24867   0.90992   0.00000  Uiso   1.00
C797   C     0.13327   0.28773   0.87710   0.00000  Uiso   1.00
H798   H     0.15636   0.31971   0.90634   0.00000  Uiso   1.00
H799   H     0.10189   0.30570   0.86566   0.00000  Uiso   1.00
H800   H     0.14970   0.27170   0.83463   0.00000  Uiso   1.00
N801   N     0.19449   0.13899   0.98481   0.00000  Uiso   1.00
O802   O     0.18290   0.09003   0.95702   0.00000  Uiso   1.00
O803   O     0.16351   0.17198   0.99823   0.00000  Uiso   1.00
N804   N     0.30550   0.19441   0.68190   0.00000  Uiso   1.00
O805   O     0.31703   0.24339   0.70968   0.00000  Uiso   1.00
O806   O     0.33653   0.16148   0.66848   0.00000  Uiso   1.00
O807   O     0.75326   0.09538   0.87326   0.00000  Uiso   1.00
O808   O     0.74675   0.23796   0.79341   0.00000  Uiso   1.00
O809   O     0.74480   0.08559   0.76945   0.00000  Uiso   1.00
O810   O     0.75520   0.24774   0.89721   0.00000  Uiso   1.00
C811   C     0.74855   0.06659   0.81766   0.00000  Uiso   1.00
C812   C     0.75145   0.26674   0.84901   0.00000  Uiso   1.00
O813   O     0.68936   0.17155   0.88524   0.00000  Uiso   1.00
O814   O     0.81065   0.16179   0.78143   0.00000  Uiso   1.00
O815   O     0.68090   0.16176   0.78143   0.00000  Uiso   1.00
O816   O     0.81910   0.17157   0.88523   0.00000  Uiso   1.00
C817   C     0.66466   0.16574   0.83393   0.00000  Uiso   1.00
C818   C     0.83534   0.16759   0.83274   0.00000  Uiso   1.00
Cu819  Cu    0.75501   0.17246   0.89479   0.00000  Uiso   1.00
Cu820  Cu    0.74500   0.16087   0.77187   0.00000  Uiso   1.00
C821   C     0.91054   0.21011   0.87103   0.00000  Uiso   1.00
C822   C     0.58946   0.12322   0.79564   0.00000  Uiso   1.00
C823   C     0.88354   0.16846   0.83162   0.00000  Uiso   1.00
C824   C     0.61646   0.16488   0.83505   0.00000  Uiso   1.00
C825   C     0.90236   0.12568   0.79409   0.00000  Uiso   1.00
C826   C     0.59764   0.20765   0.87258   0.00000  Uiso   1.00
C827   C     0.94897   0.12545   0.79375   0.00000  Uiso   1.00
C828   C     0.55103   0.20788   0.87292   0.00000  Uiso   1.00
C829   C     0.97654   0.16701   0.83319   0.00000  Uiso   1.00
C830   C     0.52346   0.16632   0.83348   0.00000  Uiso   1.00
C831   C     0.95732   0.20935   0.87215   0.00000  Uiso   1.00
C832   C     0.54268   0.12398   0.79452   0.00000  Uiso   1.00
C833   C     0.96846   0.08395   0.75528   0.00000  Uiso   1.00
C834   C     0.53154   0.24938   0.91139   0.00000  Uiso   1.00
C835   C     0.51465   0.08288   0.75614   0.00000  Uiso   1.00
C836   C     0.98535   0.25045   0.91053   0.00000  Uiso   1.00
H837   H     0.94809   0.05175   0.72450   0.00000  Uiso   1.00
H838   H     0.55191   0.28158   0.94216   0.00000  Uiso   1.00
H839   H     0.52800   0.04936   0.72660   0.00000  Uiso   1.00
H840   H     0.97200   0.28397   0.94007   0.00000  Uiso   1.00
C841   C     0.74781   0.01043   0.80906   0.00000  Uiso   1.00
C842   C     0.75219   0.32291   0.85761   0.00000  Uiso   1.00
H843   H     0.74375   0.31950   0.76245   0.00000  Uiso   1.00
H844   H     0.75626   0.01383   0.90422   0.00000  Uiso   1.00
N845   N     0.73745   0.15214   0.67951   0.00000  Uiso   1.00
N846   N     0.76256   0.18119   0.98716   0.00000  Uiso   1.00
N847   N     0.89022   0.25336   0.90889   0.00000  Uiso   1.00
O848   O     0.86366   0.28200   0.88408   0.00000  Uiso   1.00
O849   O     0.89552   0.26158   0.96823   0.00000  Uiso   1.00
N850   N     0.60978   0.07997   0.75778   0.00000  Uiso   1.00
O851   O     0.63635   0.05134   0.78259   0.00000  Uiso   1.00
O852   O     0.60447   0.07175   0.69845   0.00000  Uiso   1.00
O853   O     0.87487   0.08467   0.75673   0.00000  Uiso   1.00
C854   C     0.86672   0.04561   0.78955   0.00000  Uiso   1.00
H855   H     0.89808   0.02757   0.80089   0.00000  Uiso   1.00
H856   H     0.84356   0.01368   0.76033   0.00000  Uiso   1.00
H857   H     0.85036   0.06166   0.83207   0.00000  Uiso   1.00
O858   O     0.62512   0.24867   0.90992   0.00000  Uiso   1.00
C859   C     0.63327   0.28773   0.87710   0.00000  Uiso   1.00
H860   H     0.65636   0.31971   0.90634   0.00000  Uiso   1.00
H861   H     0.60189   0.30570   0.86566   0.00000  Uiso   1.00
H862   H     0.64970   0.27170   0.83463   0.00000  Uiso   1.00
N863   N     0.69449   0.13899   0.98481   0.00000  Uiso   1.00
O864   O     0.68290   0.09003   0.95702   0.00000  Uiso   1.00
O865   O     0.66351   0.17198   0.99823   0.00000  Uiso   1.00
N866   N     0.80550   0.19441   0.68190   0.00000  Uiso   1.00
O867   O     0.81703   0.24339   0.70968   0.00000  Uiso   1.00
O868   O     0.83653   0.16148   0.66848   0.00000  Uiso   1.00
O869   O     0.25326   0.42871   0.87326   0.00000  Uiso   1.00
O870   O     0.24675   0.57129   0.79341   0.00000  Uiso   1.00
O871   O     0.24480   0.41892   0.76945   0.00000  Uiso   1.00
O872   O     0.25520   0.58108   0.89721   0.00000  Uiso   1.00
C873   C     0.24855   0.39992   0.81766   0.00000  Uiso   1.00
C874   C     0.25145   0.60008   0.84901   0.00000  Uiso   1.00
O875   O     0.18936   0.50488   0.88524   0.00000  Uiso   1.00
O876   O     0.31065   0.49512   0.78143   0.00000  Uiso   1.00
O877   O     0.18090   0.49510   0.78143   0.00000  Uiso   1.00
O878   O     0.31910   0.50490   0.88523   0.00000  Uiso   1.00
C879   C     0.16466   0.49908   0.83393   0.00000  Uiso   1.00
C880   C     0.33534   0.50093   0.83274   0.00000  Uiso   1.00
Cu881  Cu    0.25501   0.50579   0.89479   0.00000  Uiso   1.00
Cu882  Cu    0.24500   0.49421   0.77187   0.00000  Uiso   1.00
C883   C     0.41054   0.54344   0.87103   0.00000  Uiso   1.00
C884   C     0.08946   0.45655   0.79564   0.00000  Uiso   1.00
C885   C     0.38354   0.50179   0.83162   0.00000  Uiso   1.00
C886   C     0.11646   0.49821   0.83505   0.00000  Uiso   1.00
C887   C     0.40236   0.45902   0.79409   0.00000  Uiso   1.00
C888   C     0.09764   0.54099   0.87258   0.00000  Uiso   1.00
C889   C     0.44897   0.45879   0.79375   0.00000  Uiso   1.00
C890   C     0.05103   0.54121   0.87292   0.00000  Uiso   1.00
C891   C     0.47654   0.50035   0.83319   0.00000  Uiso   1.00
C892   C     0.02346   0.49965   0.83348   0.00000  Uiso   1.00
C893   C     0.45732   0.54268   0.87215   0.00000  Uiso   1.00
C894   C     0.04268   0.45732   0.79452   0.00000  Uiso   1.00
C895   C     0.46846   0.41728   0.75528   0.00000  Uiso   1.00
C896   C     0.03154   0.58272   0.91139   0.00000  Uiso   1.00
C897   C     0.01465   0.41622   0.75614   0.00000  Uiso   1.00
C898   C     0.48535   0.58378   0.91053   0.00000  Uiso   1.00
H899   H     0.44809   0.38509   0.72450   0.00000  Uiso   1.00
H900   H     0.05191   0.61492   0.94216   0.00000  Uiso   1.00
H901   H     0.02800   0.38269   0.72660   0.00000  Uiso   1.00
H902   H     0.47200   0.61730   0.94007   0.00000  Uiso   1.00
C903   C     0.24781   0.34376   0.80906   0.00000  Uiso   1.00
C904   C     0.25219   0.65624   0.85761   0.00000  Uiso   1.00
H905   H     0.24375   0.65283   0.76245   0.00000  Uiso   1.00
H906   H     0.25626   0.34717   0.90422   0.00000  Uiso   1.00
N907   N     0.23745   0.48547   0.67951   0.00000  Uiso   1.00
N908   N     0.26256   0.51453   0.98716   0.00000  Uiso   1.00
N909   N     0.39022   0.58670   0.90889   0.00000  Uiso   1.00
O910   O     0.36366   0.61533   0.88408   0.00000  Uiso   1.00
O911   O     0.39552   0.59491   0.96823   0.00000  Uiso   1.00
N912   N     0.10978   0.41330   0.75778   0.00000  Uiso   1.00
O913   O     0.13635   0.38467   0.78259   0.00000  Uiso   1.00
O914   O     0.10447   0.40508   0.69845   0.00000  Uiso   1.00
O915   O     0.37487   0.41800   0.75673   0.00000  Uiso   1.00
C916   C     0.36672   0.37894   0.78955   0.00000  Uiso   1.00
H917   H     0.39808   0.36090   0.80089   0.00000  Uiso   1.00
H918   H     0.34356   0.34701   0.76033   0.00000  Uiso   1.00
H919   H     0.35036   0.39499   0.83207   0.00000  Uiso   1.00
O920   O     0.12512   0.58201   0.90992   0.00000  Uiso   1.00
C921   C     0.13327   0.62107   0.87710   0.00000  Uiso   1.00
H922   H     0.15636   0.65304   0.90634   0.00000  Uiso   1.00
H923   H     0.10189   0.63904   0.86566   0.00000  Uiso   1.00
H924   H     0.14970   0.60503   0.83463   0.00000  Uiso   1.00
N925   N     0.19449   0.47233   0.98481   0.00000  Uiso   1.00
O926   O     0.18290   0.42337   0.95702   0.00000  Uiso   1.00
O927   O     0.16351   0.50532   0.99823   0.00000  Uiso   1.00
N928   N     0.30550   0.52774   0.68190   0.00000  Uiso   1.00
O929   O     0.31703   0.57672   0.70968   0.00000  Uiso   1.00
O930   O     0.33653   0.49482   0.66848   0.00000  Uiso   1.00
O931   O     0.75326   0.42871   0.87326   0.00000  Uiso   1.00
O932   O     0.74675   0.57129   0.79341   0.00000  Uiso   1.00
O933   O     0.74480   0.41892   0.76945   0.00000  Uiso   1.00
O934   O     0.75520   0.58108   0.89721   0.00000  Uiso   1.00
C935   C     0.74855   0.39992   0.81766   0.00000  Uiso   1.00
C936   C     0.75145   0.60008   0.84901   0.00000  Uiso   1.00
O937   O     0.68936   0.50488   0.88524   0.00000  Uiso   1.00
O938   O     0.81065   0.49512   0.78143   0.00000  Uiso   1.00
O939   O     0.68090   0.49510   0.78143   0.00000  Uiso   1.00
O940   O     0.81910   0.50490   0.88523   0.00000  Uiso   1.00
C941   C     0.66466   0.49908   0.83393   0.00000  Uiso   1.00
C942   C     0.83534   0.50093   0.83274   0.00000  Uiso   1.00
Cu943  Cu    0.75501   0.50579   0.89479   0.00000  Uiso   1.00
Cu944  Cu    0.74500   0.49421   0.77187   0.00000  Uiso   1.00
C945   C     0.91054   0.54344   0.87103   0.00000  Uiso   1.00
C946   C     0.58946   0.45655   0.79564   0.00000  Uiso   1.00
C947   C     0.88354   0.50179   0.83162   0.00000  Uiso   1.00
C948   C     0.61646   0.49821   0.83505   0.00000  Uiso   1.00
C949   C     0.90236   0.45902   0.79409   0.00000  Uiso   1.00
C950   C     0.59764   0.54099   0.87258   0.00000  Uiso   1.00
C951   C     0.94897   0.45879   0.79375   0.00000  Uiso   1.00
C952   C     0.55103   0.54121   0.87292   0.00000  Uiso   1.00
C953   C     0.97654   0.50035   0.83319   0.00000  Uiso   1.00
C954   C     0.52346   0.49965   0.83348   0.00000  Uiso   1.00
C955   C     0.95732   0.54268   0.87215   0.00000  Uiso   1.00
C956   C     0.54268   0.45732   0.79452   0.00000  Uiso   1.00
C957   C     0.96846   0.41728   0.75528   0.00000  Uiso   1.00
C958   C     0.53154   0.58272   0.91139   0.00000  Uiso   1.00
C959   C     0.51465   0.41622   0.75614   0.00000  Uiso   1.00
C960   C     0.98535   0.58378   0.91053   0.00000  Uiso   1.00
H961   H     0.94809   0.38509   0.72450   0.00000  Uiso   1.00
H962   H     0.55191   0.61492   0.94216   0.00000  Uiso   1.00
H963   H     0.52800   0.38269   0.72660   0.00000  Uiso   1.00
H964   H     0.97200   0.61730   0.94007   0.00000  Uiso   1.00
C965   C     0.74781   0.34376   0.80906   0.00000  Uiso   1.00
C966   C     0.75219   0.65624   0.85761   0.00000  Uiso   1.00
H967   H     0.74375   0.65283   0.76245   0.00000  Uiso   1.00
H968   H     0.75626   0.34717   0.90422   0.00000  Uiso   1.00
N969   N     0.73745   0.48547   0.67951   0.00000  Uiso   1.00
N970   N     0.76256   0.51453   0.98716   0.00000  Uiso   1.00
N971   N     0.89022   0.58670   0.90889   0.00000  Uiso   1.00
O972   O     0.86366   0.61533   0.88408   0.00000  Uiso   1.00
O973   O     0.89552   0.59491   0.96823   0.00000  Uiso   1.00
N974   N     0.60978   0.41330   0.75778   0.00000  Uiso   1.00
O975   O     0.63635   0.38467   0.78259   0.00000  Uiso   1.00
O976   O     0.60447   0.40508   0.69845   0.00000  Uiso   1.00
O977   O     0.87487   0.41800   0.75673   0.00000  Uiso   1.00
C978   C     0.86672   0.37894   0.78955   0.00000  Uiso   1.00
H979   H     0.89808   0.36090   0.80089   0.00000  Uiso   1.00
H980   H     0.84356   0.34701   0.76033   0.00000  Uiso   1.00
H981   H     0.85036   0.39499   0.83207   0.00000  Uiso   1.00
O982   O     0.62512   0.58201   0.90992   0.00000  Uiso   1.00
C983   C     0.63327   0.62107   0.87710   0.00000  Uiso   1.00
H984   H     0.65636   0.65304   0.90634   0.00000  Uiso   1.00
H985   H     0.60189   0.63904   0.86566   0.00000  Uiso   1.00
H986   H     0.64970   0.60503   0.83463   0.00000  Uiso   1.00
N987   N     0.69449   0.47233   0.98481   0.00000  Uiso   1.00
O988   O     0.68290   0.42337   0.95702   0.00000  Uiso   1.00
O989   O     0.66351   0.50532   0.99823   0.00000  Uiso   1.00
N990   N     0.80550   0.52774   0.68190   0.00000  Uiso   1.00
O991   O     0.81703   0.57672   0.70968   0.00000  Uiso   1.00
O992   O     0.83653   0.49482   0.66848   0.00000  Uiso   1.00
O993   O     0.25326   0.76204   0.87326   0.00000  Uiso   1.00
O994   O     0.24675   0.90462   0.79341   0.00000  Uiso   1.00
O995   O     0.24480   0.75226   0.76945   0.00000  Uiso   1.00
O996   O     0.25520   0.91441   0.89721   0.00000  Uiso   1.00
C997   C     0.24855   0.73326   0.81766   0.00000  Uiso   1.00
C998   C     0.25145   0.93341   0.84901   0.00000  Uiso   1.00
O999   O     0.18936   0.83821   0.88524   0.00000  Uiso   1.00
O1000  O     0.31065   0.82845   0.78143   0.00000  Uiso   1.00
O1001  O     0.18090   0.82843   0.78143   0.00000  Uiso   1.00
O1002  O     0.31910   0.83824   0.88523   0.00000  Uiso   1.00
C1003  C     0.16466   0.83241   0.83393   0.00000  Uiso   1.00
C1004  C     0.33534   0.83426   0.83274   0.00000  Uiso   1.00
Cu1005 Cu    0.25501   0.83913   0.89479   0.00000  Uiso   1.00
Cu1006 Cu    0.24500   0.82754   0.77187   0.00000  Uiso   1.00
C1007  C     0.41054   0.87678   0.87103   0.00000  Uiso   1.00
C1008  C     0.08946   0.78989   0.79564   0.00000  Uiso   1.00
C1009  C     0.38354   0.83512   0.83162   0.00000  Uiso   1.00
C1010  C     0.11646   0.83154   0.83505   0.00000  Uiso   1.00
C1011  C     0.40236   0.79235   0.79409   0.00000  Uiso   1.00
C1012  C     0.09764   0.87432   0.87258   0.00000  Uiso   1.00
C1013  C     0.44897   0.79212   0.79375   0.00000  Uiso   1.00
C1014  C     0.05103   0.87454   0.87292   0.00000  Uiso   1.00
C1015  C     0.47654   0.83368   0.83319   0.00000  Uiso   1.00
C1016  C     0.02346   0.83298   0.83348   0.00000  Uiso   1.00
C1017  C     0.45732   0.87601   0.87215   0.00000  Uiso   1.00
C1018  C     0.04268   0.79065   0.79452   0.00000  Uiso   1.00
C1019  C     0.46846   0.75061   0.75528   0.00000  Uiso   1.00
C1020  C     0.03154   0.91605   0.91139   0.00000  Uiso   1.00
C1021  C     0.01465   0.74955   0.75614   0.00000  Uiso   1.00
C1022  C     0.48535   0.91711   0.91053   0.00000  Uiso   1.00
H1023  H     0.44809   0.71842   0.72450   0.00000  Uiso   1.00
H1024  H     0.05191   0.94825   0.94216   0.00000  Uiso   1.00
H1025  H     0.02800   0.71603   0.72660   0.00000  Uiso   1.00
H1026  H     0.47200   0.95064   0.94007   0.00000  Uiso   1.00
C1027  C     0.24781   0.67709   0.80906   0.00000  Uiso   1.00
C1028  C     0.25219   0.98957   0.85761   0.00000  Uiso   1.00
H1029  H     0.24375   0.98617   0.76245   0.00000  Uiso   1.00
H1030  H     0.25626   0.68050   0.90422   0.00000  Uiso   1.00
N1031  N     0.23745   0.81881   0.67951   0.00000  Uiso   1.00
N1032  N     0.26256   0.84786   0.98716   0.00000  Uiso   1.00
N1033  N     0.39022   0.92003   0.90889   0.00000  Uiso   1.00
O1034  O     0.36366   0.94867   0.88408   0.00000  Uiso   1.00
O1035  O     0.39552   0.92824   0.96823   0.00000  Uiso   1.00
N1036  N     0.10978   0.74663   0.75778   0.00000  Uiso   1.00
O1037  O     0.13635   0.71800   0.78259   0.00000  Uiso   1.00
O1038  O     0.10447   0.73841   0.69845   0.00000  Uiso   1.00
O1039  O     0.37487   0.75134   0.75673   0.00000  Uiso   1.00
C1040  C     0.36672   0.71227   0.78955   0.00000  Uiso   1.00
H1041  H     0.39808   0.69423   0.80089   0.00000  Uiso   1.00
H1042  H     0.34356   0.68035   0.76033   0.00000  Uiso   1.00
H1043  H     0.35036   0.72832   0.83207   0.00000  Uiso   1.00
O1044  O     0.12512   0.91534   0.90992   0.00000  Uiso   1.00
C1045  C     0.13327   0.95440   0.87710   0.00000  Uiso   1.00
H1046  H     0.15636   0.98638   0.90634   0.00000  Uiso   1.00
H1047  H     0.10189   0.97237   0.86566   0.00000  Uiso   1.00
H1048  H     0.14970   0.93836   0.83463   0.00000  Uiso   1.00
N1049  N     0.19449   0.80566   0.98481   0.00000  Uiso   1.00
O1050  O     0.18290   0.75670   0.95702   0.00000  Uiso   1.00
O1051  O     0.16351   0.83865   0.99823   0.00000  Uiso   1.00
N1052  N     0.30550   0.86107   0.68190   0.00000  Uiso   1.00
O1053  O     0.31703   0.91006   0.70968   0.00000  Uiso   1.00
O1054  O     0.33653   0.82815   0.66848   0.00000  Uiso   1.00
O1055  O     0.75326   0.76204   0.87326   0.00000  Uiso   1.00
O1056  O     0.74675   0.90462   0.79341   0.00000  Uiso   1.00
O1057  O     0.74480   0.75226   0.76945   0.00000  Uiso   1.00
O1058  O     0.75520   0.91441   0.89721   0.00000  Uiso   1.00
C1059  C     0.74855   0.73326   0.81766   0.00000  Uiso   1.00
C1060  C     0.75145   0.93341   0.84901   0.00000  Uiso   1.00
O1061  O     0.68936   0.83821   0.88524   0.00000  Uiso   1.00
O1062  O     0.81065   0.82845   0.78143   0.00000  Uiso   1.00
O1063  O     0.68090   0.82843   0.78143   0.00000  Uiso   1.00
O1064  O     0.81910   0.83824   0.88523   0.00000  Uiso   1.00
C1065  C     0.66466   0.83241   0.83393   0.00000  Uiso   1.00
C1066  C     0.83534   0.83426   0.83274   0.00000  Uiso   1.00
Cu1067 Cu    0.75501   0.83913   0.89479   0.00000  Uiso   1.00
Cu1068 Cu    0.74500   0.82754   0.77187   0.00000  Uiso   1.00
C1069  C     0.91054   0.87678   0.87103   0.00000  Uiso   1.00
C1070  C     0.58946   0.78989   0.79564   0.00000  Uiso   1.00
C1071  C     0.88354   0.83512   0.83162   0.00000  Uiso   1.00
C1072  C     0.61646   0.83154   0.83505   0.00000  Uiso   1.00
C1073  C     0.90236   0.79235   0.79409   0.00000  Uiso   1.00
C1074  C     0.59764   0.87432   0.87258   0.00000  Uiso   1.00
C1075  C     0.94897   0.79212   0.79375   0.00000  Uiso   1.00
C1076  C     0.55103   0.87454   0.87292   0.00000  Uiso   1.00
C1077  C     0.97654   0.83368   0.83319   0.00000  Uiso   1.00
C1078  C     0.52346   0.83298   0.83348   0.00000  Uiso   1.00
C1079  C     0.95732   0.87601   0.87215   0.00000  Uiso   1.00
C1080  C     0.54268   0.79065   0.79452   0.00000  Uiso   1.00
C1081  C     0.96846   0.75061   0.75528   0.00000  Uiso   1.00
C1082  C     0.53154   0.91605   0.91139   0.00000  Uiso   1.00
C1083  C     0.51465   0.74955   0.75614   0.00000  Uiso   1.00
C1084  C     0.98535   0.91711   0.91053   0.00000  Uiso   1.00
H1085  H     0.94809   0.71842   0.72450   0.00000  Uiso   1.00
H1086  H     0.55191   0.94825   0.94216   0.00000  Uiso   1.00
H1087  H     0.52800   0.71603   0.72660   0.00000  Uiso   1.00
H1088  H     0.97200   0.95064   0.94007   0.00000  Uiso   1.00
C1089  C     0.74781   0.67709   0.80906   0.00000  Uiso   1.00
C1090  C     0.75219   0.98957   0.85761   0.00000  Uiso   1.00
H1091  H     0.74375   0.98617   0.76245   0.00000  Uiso   1.00
H1092  H     0.75626   0.68050   0.90422   0.00000  Uiso   1.00
N1093  N     0.73745   0.81881   0.67951   0.00000  Uiso   1.00
N1094  N     0.76256   0.84786   0.98716   0.00000  Uiso   1.00
N1095  N     0.89022   0.92003   0.90889   0.00000  Uiso   1.00
O1096  O     0.86366   0.94867   0.88408   0.00000  Uiso   1.00
O1097  O     0.89552   0.92824   0.96823   0.00000  Uiso   1.00
N1098  N     0.60978   0.74663   0.75778   0.00000  Uiso   1.00
O1099  O     0.63635   0.71800   0.78259   0.00000  Uiso   1.00
O1100  O     0.60447   0.73841   0.69845   0.00000  Uiso   1.00
O1101  O     0.87487   0.75134   0.75673   0.00000  Uiso   1.00
C1102  C     0.86672   0.71227   0.78955   0.00000  Uiso   1.00
H1103  H     0.89808   0.69423   0.80089   0.00000  Uiso   1.00
H1104  H     0.84356   0.68035   0.76033   0.00000  Uiso   1.00
H1105  H     0.85036   0.72832   0.83207   0.00000  Uiso   1.00
O1106  O     0.62512   0.91534   0.90992   0.00000  Uiso   1.00
C1107  C     0.63327   0.95440   0.87710   0.00000  Uiso   1.00
H1108  H     0.65636   0.98638   0.90634   0.00000  Uiso   1.00
H1109  H     0.60189   0.97237   0.86566   0.00000  Uiso   1.00
H1110  H     0.64970   0.93836   0.83463   0.00000  Uiso   1.00
N1111  N     0.69449   0.80566   0.98481   0.00000  Uiso   1.00
O1112  O     0.68290   0.75670   0.95702   0.00000  Uiso   1.00
O1113  O     0.66351   0.83865   0.99823   0.00000  Uiso   1.00
N1114  N     0.80550   0.86107   0.68190   0.00000  Uiso   1.00
O1115  O     0.81703   0.91006   0.70968   0.00000  Uiso   1.00
O1116  O     0.83653   0.82815   0.66848   0.00000  Uiso   1.00
loop_
_geom_bond_atom_site_label_1
_geom_bond_atom_site_label_2
_geom_bond_distance
_geom_bond_site_symmetry_2
_ccdc_geom_bond_type
O1     C5      1.296   .     A
O1     Cu13    1.949   .     S
O2     C6      1.296   .     A
O2     Cu14    1.949   .     S
O3     C5      1.295   .     A
O3     Cu14    1.947   .     S
O4     C6      1.295   .     A
O4     Cu13    1.947   .     S
C5     C35     1.428   .     S
C6     C36     1.428   .     S
O7     Cu13    1.965   .     S
O7     C11     1.301   .     A
O8     C12     1.301   .     A
O8     Cu14    1.965   .     S
O9     Cu14    1.953   .     S
O9     C11     1.297   .     A
O10    C12     1.297   .     A
O10    Cu13    1.953   .     S
C11    C18     1.448   .     S
C12    C17     1.448   .     S
Cu13   Cu14    2.709   .     S
Cu13   N40     2.036   .     S
Cu14   N39     2.036   .     S
C15    C25     1.404   .     A
C15    N41     1.438   .     S
C15    C17     1.407   .     A
C16    N44     1.438   .     S
C16    C26     1.404   .     A
C16    C18     1.407   .     A
C17    C19     1.403   .     A
C18    C20     1.403   .     A
C19    O47     1.386   .     S
C19    C21     1.400   .     A
C20    C22     1.400   .     A
C20    O52     1.386   .     S
C21    C27     1.401   .     A
C21    C23     1.414   .     A
C22    C28     1.401   .     A
C22    C24     1.414   .     A
C23    C25     1.416   .     A
C23    C86     1.409   .     S
C24    C26     1.416   .     A
C24    C85     1.409   1_455 S
C25    C30     1.405   .     A
C26    C29     1.405   .     A
C27    H31     1.083   .     S
C27    C91     1.387   .     S
C28    H32     1.083   .     S
C28    C92     1.387   1_455 S
C29    H33     1.082   .     S
C29    C89     1.387   1_455 S
C30    H34     1.082   .     S
C30    C90     1.387   .     S
C35    C284    1.331   1_545 S
C35    H285    1.087   1_545 S
C36    C159    1.331   .     S
C36    H162    1.087   .     S
H37    C159    1.087   .     S
H38    C284    1.087   1_545 S
N39    N784    1.298   1_554 S
N39    N801    1.384   1_554 S
N40    N411    1.298   .     S
N40    N432    1.384   .     S
N41    O43     1.301   .     A
N41    O42     1.301   .     A
N44    O45     1.301   .     A
N44    O46     1.301   .     A
O47    C48     1.412   .     S
C48    H50     1.108   .     S
C48    H49     1.112   .     S
C48    H51     1.113   .     S
O52    C53     1.412   .     S
C53    H56     1.113   .     S
C53    H55     1.112   .     S
C53    H54     1.108   .     S
N57    O58     1.300   .     A
N57    O59     1.302   .     A
N57    N411    1.384   .     S
N60    O62     1.302   .     A
N60    O61     1.300   .     A
N60    N784    1.384   1_554 S
O63    C67     1.296   .     A
O63    Cu75    1.949   .     S
O64    C68     1.296   .     A
O64    Cu76    1.949   .     S
O65    C67     1.295   .     A
O65    Cu76    1.947   .     S
O66    C68     1.295   .     A
O66    Cu75    1.947   .     S
C67    C97     1.428   .     S
C68    C98     1.428   .     S
O69    Cu75    1.965   .     S
O69    C73     1.301   .     A
O70    C74     1.301   .     A
O70    Cu76    1.965   .     S
O71    Cu76    1.953   .     S
O71    C73     1.297   .     A
O72    C74     1.297   .     A
O72    Cu75    1.953   .     S
C73    C80     1.448   .     S
C74    C79     1.448   .     S
Cu75   Cu76    2.709   .     S
Cu75   N102    2.036   .     S
Cu76   N101    2.036   .     S
C77    C87     1.404   .     A
C77    N103    1.438   .     S
C77    C79     1.407   .     A
C78    N106    1.438   .     S
C78    C88     1.404   .     A
C78    C80     1.407   .     A
C79    C81     1.403   .     A
C80    C82     1.403   .     A
C81    O109    1.386   .     S
C81    C83     1.400   .     A
C82    C84     1.400   .     A
C82    O114    1.386   .     S
C83    C89     1.401   .     A
C83    C85     1.414   .     A
C84    C90     1.401   .     A
C84    C86     1.414   .     A
C85    C87     1.416   .     A
C85    C24     1.409   1_655 S
C86    C88     1.416   .     A
C87    C92     1.405   .     A
C88    C91     1.405   .     A
C89    H93     1.083   .     S
C89    C29     1.387   1_655 S
C90    H94     1.083   .     S
C91    H95     1.082   .     S
C92    H96     1.082   .     S
C92    C28     1.387   1_655 S
C97    C346    1.331   1_545 S
C97    H347    1.087   1_545 S
C98    C221    1.331   .     S
C98    H224    1.087   .     S
H99    C221    1.087   .     S
H100   C346    1.087   1_545 S
N101   N846    1.298   1_554 S
N101   N863    1.384   1_554 S
N102   N473    1.298   .     S
N102   N494    1.384   .     S
N103   O105    1.301   .     A
N103   O104    1.301   .     A
N106   O107    1.301   .     A
N106   O108    1.301   .     A
O109   C110    1.412   .     S
C110   H112    1.108   .     S
C110   H111    1.112   .     S
C110   H113    1.113   .     S
O114   C115    1.412   .     S
C115   H118    1.113   .     S
C115   H117    1.112   .     S
C115   H116    1.108   .     S
N119   O120    1.300   .     A
N119   O121    1.302   .     A
N119   N473    1.384   .     S
N122   O124    1.302   .     A
N122   O123    1.300   .     A
N122   N846    1.384   1_554 S
O125   C129    1.296   .     A
O125   Cu137   1.949   .     S
O126   C130    1.296   .     A
O126   Cu138   1.949   .     S
O127   C129    1.295   .     A
O127   Cu138   1.947   .     S
O128   C130    1.295   .     A
O128   Cu137   1.947   .     S
C129   C159    1.428   .     S
C130   C160    1.428   .     S
O131   Cu137   1.965   .     S
O131   C135    1.301   .     A
O132   C136    1.301   .     A
O132   Cu138   1.965   .     S
O133   Cu138   1.953   .     S
O133   C135    1.297   .     A
O134   C136    1.297   .     A
O134   Cu137   1.953   .     S
C135   C142    1.448   .     S
C136   C141    1.448   .     S
Cu137  Cu138   2.709   .     S
Cu137  N164    2.036   .     S
Cu138  N163    2.036   .     S
C139   C149    1.404   .     A
C139   N165    1.438   .     S
C139   C141    1.407   .     A
C140   N168    1.438   .     S
C140   C150    1.404   .     A
C140   C142    1.407   .     A
C141   C143    1.403   .     A
C142   C144    1.403   .     A
C143   O171    1.386   .     S
C143   C145    1.400   .     A
C144   C146    1.400   .     A
C144   O176    1.386   .     S
C145   C151    1.401   .     A
C145   C147    1.414   .     A
C146   C152    1.401   .     A
C146   C148    1.414   .     A
C147   C149    1.416   .     A
C147   C210    1.409   .     S
C148   C150    1.416   .     A
C148   C209    1.409   1_455 S
C149   C154    1.405   .     A
C150   C153    1.405   .     A
C151   H155    1.083   .     S
C151   C215    1.387   .     S
C152   H156    1.083   .     S
C152   C216    1.387   1_455 S
C153   H157    1.082   .     S
C153   C213    1.387   1_455 S
C154   H158    1.082   .     S
C154   C214    1.387   .     S
C160   C283    1.331   .     S
C160   H286    1.087   .     S
H161   C283    1.087   .     S
N163   N908    1.298   1_554 S
N163   N925    1.384   1_554 S
N164   N535    1.298   .     S
N164   N556    1.384   .     S
N165   O167    1.301   .     A
N165   O166    1.301   .     A
N168   O169    1.301   .     A
N168   O170    1.301   .     A
O171   C172    1.412   .     S
C172   H174    1.108   .     S
C172   H173    1.112   .     S
C172   H175    1.113   .     S
O176   C177    1.412   .     S
C177   H180    1.113   .     S
C177   H179    1.112   .     S
C177   H178    1.108   .     S
N181   O182    1.300   .     A
N181   O183    1.302   .     A
N181   N535    1.384   .     S
N184   O186    1.302   .     A
N184   O185    1.300   .     A
N184   N908    1.384   1_554 S
O187   C191    1.296   .     A
O187   Cu199   1.949   .     S
O188   C192    1.296   .     A
O188   Cu200   1.949   .     S
O189   C191    1.295   .     A
O189   Cu200   1.947   .     S
O190   C192    1.295   .     A
O190   Cu199   1.947   .     S
C191   C221    1.428   .     S
C192   C222    1.428   .     S
O193   Cu199   1.965   .     S
O193   C197    1.301   .     A
O194   C198    1.301   .     A
O194   Cu200   1.965   .     S
O195   Cu200   1.953   .     S
O195   C197    1.297   .     A
O196   C198    1.297   .     A
O196   Cu199   1.953   .     S
C197   C204    1.448   .     S
C198   C203    1.448   .     S
Cu199  Cu200   2.709   .     S
Cu199  N226    2.036   .     S
Cu200  N225    2.036   .     S
C201   C211    1.404   .     A
C201   N227    1.438   .     S
C201   C203    1.407   .     A
C202   N230    1.438   .     S
C202   C212    1.404   .     A
C202   C204    1.407   .     A
C203   C205    1.403   .     A
C204   C206    1.403   .     A
C205   O233    1.386   .     S
C205   C207    1.400   .     A
C206   C208    1.400   .     A
C206   O238    1.386   .     S
C207   C213    1.401   .     A
C207   C209    1.414   .     A
C208   C214    1.401   .     A
C208   C210    1.414   .     A
C209   C211    1.416   .     A
C209   C148    1.409   1_655 S
C210   C212    1.416   .     A
C211   C216    1.405   .     A
C212   C215    1.405   .     A
C213   H217    1.083   .     S
C213   C153    1.387   1_655 S
C214   H218    1.083   .     S
C215   H219    1.082   .     S
C216   H220    1.082   .     S
C216   C152    1.387   1_655 S
C222   C345    1.331   .     S
C222   H348    1.087   .     S
H223   C345    1.087   .     S
N225   N970    1.298   1_554 S
N225   N987    1.384   1_554 S
N226   N597    1.298   .     S
N226   N618    1.384   .     S
N227   O229    1.301   .     A
N227   O228    1.301   .     A
N230   O231    1.301   .     A
N230   O232    1.301   .     A
O233   C234    1.412   .     S
C234   H236    1.108   .     S
C234   H235    1.112   .     S
C234   H237    1.113   .     S
O238   C239    1.412   .     S
C239   H242    1.113   .     S
C239   H241    1.112   .     S
C239   H240    1.108   .     S
N243   O244    1.300   .     A
N243   O245    1.302   .     A
N243   N597    1.384   .     S
N246   O248    1.302   .     A
N246   O247    1.300   .     A
N246   N970    1.384   1_554 S
O249   C253    1.296   .     A
O249   Cu261   1.949   .     S
O250   C254    1.296   .     A
O250   Cu262   1.949   .     S
O251   C253    1.295   .     A
O251   Cu262   1.947   .     S
O252   C254    1.295   .     A
O252   Cu261   1.947   .     S
C253   C283    1.428   .     S
C254   C284    1.428   .     S
O255   Cu261   1.965   .     S
O255   C259    1.301   .     A
O256   C260    1.301   .     A
O256   Cu262   1.965   .     S
O257   Cu262   1.953   .     S
O257   C259    1.297   .     A
O258   C260    1.297   .     A
O258   Cu261   1.953   .     S
C259   C266    1.448   .     S
C260   C265    1.448   .     S
Cu261  Cu262   2.709   .     S
Cu261  N288    2.036   .     S
Cu262  N287    2.036   .     S
C263   C273    1.404   .     A
C263   N289    1.438   .     S
C263   C265    1.407   .     A
C264   N292    1.438   .     S
C264   C274    1.404   .     A
C264   C266    1.407   .     A
C265   C267    1.403   .     A
C266   C268    1.403   .     A
C267   O295    1.386   .     S
C267   C269    1.400   .     A
C268   C270    1.400   .     A
C268   O300    1.386   .     S
C269   C275    1.401   .     A
C269   C271    1.414   .     A
C270   C276    1.401   .     A
C270   C272    1.414   .     A
C271   C273    1.416   .     A
C271   C334    1.409   .     S
C272   C274    1.416   .     A
C272   C333    1.409   1_455 S
C273   C278    1.405   .     A
C274   C277    1.405   .     A
C275   H279    1.083   .     S
C275   C339    1.387   .     S
C276   H280    1.083   .     S
C276   C340    1.387   1_455 S
C277   H281    1.082   .     S
C277   C337    1.387   1_455 S
C278   H282    1.082   .     S
C278   C338    1.387   .     S
C284   C35     1.331   1_565 S
C284   H38     1.087   1_565 S
H285   C35     1.087   1_565 S
N287   N1032   1.298   1_554 S
N287   N1049   1.384   1_554 S
N288   N659    1.298   .     S
N288   N680    1.384   .     S
N289   O291    1.301   .     A
N289   O290    1.301   .     A
N292   O293    1.301   .     A
N292   O294    1.301   .     A
O295   C296    1.412   .     S
C296   H298    1.108   .     S
C296   H297    1.112   .     S
C296   H299    1.113   .     S
O300   C301    1.412   .     S
C301   H304    1.113   .     S
C301   H303    1.112   .     S
C301   H302    1.108   .     S
N305   O306    1.300   .     A
N305   O307    1.302   .     A
N305   N659    1.384   .     S
N308   O310    1.302   .     A
N308   O309    1.300   .     A
N308   N1032   1.384   1_554 S
O311   C315    1.296   .     A
O311   Cu323   1.949   .     S
O312   C316    1.296   .     A
O312   Cu324   1.949   .     S
O313   C315    1.295   .     A
O313   Cu324   1.947   .     S
O314   C316    1.295   .     A
O314   Cu323   1.947   .     S
C315   C345    1.428   .     S
C316   C346    1.428   .     S
O317   Cu323   1.965   .     S
O317   C321    1.301   .     A
O318   C322    1.301   .     A
O318   Cu324   1.965   .     S
O319   Cu324   1.953   .     S
O319   C321    1.297   .     A
O320   C322    1.297   .     A
O320   Cu323   1.953   .     S
C321   C328    1.448   .     S
C322   C327    1.448   .     S
Cu323  Cu324   2.709   .     S
Cu323  N350    2.036   .     S
Cu324  N349    2.036   .     S
C325   C335    1.404   .     A
C325   N351    1.438   .     S
C325   C327    1.407   .     A
C326   N354    1.438   .     S
C326   C336    1.404   .     A
C326   C328    1.407   .     A
C327   C329    1.403   .     A
C328   C330    1.403   .     A
C329   O357    1.386   .     S
C329   C331    1.400   .     A
C330   C332    1.400   .     A
C330   O362    1.386   .     S
C331   C337    1.401   .     A
C331   C333    1.414   .     A
C332   C338    1.401   .     A
C332   C334    1.414   .     A
C333   C335    1.416   .     A
C333   C272    1.409   1_655 S
C334   C336    1.416   .     A
C335   C340    1.405   .     A
C336   C339    1.405   .     A
C337   H341    1.083   .     S
C337   C277    1.387   1_655 S
C338   H342    1.083   .     S
C339   H343    1.082   .     S
C340   H344    1.082   .     S
C340   C276    1.387   1_655 S
C346   C97     1.331   1_565 S
C346   H100    1.087   1_565 S
H347   C97     1.087   1_565 S
N349   N1094   1.298   1_554 S
N349   N1111   1.384   1_554 S
N350   N721    1.298   .     S
N350   N742    1.384   .     S
N351   O353    1.301   .     A
N351   O352    1.301   .     A
N354   O355    1.301   .     A
N354   O356    1.301   .     A
O357   C358    1.412   .     S
C358   H360    1.108   .     S
C358   H359    1.112   .     S
C358   H361    1.113   .     S
O362   C363    1.412   .     S
C363   H366    1.113   .     S
C363   H365    1.112   .     S
C363   H364    1.108   .     S
N367   O368    1.300   .     A
N367   O369    1.302   .     A
N367   N721    1.384   .     S
N370   O372    1.302   .     A
N370   O371    1.300   .     A
N370   N1094   1.384   1_554 S
O373   C377    1.296   .     A
O373   Cu385   1.949   .     S
O374   C378    1.296   .     A
O374   Cu386   1.949   .     S
O375   C377    1.295   .     A
O375   Cu386   1.947   .     S
O376   C378    1.295   .     A
O376   Cu385   1.947   .     S
C377   C407    1.428   .     S
C378   C408    1.428   .     S
O379   Cu385   1.965   .     S
O379   C383    1.301   .     A
O380   C384    1.301   .     A
O380   Cu386   1.965   .     S
O381   Cu386   1.953   .     S
O381   C383    1.297   .     A
O382   C384    1.297   .     A
O382   Cu385   1.953   .     S
C383   C390    1.448   .     S
C384   C389    1.448   .     S
Cu385  Cu386   2.709   .     S
Cu385  N412    2.036   .     S
Cu386  N411    2.036   .     S
C387   C397    1.404   .     A
C387   N413    1.438   .     S
C387   C389    1.407   .     A
C388   N416    1.438   .     S
C388   C398    1.404   .     A
C388   C390    1.407   .     A
C389   C391    1.403   .     A
C390   C392    1.403   .     A
C391   O419    1.386   .     S
C391   C393    1.400   .     A
C392   C394    1.400   .     A
C392   O424    1.386   .     S
C393   C399    1.401   .     A
C393   C395    1.414   .     A
C394   C400    1.401   .     A
C394   C396    1.414   .     A
C395   C397    1.416   .     A
C395   C458    1.409   .     S
C396   C398    1.416   .     A
C396   C457    1.409   1_455 S
C397   C402    1.405   .     A
C398   C401    1.405   .     A
C399   H403    1.083   .     S
C399   C463    1.387   .     S
C400   H404    1.083   .     S
C400   C464    1.387   1_455 S
C401   H405    1.082   .     S
C401   C461    1.387   1_455 S
C402   H406    1.082   .     S
C402   C462    1.387   .     S
C407   C656    1.331   1_545 S
C407   H657    1.087   1_545 S
C408   C531    1.331   .     S
C408   H534    1.087   .     S
H409   C531    1.087   .     S
H410   C656    1.087   1_545 S
N412   N783    1.298   .     S
N412   N804    1.384   .     S
N413   O415    1.301   .     A
N413   O414    1.301   .     A
N416   O417    1.301   .     A
N416   O418    1.301   .     A
O419   C420    1.412   .     S
C420   H422    1.108   .     S
C420   H421    1.112   .     S
C420   H423    1.113   .     S
O424   C425    1.412   .     S
C425   H428    1.113   .     S
C425   H427    1.112   .     S
C425   H426    1.108   .     S
N429   O430    1.300   .     A
N429   O431    1.302   .     A
N429   N783    1.384   .     S
N432   O434    1.302   .     A
N432   O433    1.300   .     A
O435   C439    1.296   .     A
O435   Cu447   1.949   .     S
O436   C440    1.296   .     A
O436   Cu448   1.949   .     S
O437   C439    1.295   .     A
O437   Cu448   1.947   .     S
O438   C440    1.295   .     A
O438   Cu447   1.947   .     S
C439   C469    1.428   .     S
C440   C470    1.428   .     S
O441   Cu447   1.965   .     S
O441   C445    1.301   .     A
O442   C446    1.301   .     A
O442   Cu448   1.965   .     S
O443   Cu448   1.953   .     S
O443   C445    1.297   .     A
O444   C446    1.297   .     A
O444   Cu447   1.953   .     S
C445   C452    1.448   .     S
C446   C451    1.448   .     S
Cu447  Cu448   2.709   .     S
Cu447  N474    2.036   .     S
Cu448  N473    2.036   .     S
C449   C459    1.404   .     A
C449   N475    1.438   .     S
C449   C451    1.407   .     A
C450   N478    1.438   .     S
C450   C460    1.404   .     A
C450   C452    1.407   .     A
C451   C453    1.403   .     A
C452   C454    1.403   .     A
C453   O481    1.386   .     S
C453   C455    1.400   .     A
C454   C456    1.400   .     A
C454   O486    1.386   .     S
C455   C461    1.401   .     A
C455   C457    1.414   .     A
C456   C462    1.401   .     A
C456   C458    1.414   .     A
C457   C459    1.416   .     A
C457   C396    1.409   1_655 S
C458   C460    1.416   .     A
C459   C464    1.405   .     A
C460   C463    1.405   .     A
C461   H465    1.083   .     S
C461   C401    1.387   1_655 S
C462   H466    1.083   .     S
C463   H467    1.082   .     S
C464   H468    1.082   .     S
C464   C400    1.387   1_655 S
C469   C718    1.331   1_545 S
C469   H719    1.087   1_545 S
C470   C593    1.331   .     S
C470   H596    1.087   .     S
H471   C593    1.087   .     S
H472   C718    1.087   1_545 S
N474   N845    1.298   .     S
N474   N866    1.384   .     S
N475   O477    1.301   .     A
N475   O476    1.301   .     A
N478   O479    1.301   .     A
N478   O480    1.301   .     A
O481   C482    1.412   .     S
C482   H484    1.108   .     S
C482   H483    1.112   .     S
C482   H485    1.113   .     S
O486   C487    1.412   .     S
C487   H490    1.113   .     S
C487   H489    1.112   .     S
C487   H488    1.108   .     S
N491   O492    1.300   .     A
N491   O493    1.302   .     A
N491   N845    1.384   .     S
N494   O496    1.302   .     A
N494   O495    1.300   .     A
O497   C501    1.296   .     A
O497   Cu509   1.949   .     S
O498   C502    1.296   .     A
O498   Cu510   1.949   .     S
O499   C501    1.295   .     A
O499   Cu510   1.947   .     S
O500   C502    1.295   .     A
O500   Cu509   1.947   .     S
C501   C531    1.428   .     S
C502   C532    1.428   .     S
O503   Cu509   1.965   .     S
O503   C507    1.301   .     A
O504   C508    1.301   .     A
O504   Cu510   1.965   .     S
O505   Cu510   1.953   .     S
O505   C507    1.297   .     A
O506   C508    1.297   .     A
O506   Cu509   1.953   .     S
C507   C514    1.448   .     S
C508   C513    1.448   .     S
Cu509  Cu510   2.709   .     S
Cu509  N536    2.036   .     S
Cu510  N535    2.036   .     S
C511   C521    1.404   .     A
C511   N537    1.438   .     S
C511   C513    1.407   .     A
C512   N540    1.438   .     S
C512   C522    1.404   .     A
C512   C514    1.407   .     A
C513   C515    1.403   .     A
C514   C516    1.403   .     A
C515   O543    1.386   .     S
C515   C517    1.400   .     A
C516   C518    1.400   .     A
C516   O548    1.386   .     S
C517   C523    1.401   .     A
C517   C519    1.414   .     A
C518   C524    1.401   .     A
C518   C520    1.414   .     A
C519   C521    1.416   .     A
C519   C582    1.409   .     S
C520   C522    1.416   .     A
C520   C581    1.409   1_455 S
C521   C526    1.405   .     A
C522   C525    1.405   .     A
C523   H527    1.083   .     S
C523   C587    1.387   .     S
C524   H528    1.083   .     S
C524   C588    1.387   1_455 S
C525   H529    1.082   .     S
C525   C585    1.387   1_455 S
C526   H530    1.082   .     S
C526   C586    1.387   .     S
C532   C655    1.331   .     S
C532   H658    1.087   .     S
H533   C655    1.087   .     S
N536   N907    1.298   .     S
N536   N928    1.384   .     S
N537   O539    1.301   .     A
N537   O538    1.301   .     A
N540   O541    1.301   .     A
N540   O542    1.301   .     A
O543   C544    1.412   .     S
C544   H546    1.108   .     S
C544   H545    1.112   .     S
C544   H547    1.113   .     S
O548   C549    1.412   .     S
C549   H552    1.113   .     S
C549   H551    1.112   .     S
C549   H550    1.108   .     S
N553   O554    1.300   .     A
N553   O555    1.302   .     A
N553   N907    1.384   .     S
N556   O558    1.302   .     A
N556   O557    1.300   .     A
O559   C563    1.296   .     A
O559   Cu571   1.949   .     S
O560   C564    1.296   .     A
O560   Cu572   1.949   .     S
O561   C563    1.295   .     A
O561   Cu572   1.947   .     S
O562   C564    1.295   .     A
O562   Cu571   1.947   .     S
C563   C593    1.428   .     S
C564   C594    1.428   .     S
O565   Cu571   1.965   .     S
O565   C569    1.301   .     A
O566   C570    1.301   .     A
O566   Cu572   1.965   .     S
O567   Cu572   1.953   .     S
O567   C569    1.297   .     A
O568   C570    1.297   .     A
O568   Cu571   1.953   .     S
C569   C576    1.448   .     S
C570   C575    1.448   .     S
Cu571  Cu572   2.709   .     S
Cu571  N598    2.036   .     S
Cu572  N597    2.036   .     S
C573   C583    1.404   .     A
C573   N599    1.438   .     S
C573   C575    1.407   .     A
C574   N602    1.438   .     S
C574   C584    1.404   .     A
C574   C576    1.407   .     A
C575   C577    1.403   .     A
C576   C578    1.403   .     A
C577   O605    1.386   .     S
C577   C579    1.400   .     A
C578   C580    1.400   .     A
C578   O610    1.386   .     S
C579   C585    1.401   .     A
C579   C581    1.414   .     A
C580   C586    1.401   .     A
C580   C582    1.414   .     A
C581   C583    1.416   .     A
C581   C520    1.409   1_655 S
C582   C584    1.416   .     A
C583   C588    1.405   .     A
C584   C587    1.405   .     A
C585   H589    1.083   .     S
C585   C525    1.387   1_655 S
C586   H590    1.083   .     S
C587   H591    1.082   .     S
C588   H592    1.082   .     S
C588   C524    1.387   1_655 S
C594   C717    1.331   .     S
C594   H720    1.087   .     S
H595   C717    1.087   .     S
N598   N969    1.298   .     S
N598   N990    1.384   .     S
N599   O601    1.301   .     A
N599   O600    1.301   .     A
N602   O603    1.301   .     A
N602   O604    1.301   .     A
O605   C606    1.412   .     S
C606   H608    1.108   .     S
C606   H607    1.112   .     S
C606   H609    1.113   .     S
O610   C611    1.412   .     S
C611   H614    1.113   .     S
C611   H613    1.112   .     S
C611   H612    1.108   .     S
N615   O616    1.300   .     A
N615   O617    1.302   .     A
N615   N969    1.384   .     S
N618   O620    1.302   .     A
N618   O619    1.300   .     A
O621   C625    1.296   .     A
O621   Cu633   1.949   .     S
O622   C626    1.296   .     A
O622   Cu634   1.949   .     S
O623   C625    1.295   .     A
O623   Cu634   1.947   .     S
O624   C626    1.295   .     A
O624   Cu633   1.947   .     S
C625   C655    1.428   .     S
C626   C656    1.428   .     S
O627   Cu633   1.965   .     S
O627   C631    1.301   .     A
O628   C632    1.301   .     A
O628   Cu634   1.965   .     S
O629   Cu634   1.953   .     S
O629   C631    1.297   .     A
O630   C632    1.297   .     A
O630   Cu633   1.953   .     S
C631   C638    1.448   .     S
C632   C637    1.448   .     S
Cu633  Cu634   2.709   .     S
Cu633  N660    2.036   .     S
Cu634  N659    2.036   .     S
C635   C645    1.404   .     A
C635   N661    1.438   .     S
C635   C637    1.407   .     A
C636   N664    1.438   .     S
C636   C646    1.404   .     A
C636   C638    1.407   .     A
C637   C639    1.403   .     A
C638   C640    1.403   .     A
C639   O667    1.386   .     S
C639   C641    1.400   .     A
C640   C642    1.400   .     A
C640   O672    1.386   .     S
C641   C647    1.401   .     A
C641   C643    1.414   .     A
C642   C648    1.401   .     A
C642   C644    1.414   .     A
C643   C645    1.416   .     A
C643   C706    1.409   .     S
C644   C646    1.416   .     A
C644   C705    1.409   1_455 S
C645   C650    1.405   .     A
C646   C649    1.405   .     A
C647   H651    1.083   .     S
C647   C711    1.387   .     S
C648   H652    1.083   .     S
C648   C712    1.387   1_455 S
C649   H653    1.082   .     S
C649   C709    1.387   1_455 S
C650   H654    1.082   .     S
C650   C710    1.387   .     S
C656   C407    1.331   1_565 S
C656   H410    1.087   1_565 S
H657   C407    1.087   1_565 S
N660   N1031   1.298   .     S
N660   N1052   1.384   .     S
N661   O663    1.301   .     A
N661   O662    1.301   .     A
N664   O665    1.301   .     A
N664   O666    1.301   .     A
O667   C668    1.412   .     S
C668   H670    1.108   .     S
C668   H669    1.112   .     S
C668   H671    1.113   .     S
O672   C673    1.412   .     S
C673   H676    1.113   .     S
C673   H675    1.112   .     S
C673   H674    1.108   .     S
N677   O678    1.300   .     A
N677   O679    1.302   .     A
N677   N1031   1.384   .     S
N680   O682    1.302   .     A
N680   O681    1.300   .     A
O683   C687    1.296   .     A
O683   Cu695   1.949   .     S
O684   C688    1.296   .     A
O684   Cu696   1.949   .     S
O685   C687    1.295   .     A
O685   Cu696   1.947   .     S
O686   C688    1.295   .     A
O686   Cu695   1.947   .     S
C687   C717    1.428   .     S
C688   C718    1.428   .     S
O689   Cu695   1.965   .     S
O689   C693    1.301   .     A
O690   C694    1.301   .     A
O690   Cu696   1.965   .     S
O691   Cu696   1.953   .     S
O691   C693    1.297   .     A
O692   C694    1.297   .     A
O692   Cu695   1.953   .     S
C693   C700    1.448   .     S
C694   C699    1.448   .     S
Cu695  Cu696   2.709   .     S
Cu695  N722    2.036   .     S
Cu696  N721    2.036   .     S
C697   C707    1.404   .     A
C697   N723    1.438   .     S
C697   C699    1.407   .     A
C698   N726    1.438   .     S
C698   C708    1.404   .     A
C698   C700    1.407   .     A
C699   C701    1.403   .     A
C700   C702    1.403   .     A
C701   O729    1.386   .     S
C701   C703    1.400   .     A
C702   C704    1.400   .     A
C702   O734    1.386   .     S
C703   C709    1.401   .     A
C703   C705    1.414   .     A
C704   C710    1.401   .     A
C704   C706    1.414   .     A
C705   C707    1.416   .     A
C705   C644    1.409   1_655 S
C706   C708    1.416   .     A
C707   C712    1.405   .     A
C708   C711    1.405   .     A
C709   H713    1.083   .     S
C709   C649    1.387   1_655 S
C710   H714    1.083   .     S
C711   H715    1.082   .     S
C712   H716    1.082   .     S
C712   C648    1.387   1_655 S
C718   C469    1.331   1_565 S
C718   H472    1.087   1_565 S
H719   C469    1.087   1_565 S
N722   N1093   1.298   .     S
N722   N1114   1.384   .     S
N723   O725    1.301   .     A
N723   O724    1.301   .     A
N726   O727    1.301   .     A
N726   O728    1.301   .     A
O729   C730    1.412   .     S
C730   H732    1.108   .     S
C730   H731    1.112   .     S
C730   H733    1.113   .     S
O734   C735    1.412   .     S
C735   H738    1.113   .     S
C735   H737    1.112   .     S
C735   H736    1.108   .     S
N739   O740    1.300   .     A
N739   O741    1.302   .     A
N739   N1093   1.384   .     S
N742   O744    1.302   .     A
N742   O743    1.300   .     A
O745   C749    1.296   .     A
O745   Cu757   1.949   .     S
O746   C750    1.296   .     A
O746   Cu758   1.949   .     S
O747   C749    1.295   .     A
O747   Cu758   1.947   .     S
O748   C750    1.295   .     A
O748   Cu757   1.947   .     S
C749   C779    1.428   .     S
C750   C780    1.428   .     S
O751   Cu757   1.965   .     S
O751   C755    1.301   .     A
O752   C756    1.301   .     A
O752   Cu758   1.965   .     S
O753   Cu758   1.953   .     S
O753   C755    1.297   .     A
O754   C756    1.297   .     A
O754   Cu757   1.953   .     S
C755   C762    1.448   .     S
C756   C761    1.448   .     S
Cu757  Cu758   2.709   .     S
Cu757  N784    2.036   .     S
Cu758  N783    2.036   .     S
C759   C769    1.404   .     A
C759   N785    1.438   .     S
C759   C761    1.407   .     A
C760   N788    1.438   .     S
C760   C770    1.404   .     A
C760   C762    1.407   .     A
C761   C763    1.403   .     A
C762   C764    1.403   .     A
C763   O791    1.386   .     S
C763   C765    1.400   .     A
C764   C766    1.400   .     A
C764   O796    1.386   .     S
C765   C771    1.401   .     A
C765   C767    1.414   .     A
C766   C772    1.401   .     A
C766   C768    1.414   .     A
C767   C769    1.416   .     A
C767   C830    1.409   .     S
C768   C770    1.416   .     A
C768   C829    1.409   1_455 S
C769   C774    1.405   .     A
C770   C773    1.405   .     A
C771   H775    1.083   .     S
C771   C835    1.387   .     S
C772   H776    1.083   .     S
C772   C836    1.387   1_455 S
C773   H777    1.082   .     S
C773   C833    1.387   1_455 S
C774   H778    1.082   .     S
C774   C834    1.387   .     S
C779   C1028   1.331   1_545 S
C779   H1029   1.087   1_545 S
C780   C903    1.331   .     S
C780   H906    1.087   .     S
H781   C903    1.087   .     S
H782   C1028   1.087   1_545 S
N784   N39     1.298   1_556 S
N784   N60     1.384   1_556 S
N785   O787    1.301   .     A
N785   O786    1.301   .     A
N788   O789    1.301   .     A
N788   O790    1.301   .     A
O791   C792    1.412   .     S
C792   H794    1.108   .     S
C792   H793    1.112   .     S
C792   H795    1.113   .     S
O796   C797    1.412   .     S
C797   H800    1.113   .     S
C797   H799    1.112   .     S
C797   H798    1.108   .     S
N801   O802    1.300   .     A
N801   O803    1.302   .     A
N801   N39     1.384   1_556 S
N804   O806    1.302   .     A
N804   O805    1.300   .     A
O807   C811    1.296   .     A
O807   Cu819   1.949   .     S
O808   C812    1.296   .     A
O808   Cu820   1.949   .     S
O809   C811    1.295   .     A
O809   Cu820   1.947   .     S
O810   C812    1.295   .     A
O810   Cu819   1.947   .     S
C811   C841    1.428   .     S
C812   C842    1.428   .     S
O813   Cu819   1.965   .     S
O813   C817    1.301   .     A
O814   C818    1.301   .     A
O814   Cu820   1.965   .     S
O815   Cu820   1.953   .     S
O815   C817    1.297   .     A
O816   C818    1.297   .     A
O816   Cu819   1.953   .     S
C817   C824    1.448   .     S
C818   C823    1.448   .     S
Cu819  Cu820   2.709   .     S
Cu819  N846    2.036   .     S
Cu820  N845    2.036   .     S
C821   C831    1.404   .     A
C821   N847    1.438   .     S
C821   C823    1.407   .     A
C822   N850    1.438   .     S
C822   C832    1.404   .     A
C822   C824    1.407   .     A
C823   C825    1.403   .     A
C824   C826    1.403   .     A
C825   O853    1.386   .     S
C825   C827    1.400   .     A
C826   C828    1.400   .     A
C826   O858    1.386   .     S
C827   C833    1.401   .     A
C827   C829    1.414   .     A
C828   C834    1.401   .     A
C828   C830    1.414   .     A
C829   C831    1.416   .     A
C829   C768    1.409   1_655 S
C830   C832    1.416   .     A
C831   C836    1.405   .     A
C832   C835    1.405   .     A
C833   H837    1.083   .     S
C833   C773    1.387   1_655 S
C834   H838    1.083   .     S
C835   H839    1.082   .     S
C836   H840    1.082   .     S
C836   C772    1.387   1_655 S
C841   C1090   1.331   1_545 S
C841   H1091   1.087   1_545 S
C842   C965    1.331   .     S
C842   H968    1.087   .     S
H843   C965    1.087   .     S
H844   C1090   1.087   1_545 S
N846   N101    1.298   1_556 S
N846   N122    1.384   1_556 S
N847   O849    1.301   .     A
N847   O848    1.301   .     A
N850   O851    1.301   .     A
N850   O852    1.301   .     A
O853   C854    1.412   .     S
C854   H856    1.108   .     S
C854   H855    1.112   .     S
C854   H857    1.113   .     S
O858   C859    1.412   .     S
C859   H862    1.113   .     S
C859   H861    1.112   .     S
C859   H860    1.108   .     S
N863   O864    1.300   .     A
N863   O865    1.302   .     A
N863   N101    1.384   1_556 S
N866   O868    1.302   .     A
N866   O867    1.300   .     A
O869   C873    1.296   .     A
O869   Cu881   1.949   .     S
O870   C874    1.296   .     A
O870   Cu882   1.949   .     S
O871   C873    1.295   .     A
O871   Cu882   1.947   .     S
O872   C874    1.295   .     A
O872   Cu881   1.947   .     S
C873   C903    1.428   .     S
C874   C904    1.428   .     S
O875   Cu881   1.965   .     S
O875   C879    1.301   .     A
O876   C880    1.301   .     A
O876   Cu882   1.965   .     S
O877   Cu882   1.953   .     S
O877   C879    1.297   .     A
O878   C880    1.297   .     A
O878   Cu881   1.953   .     S
C879   C886    1.448   .     S
C880   C885    1.448   .     S
Cu881  Cu882   2.709   .     S
Cu881  N908    2.036   .     S
Cu882  N907    2.036   .     S
C883   C893    1.404   .     A
C883   N909    1.438   .     S
C883   C885    1.407   .     A
C884   N912    1.438   .     S
C884   C894    1.404   .     A
C884   C886    1.407   .     A
C885   C887    1.403   .     A
C886   C888    1.403   .     A
C887   O915    1.386   .     S
C887   C889    1.400   .     A
C888   C890    1.400   .     A
C888   O920    1.386   .     S
C889   C895    1.401   .     A
C889   C891    1.414   .     A
C890   C896    1.401   .     A
C890   C892    1.414   .     A
C891   C893    1.416   .     A
C891   C954    1.409   .     S
C892   C894    1.416   .     A
C892   C953    1.409   1_455 S
C893   C898    1.405   .     A
C894   C897    1.405   .     A
C895   H899    1.083   .     S
C895   C959    1.387   .     S
C896   H900    1.083   .     S
C896   C960    1.387   1_455 S
C897   H901    1.082   .     S
C897   C957    1.387   1_455 S
C898   H902    1.082   .     S
C898   C958    1.387   .     S
C904   C1027   1.331   .     S
C904   H1030   1.087   .     S
H905   C1027   1.087   .     S
N908   N163    1.298   1_556 S
N908   N184    1.384   1_556 S
N909   O911    1.301   .     A
N909   O910    1.301   .     A
N912   O913    1.301   .     A
N912   O914    1.301   .     A
O915   C916    1.412   .     S
C916   H918    1.108   .     S
C916   H917    1.112   .     S
C916   H919    1.113   .     S
O920   C921    1.412   .     S
C921   H924    1.113   .     S
C921   H923    1.112   .     S
C921   H922    1.108   .     S
N925   O926    1.300   .     A
N925   O927    1.302   .     A
N925   N163    1.384   1_556 S
N928   O930    1.302   .     A
N928   O929    1.300   .     A
O931   C935    1.296   .     A
O931   Cu943   1.949   .     S
O932   C936    1.296   .     A
O932   Cu944   1.949   .     S
O933   C935    1.295   .     A
O933   Cu944   1.947   .     S
O934   C936    1.295   .     A
O934   Cu943   1.947   .     S
C935   C965    1.428   .     S
C936   C966    1.428   .     S
O937   Cu943   1.965   .     S
O937   C941    1.301   .     A
O938   C942    1.301   .     A
O938   Cu944   1.965   .     S
O939   Cu944   1.953   .     S
O939   C941    1.297   .     A
O940   C942    1.297   .     A
O940   Cu943   1.953   .     S
C941   C948    1.448   .     S
C942   C947    1.448   .     S
Cu943  Cu944   2.709   .     S
Cu943  N970    2.036   .     S
Cu944  N969    2.036   .     S
C945   C955    1.404   .     A
C945   N971    1.438   .     S
C945   C947    1.407   .     A
C946   N974    1.438   .     S
C946   C956    1.404   .     A
C946   C948    1.407   .     A
C947   C949    1.403   .     A
C948   C950    1.403   .     A
C949   O977    1.386   .     S
C949   C951    1.400   .     A
C950   C952    1.400   .     A
C950   O982    1.386   .     S
C951   C957    1.401   .     A
C951   C953    1.414   .     A
C952   C958    1.401   .     A
C952   C954    1.414   .     A
C953   C955    1.416   .     A
C953   C892    1.409   1_655 S
C954   C956    1.416   .     A
C955   C960    1.405   .     A
C956   C959    1.405   .     A
C957   H961    1.083   .     S
C957   C897    1.387   1_655 S
C958   H962    1.083   .     S
C959   H963    1.082   .     S
C960   H964    1.082   .     S
C960   C896    1.387   1_655 S
C966   C1089   1.331   .     S
C966   H1092   1.087   .     S
H967   C1089   1.087   .     S
N970   N225    1.298   1_556 S
N970   N246    1.384   1_556 S
N971   O973    1.301   .     A
N971   O972    1.301   .     A
N974   O975    1.301   .     A
N974   O976    1.301   .     A
O977   C978    1.412   .     S
C978   H980    1.108   .     S
C978   H979    1.112   .     S
C978   H981    1.113   .     S
O982   C983    1.412   .     S
C983   H986    1.113   .     S
C983   H985    1.112   .     S
C983   H984    1.108   .     S
N987   O988    1.300   .     A
N987   O989    1.302   .     A
N987   N225    1.384   1_556 S
N990   O992    1.302   .     A
N990   O991    1.300   .     A
O993   C997    1.296   .     A
O993   Cu1005  1.949   .     S
O994   C998    1.296   .     A
O994   Cu1006  1.949   .     S
O995   C997    1.295   .     A
O995   Cu1006  1.947   .     S
O996   C998    1.295   .     A
O996   Cu1005  1.947   .     S
C997   C1027   1.428   .     S
C998   C1028   1.428   .     S
O999   Cu1005  1.965   .     S
O999   C1003   1.301   .     A
O1000  C1004   1.301   .     A
O1000  Cu1006  1.965   .     S
O1001  Cu1006  1.953   .     S
O1001  C1003   1.297   .     A
O1002  C1004   1.297   .     A
O1002  Cu1005  1.953   .     S
C1003  C1010   1.448   .     S
C1004  C1009   1.448   .     S
Cu1005 Cu1006  2.709   .     S
Cu1005 N1032   2.036   .     S
Cu1006 N1031   2.036   .     S
C1007  C1017   1.404   .     A
C1007  N1033   1.438   .     S
C1007  C1009   1.407   .     A
C1008  N1036   1.438   .     S
C1008  C1018   1.404   .     A
C1008  C1010   1.407   .     A
C1009  C1011   1.403   .     A
C1010  C1012   1.403   .     A
C1011  O1039   1.386   .     S
C1011  C1013   1.400   .     A
C1012  C1014   1.400   .     A
C1012  O1044   1.386   .     S
C1013  C1019   1.401   .     A
C1013  C1015   1.414   .     A
C1014  C1020   1.401   .     A
C1014  C1016   1.414   .     A
C1015  C1017   1.416   .     A
C1015  C1078   1.409   .     S
C1016  C1018   1.416   .     A
C1016  C1077   1.409   1_455 S
C1017  C1022   1.405   .     A
C1018  C1021   1.405   .     A
C1019  H1023   1.083   .     S
C1019  C1083   1.387   .     S
C1020  H1024   1.083   .     S
C1020  C1084   1.387   1_455 S
C1021  H1025   1.082   .     S
C1021  C1081   1.387   1_455 S
C1022  H1026   1.082   .     S
C1022  C1082   1.387   .     S
C1028  C779    1.331   1_565 S
C1028  H782    1.087   1_565 S
H1029  C779    1.087   1_565 S
N1032  N287    1.298   1_556 S
N1032  N308    1.384   1_556 S
N1033  O1035   1.301   .     A
N1033  O1034   1.301   .     A
N1036  O1037   1.301   .     A
N1036  O1038   1.301   .     A
O1039  C1040   1.412   .     S
C1040  H1042   1.108   .     S
C1040  H1041   1.112   .     S
C1040  H1043   1.113   .     S
O1044  C1045   1.412   .     S
C1045  H1048   1.113   .     S
C1045  H1047   1.112   .     S
C1045  H1046   1.108   .     S
N1049  O1050   1.300   .     A
N1049  O1051   1.302   .     A
N1049  N287    1.384   1_556 S
N1052  O1054   1.302   .     A
N1052  O1053   1.300   .     A
O1055  C1059   1.296   .     A
O1055  Cu1067  1.949   .     S
O1056  C1060   1.296   .     A
O1056  Cu1068  1.949   .     S
O1057  C1059   1.295   .     A
O1057  Cu1068  1.947   .     S
O1058  C1060   1.295   .     A
O1058  Cu1067  1.947   .     S
C1059  C1089   1.428   .     S
C1060  C1090   1.428   .     S
O1061  Cu1067  1.965   .     S
O1061  C1065   1.301   .     A
O1062  C1066   1.301   .     A
O1062  Cu1068  1.965   .     S
O1063  Cu1068  1.953   .     S
O1063  C1065   1.297   .     A
O1064  C1066   1.297   .     A
O1064  Cu1067  1.953   .     S
C1065  C1072   1.448   .     S
C1066  C1071   1.448   .     S
Cu1067 Cu1068  2.709   .     S
Cu1067 N1094   2.036   .     S
Cu1068 N1093   2.036   .     S
C1069  C1079   1.404   .     A
C1069  N1095   1.438   .     S
C1069  C1071   1.407   .     A
C1070  N1098   1.438   .     S
C1070  C1080   1.404   .     A
C1070  C1072   1.407   .     A
C1071  C1073   1.403   .     A
C1072  C1074   1.403   .     A
C1073  O1101   1.386   .     S
C1073  C1075   1.400   .     A
C1074  C1076   1.400   .     A
C1074  O1106   1.386   .     S
C1075  C1081   1.401   .     A
C1075  C1077   1.414   .     A
C1076  C1082   1.401   .     A
C1076  C1078   1.414   .     A
C1077  C1079   1.416   .     A
C1077  C1016   1.409   1_655 S
C1078  C1080   1.416   .     A
C1079  C1084   1.405   .     A
C1080  C1083   1.405   .     A
C1081  H1085   1.083   .     S
C1081  C1021   1.387   1_655 S
C1082  H1086   1.083   .     S
C1083  H1087   1.082   .     S
C1084  H1088   1.082   .     S
C1084  C1020   1.387   1_655 S
C1090  C841    1.331   1_565 S
C1090  H844    1.087   1_565 S
H1091  C841    1.087   1_565 S
N1094  N349    1.298   1_556 S
N1094  N370    1.384   1_556 S
N1095  O1097   1.301   .     A
N1095  O1096   1.301   .     A
N1098  O1099   1.301   .     A
N1098  O1100   1.301   .     A
O1101  C1102   1.412   .     S
C1102  H1104   1.108   .     S
C1102  H1103   1.112   .     S
C1102  H1105   1.113   .     S
O1106  C1107   1.412   .     S
C1107  H1110   1.113   .     S
C1107  H1109   1.112   .     S
C1107  H1108   1.108   .     S
N1111  O1112   1.300   .     A
N1111  O1113   1.302   .     A
N1111  N349    1.384   1_556 S
N1114  O1116   1.302   .     A
N1114  O1115   1.300   .     A
