data_str_m3_o1_o1_pcu_sym.33
_audit_creation_date              2020-01-03
_audit_creation_method            'Materials Studio'
_symmetry_space_group_name_H-M    'P1'
_symmetry_Int_Tables_number       1
_symmetry_cell_setting            triclinic
loop_
_symmetry_equiv_pos_as_xyz
  x,y,z
_cell_length_a                    31.0934
_cell_length_b                    29.2746
_cell_length_c                    29.9328
_cell_angle_alpha                 89.6892
_cell_angle_beta                  89.7043
_cell_angle_gamma                 89.9986
loop_
_atom_site_label
_atom_site_type_symbol
_atom_site_fract_x
_atom_site_fract_y
_atom_site_fract_z
_atom_site_U_iso_or_equiv
_atom_site_adp_type
_atom_site_occupancy
C1     C     0.06328   0.19386   0.16675   0.00000  Uiso   1.00
C2     C     0.49800   0.20969   0.30962   0.00000  Uiso   1.00
C3     C     0.49855   0.20966   0.02407   0.00000  Uiso   1.00
C4     C     0.00089   0.29043   0.30921   0.00000  Uiso   1.00
C5     C     0.25200   0.04031   0.02372   0.00000  Uiso   1.00
C6     C     0.24951   0.45957   0.30962   0.00000  Uiso   1.00
C7     C     0.24910   0.45957   0.02412   0.00000  Uiso   1.00
C8     C     0.25145   0.04034   0.30926   0.00000  Uiso   1.00
C9     C     0.36350   0.17192   0.16894   0.00000  Uiso   1.00
C10    C     0.11734   0.35141   0.20691   0.00000  Uiso   1.00
C11    C     0.11525   0.35489   0.12542   0.00000  Uiso   1.00
C12    C     0.43705   0.30670   0.16678   0.00000  Uiso   1.00
C13    C     0.41887   0.11102   0.16604   0.00000  Uiso   1.00
C14    C     0.11433   0.14491   0.20797   0.00000  Uiso   1.00
C15    C     0.38297   0.35206   0.12631   0.00000  Uiso   1.00
C16    C     0.38493   0.35449   0.20789   0.00000  Uiso   1.00
C17    C     0.11692   0.14808   0.12615   0.00000  Uiso   1.00
C18    C     0.13266   0.39859   0.12642   0.00000  Uiso   1.00
C19    C     0.38650   0.07808   0.16440   0.00000  Uiso   1.00
C20    C     0.33113   0.13898   0.16729   0.00000  Uiso   1.00
C21    C     0.13475   0.39511   0.20792   0.00000  Uiso   1.00
C22    C     0.36703   0.39794   0.20703   0.00000  Uiso   1.00
C23    C     0.44002   0.19043   0.16687   0.00000  Uiso   1.00
C24    C     0.13566   0.10508   0.12536   0.00000  Uiso   1.00
C25    C     0.13308   0.10191   0.20718   0.00000  Uiso   1.00
C26    C     0.36507   0.39551   0.12544   0.00000  Uiso   1.00
C27    C     0.10187   0.33466   0.16601   0.00000  Uiso   1.00
C28    C     0.40675   0.15729   0.16748   0.00000  Uiso   1.00
C29    C     0.39865   0.33516   0.16718   0.00000  Uiso   1.00
C30    C     0.10111   0.16471   0.16714   0.00000  Uiso   1.00
C31    C     0.34325   0.09271   0.16586   0.00000  Uiso   1.00
C32    C     0.14813   0.41534   0.16732   0.00000  Uiso   1.00
C33    C     0.14889   0.08529   0.16619   0.00000  Uiso   1.00
C34    C     0.06354   0.30589   0.16646   0.00000  Uiso   1.00
C35    C     0.35135   0.41484   0.16615   0.00000  Uiso   1.00
C36    C     0.49936   0.33619   0.04710   0.00000  Uiso   1.00
C37    C     0.49297   0.16449   0.28600   0.00000  Uiso   1.00
C38    C     0.49660   0.16410   0.04794   0.00000  Uiso   1.00
C39    C     0.00192   0.33626   0.28541   0.00000  Uiso   1.00
C40    C     0.25703   0.08551   0.04734   0.00000  Uiso   1.00
C41    C     0.25064   0.41381   0.28624   0.00000  Uiso   1.00
C42    C     0.24808   0.41374   0.04792   0.00000  Uiso   1.00
C43    C     0.25340   0.08590   0.28539   0.00000  Uiso   1.00
C44    C     0.35162   0.22195   0.17304   0.00000  Uiso   1.00
C45    C     0.31295   0.44330   0.16655   0.00000  Uiso   1.00
C46    C     0.12032   0.32163   0.24829   0.00000  Uiso   1.00
C47    C     0.11643   0.32892   0.08183   0.00000  Uiso   1.00
C48    C     0.46636   0.09798   0.16635   0.00000  Uiso   1.00
C49    C     0.11245   0.17032   0.25195   0.00000  Uiso   1.00
C50    C     0.38029   0.32264   0.08491   0.00000  Uiso   1.00
C51    C     0.38399   0.32772   0.25136   0.00000  Uiso   1.00
C52    C     0.11755   0.17707   0.08402   0.00000  Uiso   1.00
C53    C     0.12968   0.42837   0.08505   0.00000  Uiso   1.00
C54    C     0.39838   0.02805   0.16029   0.00000  Uiso   1.00
C55    C     0.28364   0.15202   0.16699   0.00000  Uiso   1.00
C56    C     0.18672   0.05614   0.16659   0.00000  Uiso   1.00
C57    C     0.13357   0.42108   0.25150   0.00000  Uiso   1.00
C58    C     0.36971   0.42736   0.24842   0.00000  Uiso   1.00
C59    C     0.13755   0.07968   0.08138   0.00000  Uiso   1.00
C60    C     0.13245   0.07293   0.24932   0.00000  Uiso   1.00
C61    C     0.36601   0.42228   0.08197   0.00000  Uiso   1.00
C62    C     0.18646   0.44411   0.16687   0.00000  Uiso   1.00
C63    C     0.30998   0.05957   0.16647   0.00000  Uiso   1.00
C64    C     0.00049   0.29043   0.02372   0.00000  Uiso   1.00
H65    H     0.00061   0.33453   0.08326   0.00000  Uiso   1.00
H66    H     0.49984   0.33476   0.24931   0.00000  Uiso   1.00
H67    H     0.47464   0.35782   0.29626   0.00000  Uiso   1.00
H68    H     0.03188   0.35478   0.29343   0.00000  Uiso   1.00
H69    H     0.25019   0.08372   0.08279   0.00000  Uiso   1.00
H70    H     0.29028   0.09852   0.04254   0.00000  Uiso   1.00
H71    H     0.23394   0.11131   0.03491   0.00000  Uiso   1.00
H72    H     0.24939   0.41547   0.25007   0.00000  Uiso   1.00
H73    H     0.28050   0.39525   0.29479   0.00000  Uiso   1.00
H74    H     0.22324   0.39226   0.29698   0.00000  Uiso   1.00
H75    H     0.25016   0.41524   0.08403   0.00000  Uiso   1.00
H76    H     0.02676   0.35774   0.03635   0.00000  Uiso   1.00
H77    H     0.21812   0.39522   0.03991   0.00000  Uiso   1.00
H78    H     0.27536   0.39218   0.03707   0.00000  Uiso   1.00
H79    H     0.24999   0.08373   0.24959   0.00000  Uiso   1.00
H80    H     0.22651   0.10820   0.29607   0.00000  Uiso   1.00
H81    H     0.28450   0.10303   0.29232   0.00000  Uiso   1.00
H82    H     0.37952   0.24420   0.17794   0.00000  Uiso   1.00
H83    H     0.33495   0.23371   0.14235   0.00000  Uiso   1.00
H84    H     0.33061   0.22708   0.20271   0.00000  Uiso   1.00
H85    H     0.11421   0.28527   0.24080   0.00000  Uiso   1.00
H86    H     0.15353   0.32312   0.26169   0.00000  Uiso   1.00
H87    H     0.46950   0.35475   0.03855   0.00000  Uiso   1.00
H88    H     0.09789   0.33337   0.27454   0.00000  Uiso   1.00
H89    H     0.09300   0.34312   0.05794   0.00000  Uiso   1.00
H90    H     0.14902   0.33182   0.06670   0.00000  Uiso   1.00
H91    H     0.11072   0.29194   0.08655   0.00000  Uiso   1.00
H92    H     0.48224   0.11084   0.13559   0.00000  Uiso   1.00
H93    H     0.48228   0.11320   0.19573   0.00000  Uiso   1.00
H94    H     0.47276   0.06089   0.16833   0.00000  Uiso   1.00
H95    H     0.11133   0.20771   0.24668   0.00000  Uiso   1.00
H96    H     0.08439   0.15902   0.27202   0.00000  Uiso   1.00
H97    H     0.14214   0.16401   0.27150   0.00000  Uiso   1.00
H98    H     0.49981   0.16627   0.25055   0.00000  Uiso   1.00
H99    H     0.38590   0.28597   0.09239   0.00000  Uiso   1.00
H100   H     0.34730   0.32466   0.07098   0.00000  Uiso   1.00
H101   H     0.40321   0.33448   0.05903   0.00000  Uiso   1.00
H102   H     0.40824   0.34091   0.27480   0.00000  Uiso   1.00
H103   H     0.35178   0.33114   0.26722   0.00000  Uiso   1.00
H104   H     0.38873   0.29057   0.24632   0.00000  Uiso   1.00
H105   H     0.09098   0.16729   0.06152   0.00000  Uiso   1.00
H106   H     0.11539   0.21387   0.09197   0.00000  Uiso   1.00
H107   H     0.14858   0.17276   0.06599   0.00000  Uiso   1.00
H108   H     0.13579   0.46473   0.09253   0.00000  Uiso   1.00
H109   H     0.01606   0.13869   0.29843   0.00000  Uiso   1.00
H110   H     0.15211   0.41663   0.05880   0.00000  Uiso   1.00
H111   H     0.09647   0.42688   0.07165   0.00000  Uiso   1.00
H112   H     0.37048   0.00580   0.15540   0.00000  Uiso   1.00
H113   H     0.41939   0.02292   0.13063   0.00000  Uiso   1.00
H114   H     0.41505   0.01629   0.19098   0.00000  Uiso   1.00
H115   H     0.26776   0.13916   0.19774   0.00000  Uiso   1.00
H116   H     0.27724   0.18911   0.16500   0.00000  Uiso   1.00
H117   H     0.26772   0.13680   0.13760   0.00000  Uiso   1.00
H118   H     0.15700   0.40689   0.27540   0.00000  Uiso   1.00
H119   H     0.13928   0.45806   0.24679   0.00000  Uiso   1.00
H120   H     0.45972   0.15148   0.29080   0.00000  Uiso   1.00
H121   H     0.10098   0.41818   0.26663   0.00000  Uiso   1.00
H122   H     0.36410   0.46403   0.24095   0.00000  Uiso   1.00
H123   H     0.34679   0.41551   0.27430   0.00000  Uiso   1.00
H124   H     0.40270   0.42534   0.26236   0.00000  Uiso   1.00
H125   H     0.13867   0.04229   0.08665   0.00000  Uiso   1.00
H126   H     0.10786   0.08599   0.06183   0.00000  Uiso   1.00
H127   H     0.16561   0.09098   0.06132   0.00000  Uiso   1.00
H128   H     0.15902   0.08271   0.27181   0.00000  Uiso   1.00
H129   H     0.10142   0.07724   0.26734   0.00000  Uiso   1.00
H130   H     0.13460   0.03613   0.24136   0.00000  Uiso   1.00
H131   H     0.00000   0.16627   0.08375   0.00000  Uiso   1.00
H132   H     0.34176   0.40909   0.05853   0.00000  Uiso   1.00
H133   H     0.36127   0.45943   0.08701   0.00000  Uiso   1.00
H134   H     0.39822   0.41886   0.06611   0.00000  Uiso   1.00
H135   H     0.46550   0.14697   0.04101   0.00000  Uiso   1.00
H136   H     0.02348   0.14180   0.03726   0.00000  Uiso   1.00
N137   N     0.00000   0.25000   0.28573   0.00000  Uiso   1.00
N138   N     0.00000   0.25000   0.04760   0.00000  Uiso   1.00
N139   N     0.25000  -0.00000   0.28573   0.00000  Uiso   1.00
N140   N     0.25000   0.00000   0.04760   0.00000  Uiso   1.00
O141   O     0.04580   0.20419   0.20487   0.00000  Uiso   1.00
O142   O     0.20419   0.04581   0.12846   0.00000  Uiso   1.00
O143   O     0.20419   0.04581   0.20487   0.00000  Uiso   1.00
O144   O     0.29580   0.45419   0.12846   0.00000  Uiso   1.00
O145   O     0.20419   0.45419   0.12846   0.00000  Uiso   1.00
O146   O     0.29580   0.04581   0.20487   0.00000  Uiso   1.00
O147   O     0.29580   0.04581   0.12846   0.00000  Uiso   1.00
O148   O     0.20419   0.45419   0.20487   0.00000  Uiso   1.00
O149   O     0.45419   0.29581   0.12846   0.00000  Uiso   1.00
O150   O     0.45419   0.29581   0.20487   0.00000  Uiso   1.00
O151   O     0.04580   0.20419   0.12846   0.00000  Uiso   1.00
O152   O     0.45419   0.20419   0.12846   0.00000  Uiso   1.00
O153   O     0.04580   0.29581   0.20487   0.00000  Uiso   1.00
O154   O     0.04580   0.29581   0.12846   0.00000  Uiso   1.00
O155   O     0.45419   0.20419   0.20487   0.00000  Uiso   1.00
O156   O     0.29580   0.45419   0.20487   0.00000  Uiso   1.00
Zn157  Zn    0.00000   0.25000   0.21771   0.00000  Uiso   1.00
Zn158  Zn    0.00000   0.25000   0.11563   0.00000  Uiso   1.00
Zn159  Zn    0.25000   0.00000   0.21771   0.00000  Uiso   1.00
Zn160  Zn    0.25000   0.00000   0.11563   0.00000  Uiso   1.00
C161   C     0.56328   0.19386   0.16675   0.00000  Uiso   1.00
C162   C     0.99800   0.20969   0.30962   0.00000  Uiso   1.00
C163   C     0.99855   0.20966   0.02407   0.00000  Uiso   1.00
C164   C     0.50089   0.29043   0.30921   0.00000  Uiso   1.00
C165   C     0.75200   0.04031   0.02372   0.00000  Uiso   1.00
C166   C     0.74951   0.45957   0.30962   0.00000  Uiso   1.00
C167   C     0.74910   0.45957   0.02412   0.00000  Uiso   1.00
C168   C     0.75145   0.04034   0.30926   0.00000  Uiso   1.00
C169   C     0.86350   0.17192   0.16894   0.00000  Uiso   1.00
C170   C     0.61734   0.35141   0.20691   0.00000  Uiso   1.00
C171   C     0.61525   0.35489   0.12542   0.00000  Uiso   1.00
C172   C     0.93705   0.30670   0.16678   0.00000  Uiso   1.00
C173   C     0.91887   0.11102   0.16604   0.00000  Uiso   1.00
C174   C     0.61433   0.14491   0.20797   0.00000  Uiso   1.00
C175   C     0.88297   0.35206   0.12631   0.00000  Uiso   1.00
C176   C     0.88493   0.35449   0.20789   0.00000  Uiso   1.00
C177   C     0.61692   0.14808   0.12615   0.00000  Uiso   1.00
C178   C     0.63266   0.39859   0.12642   0.00000  Uiso   1.00
C179   C     0.88650   0.07808   0.16440   0.00000  Uiso   1.00
C180   C     0.83113   0.13898   0.16729   0.00000  Uiso   1.00
C181   C     0.63475   0.39511   0.20792   0.00000  Uiso   1.00
C182   C     0.86703   0.39794   0.20703   0.00000  Uiso   1.00
C183   C     0.94002   0.19043   0.16687   0.00000  Uiso   1.00
C184   C     0.63566   0.10508   0.12536   0.00000  Uiso   1.00
C185   C     0.63308   0.10191   0.20718   0.00000  Uiso   1.00
C186   C     0.86507   0.39551   0.12544   0.00000  Uiso   1.00
C187   C     0.60187   0.33466   0.16601   0.00000  Uiso   1.00
C188   C     0.90675   0.15729   0.16748   0.00000  Uiso   1.00
C189   C     0.89865   0.33516   0.16718   0.00000  Uiso   1.00
C190   C     0.60111   0.16471   0.16714   0.00000  Uiso   1.00
C191   C     0.84325   0.09271   0.16586   0.00000  Uiso   1.00
C192   C     0.64813   0.41534   0.16732   0.00000  Uiso   1.00
C193   C     0.64889   0.08529   0.16619   0.00000  Uiso   1.00
C194   C     0.56354   0.30589   0.16646   0.00000  Uiso   1.00
C195   C     0.85135   0.41484   0.16615   0.00000  Uiso   1.00
C196   C     0.99936   0.33619   0.04710   0.00000  Uiso   1.00
C197   C     0.99297   0.16449   0.28600   0.00000  Uiso   1.00
C198   C     0.99660   0.16410   0.04794   0.00000  Uiso   1.00
C199   C     0.50192   0.33626   0.28541   0.00000  Uiso   1.00
C200   C     0.75703   0.08551   0.04734   0.00000  Uiso   1.00
C201   C     0.75064   0.41381   0.28624   0.00000  Uiso   1.00
C202   C     0.74808   0.41374   0.04792   0.00000  Uiso   1.00
C203   C     0.75340   0.08590   0.28539   0.00000  Uiso   1.00
C204   C     0.85162   0.22195   0.17304   0.00000  Uiso   1.00
C205   C     0.81295   0.44330   0.16655   0.00000  Uiso   1.00
C206   C     0.62032   0.32163   0.24829   0.00000  Uiso   1.00
C207   C     0.61643   0.32892   0.08183   0.00000  Uiso   1.00
C208   C     0.96636   0.09798   0.16635   0.00000  Uiso   1.00
C209   C     0.61245   0.17032   0.25195   0.00000  Uiso   1.00
C210   C     0.88029   0.32264   0.08491   0.00000  Uiso   1.00
C211   C     0.88399   0.32772   0.25136   0.00000  Uiso   1.00
C212   C     0.61755   0.17707   0.08402   0.00000  Uiso   1.00
C213   C     0.62968   0.42837   0.08505   0.00000  Uiso   1.00
C214   C     0.89838   0.02805   0.16029   0.00000  Uiso   1.00
C215   C     0.78364   0.15202   0.16699   0.00000  Uiso   1.00
C216   C     0.68672   0.05614   0.16659   0.00000  Uiso   1.00
C217   C     0.63357   0.42108   0.25150   0.00000  Uiso   1.00
C218   C     0.86971   0.42736   0.24842   0.00000  Uiso   1.00
C219   C     0.63755   0.07968   0.08138   0.00000  Uiso   1.00
C220   C     0.63245   0.07293   0.24932   0.00000  Uiso   1.00
C221   C     0.86601   0.42228   0.08197   0.00000  Uiso   1.00
C222   C     0.68646   0.44411   0.16687   0.00000  Uiso   1.00
C223   C     0.80998   0.05957   0.16647   0.00000  Uiso   1.00
C224   C     0.50049   0.29043   0.02372   0.00000  Uiso   1.00
H225   H     0.50061   0.33453   0.08326   0.00000  Uiso   1.00
H226   H     0.99984   0.33476   0.24931   0.00000  Uiso   1.00
H227   H     0.97464   0.35782   0.29626   0.00000  Uiso   1.00
H228   H     0.53188   0.35478   0.29343   0.00000  Uiso   1.00
H229   H     0.75019   0.08372   0.08279   0.00000  Uiso   1.00
H230   H     0.79028   0.09852   0.04254   0.00000  Uiso   1.00
H231   H     0.73394   0.11131   0.03491   0.00000  Uiso   1.00
H232   H     0.74939   0.41547   0.25007   0.00000  Uiso   1.00
H233   H     0.78050   0.39525   0.29479   0.00000  Uiso   1.00
H234   H     0.72324   0.39226   0.29698   0.00000  Uiso   1.00
H235   H     0.75016   0.41524   0.08403   0.00000  Uiso   1.00
H236   H     0.52676   0.35774   0.03635   0.00000  Uiso   1.00
H237   H     0.71812   0.39522   0.03991   0.00000  Uiso   1.00
H238   H     0.77536   0.39218   0.03707   0.00000  Uiso   1.00
H239   H     0.74999   0.08373   0.24959   0.00000  Uiso   1.00
H240   H     0.72651   0.10820   0.29607   0.00000  Uiso   1.00
H241   H     0.78450   0.10303   0.29232   0.00000  Uiso   1.00
H242   H     0.87952   0.24420   0.17794   0.00000  Uiso   1.00
H243   H     0.83495   0.23371   0.14235   0.00000  Uiso   1.00
H244   H     0.83061   0.22708   0.20271   0.00000  Uiso   1.00
H245   H     0.61421   0.28527   0.24080   0.00000  Uiso   1.00
H246   H     0.65353   0.32312   0.26169   0.00000  Uiso   1.00
H247   H     0.96950   0.35475   0.03855   0.00000  Uiso   1.00
H248   H     0.59789   0.33337   0.27454   0.00000  Uiso   1.00
H249   H     0.59300   0.34312   0.05794   0.00000  Uiso   1.00
H250   H     0.64902   0.33182   0.06670   0.00000  Uiso   1.00
H251   H     0.61072   0.29194   0.08655   0.00000  Uiso   1.00
H252   H     0.98224   0.11084   0.13559   0.00000  Uiso   1.00
H253   H     0.98228   0.11320   0.19573   0.00000  Uiso   1.00
H254   H     0.97276   0.06089   0.16833   0.00000  Uiso   1.00
H255   H     0.61133   0.20771   0.24668   0.00000  Uiso   1.00
H256   H     0.58439   0.15902   0.27202   0.00000  Uiso   1.00
H257   H     0.64214   0.16401   0.27150   0.00000  Uiso   1.00
H258   H     0.99981   0.16627   0.25055   0.00000  Uiso   1.00
H259   H     0.88590   0.28597   0.09239   0.00000  Uiso   1.00
H260   H     0.84730   0.32466   0.07098   0.00000  Uiso   1.00
H261   H     0.90321   0.33448   0.05903   0.00000  Uiso   1.00
H262   H     0.90824   0.34091   0.27480   0.00000  Uiso   1.00
H263   H     0.85178   0.33114   0.26722   0.00000  Uiso   1.00
H264   H     0.88873   0.29057   0.24632   0.00000  Uiso   1.00
H265   H     0.59098   0.16729   0.06152   0.00000  Uiso   1.00
H266   H     0.61539   0.21387   0.09197   0.00000  Uiso   1.00
H267   H     0.64858   0.17276   0.06599   0.00000  Uiso   1.00
H268   H     0.63579   0.46473   0.09253   0.00000  Uiso   1.00
H269   H     0.51606   0.13869   0.29843   0.00000  Uiso   1.00
H270   H     0.65211   0.41663   0.05880   0.00000  Uiso   1.00
H271   H     0.59647   0.42688   0.07165   0.00000  Uiso   1.00
H272   H     0.87048   0.00580   0.15540   0.00000  Uiso   1.00
H273   H     0.91939   0.02292   0.13063   0.00000  Uiso   1.00
H274   H     0.91505   0.01629   0.19098   0.00000  Uiso   1.00
H275   H     0.76776   0.13916   0.19774   0.00000  Uiso   1.00
H276   H     0.77724   0.18911   0.16500   0.00000  Uiso   1.00
H277   H     0.76772   0.13680   0.13760   0.00000  Uiso   1.00
H278   H     0.65700   0.40689   0.27540   0.00000  Uiso   1.00
H279   H     0.63928   0.45806   0.24679   0.00000  Uiso   1.00
H280   H     0.95972   0.15148   0.29080   0.00000  Uiso   1.00
H281   H     0.60098   0.41818   0.26663   0.00000  Uiso   1.00
H282   H     0.86410   0.46403   0.24095   0.00000  Uiso   1.00
H283   H     0.84679   0.41551   0.27430   0.00000  Uiso   1.00
H284   H     0.90270   0.42534   0.26236   0.00000  Uiso   1.00
H285   H     0.63867   0.04229   0.08665   0.00000  Uiso   1.00
H286   H     0.60786   0.08599   0.06183   0.00000  Uiso   1.00
H287   H     0.66561   0.09098   0.06132   0.00000  Uiso   1.00
H288   H     0.65902   0.08271   0.27181   0.00000  Uiso   1.00
H289   H     0.60142   0.07724   0.26734   0.00000  Uiso   1.00
H290   H     0.63460   0.03613   0.24136   0.00000  Uiso   1.00
H291   H     0.50000   0.16627   0.08375   0.00000  Uiso   1.00
H292   H     0.84176   0.40909   0.05853   0.00000  Uiso   1.00
H293   H     0.86127   0.45943   0.08701   0.00000  Uiso   1.00
H294   H     0.89822   0.41886   0.06611   0.00000  Uiso   1.00
H295   H     0.96550   0.14697   0.04101   0.00000  Uiso   1.00
H296   H     0.52348   0.14180   0.03726   0.00000  Uiso   1.00
N297   N     0.50000   0.25000   0.28573   0.00000  Uiso   1.00
N298   N     0.50000   0.25000   0.04760   0.00000  Uiso   1.00
N299   N     0.75000  -0.00000   0.28573   0.00000  Uiso   1.00
N300   N     0.75000   0.00000   0.04760   0.00000  Uiso   1.00
O301   O     0.54580   0.20419   0.20487   0.00000  Uiso   1.00
O302   O     0.70419   0.04581   0.12846   0.00000  Uiso   1.00
O303   O     0.70419   0.04581   0.20487   0.00000  Uiso   1.00
O304   O     0.79580   0.45419   0.12846   0.00000  Uiso   1.00
O305   O     0.70419   0.45419   0.12846   0.00000  Uiso   1.00
O306   O     0.79580   0.04581   0.20487   0.00000  Uiso   1.00
O307   O     0.79580   0.04581   0.12846   0.00000  Uiso   1.00
O308   O     0.70419   0.45419   0.20487   0.00000  Uiso   1.00
O309   O     0.95419   0.29581   0.12846   0.00000  Uiso   1.00
O310   O     0.95419   0.29581   0.20487   0.00000  Uiso   1.00
O311   O     0.54580   0.20419   0.12846   0.00000  Uiso   1.00
O312   O     0.95419   0.20419   0.12846   0.00000  Uiso   1.00
O313   O     0.54580   0.29581   0.20487   0.00000  Uiso   1.00
O314   O     0.54580   0.29581   0.12846   0.00000  Uiso   1.00
O315   O     0.95419   0.20419   0.20487   0.00000  Uiso   1.00
O316   O     0.79580   0.45419   0.20487   0.00000  Uiso   1.00
Zn317  Zn    0.50000   0.25000   0.21771   0.00000  Uiso   1.00
Zn318  Zn    0.50000   0.25000   0.11563   0.00000  Uiso   1.00
Zn319  Zn    0.75000   0.00000   0.21771   0.00000  Uiso   1.00
Zn320  Zn    0.75000   0.00000   0.11563   0.00000  Uiso   1.00
C321   C     0.06328   0.69386   0.16675   0.00000  Uiso   1.00
C322   C     0.49800   0.70969   0.30962   0.00000  Uiso   1.00
C323   C     0.49855   0.70966   0.02407   0.00000  Uiso   1.00
C324   C     0.00089   0.79043   0.30921   0.00000  Uiso   1.00
C325   C     0.25200   0.54031   0.02372   0.00000  Uiso   1.00
C326   C     0.24951   0.95957   0.30962   0.00000  Uiso   1.00
C327   C     0.24910   0.95957   0.02412   0.00000  Uiso   1.00
C328   C     0.25145   0.54034   0.30926   0.00000  Uiso   1.00
C329   C     0.36350   0.67192   0.16894   0.00000  Uiso   1.00
C330   C     0.11734   0.85141   0.20691   0.00000  Uiso   1.00
C331   C     0.11525   0.85489   0.12542   0.00000  Uiso   1.00
C332   C     0.43705   0.80670   0.16678   0.00000  Uiso   1.00
C333   C     0.41887   0.61102   0.16604   0.00000  Uiso   1.00
C334   C     0.11433   0.64491   0.20797   0.00000  Uiso   1.00
C335   C     0.38297   0.85206   0.12631   0.00000  Uiso   1.00
C336   C     0.38493   0.85449   0.20789   0.00000  Uiso   1.00
C337   C     0.11692   0.64808   0.12615   0.00000  Uiso   1.00
C338   C     0.13266   0.89859   0.12642   0.00000  Uiso   1.00
C339   C     0.38650   0.57808   0.16440   0.00000  Uiso   1.00
C340   C     0.33113   0.63898   0.16729   0.00000  Uiso   1.00
C341   C     0.13475   0.89511   0.20792   0.00000  Uiso   1.00
C342   C     0.36703   0.89794   0.20703   0.00000  Uiso   1.00
C343   C     0.44002   0.69043   0.16687   0.00000  Uiso   1.00
C344   C     0.13566   0.60508   0.12536   0.00000  Uiso   1.00
C345   C     0.13308   0.60191   0.20718   0.00000  Uiso   1.00
C346   C     0.36507   0.89551   0.12544   0.00000  Uiso   1.00
C347   C     0.10187   0.83466   0.16601   0.00000  Uiso   1.00
C348   C     0.40675   0.65729   0.16748   0.00000  Uiso   1.00
C349   C     0.39865   0.83516   0.16718   0.00000  Uiso   1.00
C350   C     0.10111   0.66471   0.16714   0.00000  Uiso   1.00
C351   C     0.34325   0.59271   0.16586   0.00000  Uiso   1.00
C352   C     0.14813   0.91534   0.16732   0.00000  Uiso   1.00
C353   C     0.14889   0.58529   0.16619   0.00000  Uiso   1.00
C354   C     0.06354   0.80589   0.16646   0.00000  Uiso   1.00
C355   C     0.35135   0.91484   0.16615   0.00000  Uiso   1.00
C356   C     0.49936   0.83619   0.04710   0.00000  Uiso   1.00
C357   C     0.49297   0.66449   0.28600   0.00000  Uiso   1.00
C358   C     0.49660   0.66410   0.04794   0.00000  Uiso   1.00
C359   C     0.00192   0.83626   0.28541   0.00000  Uiso   1.00
C360   C     0.25703   0.58551   0.04734   0.00000  Uiso   1.00
C361   C     0.25064   0.91381   0.28624   0.00000  Uiso   1.00
C362   C     0.24808   0.91374   0.04792   0.00000  Uiso   1.00
C363   C     0.25340   0.58590   0.28539   0.00000  Uiso   1.00
C364   C     0.35162   0.72195   0.17304   0.00000  Uiso   1.00
C365   C     0.31295   0.94330   0.16655   0.00000  Uiso   1.00
C366   C     0.12032   0.82163   0.24829   0.00000  Uiso   1.00
C367   C     0.11643   0.82892   0.08183   0.00000  Uiso   1.00
C368   C     0.46636   0.59798   0.16635   0.00000  Uiso   1.00
C369   C     0.11245   0.67032   0.25195   0.00000  Uiso   1.00
C370   C     0.38029   0.82264   0.08491   0.00000  Uiso   1.00
C371   C     0.38399   0.82772   0.25136   0.00000  Uiso   1.00
C372   C     0.11755   0.67707   0.08402   0.00000  Uiso   1.00
C373   C     0.12968   0.92837   0.08505   0.00000  Uiso   1.00
C374   C     0.39838   0.52805   0.16029   0.00000  Uiso   1.00
C375   C     0.28364   0.65202   0.16699   0.00000  Uiso   1.00
C376   C     0.18672   0.55614   0.16659   0.00000  Uiso   1.00
C377   C     0.13357   0.92108   0.25150   0.00000  Uiso   1.00
C378   C     0.36971   0.92736   0.24842   0.00000  Uiso   1.00
C379   C     0.13755   0.57968   0.08138   0.00000  Uiso   1.00
C380   C     0.13245   0.57293   0.24932   0.00000  Uiso   1.00
C381   C     0.36601   0.92228   0.08197   0.00000  Uiso   1.00
C382   C     0.18646   0.94411   0.16687   0.00000  Uiso   1.00
C383   C     0.30998   0.55957   0.16647   0.00000  Uiso   1.00
C384   C     0.00049   0.79043   0.02372   0.00000  Uiso   1.00
H385   H     0.00061   0.83453   0.08326   0.00000  Uiso   1.00
H386   H     0.49984   0.83476   0.24931   0.00000  Uiso   1.00
H387   H     0.47464   0.85782   0.29626   0.00000  Uiso   1.00
H388   H     0.03188   0.85478   0.29343   0.00000  Uiso   1.00
H389   H     0.25019   0.58372   0.08279   0.00000  Uiso   1.00
H390   H     0.29028   0.59852   0.04254   0.00000  Uiso   1.00
H391   H     0.23394   0.61131   0.03491   0.00000  Uiso   1.00
H392   H     0.24939   0.91547   0.25007   0.00000  Uiso   1.00
H393   H     0.28050   0.89525   0.29479   0.00000  Uiso   1.00
H394   H     0.22324   0.89226   0.29698   0.00000  Uiso   1.00
H395   H     0.25016   0.91524   0.08403   0.00000  Uiso   1.00
H396   H     0.02676   0.85774   0.03635   0.00000  Uiso   1.00
H397   H     0.21812   0.89522   0.03991   0.00000  Uiso   1.00
H398   H     0.27536   0.89218   0.03707   0.00000  Uiso   1.00
H399   H     0.24999   0.58373   0.24959   0.00000  Uiso   1.00
H400   H     0.22651   0.60820   0.29607   0.00000  Uiso   1.00
H401   H     0.28450   0.60303   0.29232   0.00000  Uiso   1.00
H402   H     0.37952   0.74420   0.17794   0.00000  Uiso   1.00
H403   H     0.33495   0.73371   0.14235   0.00000  Uiso   1.00
H404   H     0.33061   0.72708   0.20271   0.00000  Uiso   1.00
H405   H     0.11421   0.78527   0.24080   0.00000  Uiso   1.00
H406   H     0.15353   0.82312   0.26169   0.00000  Uiso   1.00
H407   H     0.46950   0.85475   0.03855   0.00000  Uiso   1.00
H408   H     0.09789   0.83337   0.27454   0.00000  Uiso   1.00
H409   H     0.09300   0.84312   0.05794   0.00000  Uiso   1.00
H410   H     0.14902   0.83182   0.06670   0.00000  Uiso   1.00
H411   H     0.11072   0.79194   0.08655   0.00000  Uiso   1.00
H412   H     0.48224   0.61084   0.13559   0.00000  Uiso   1.00
H413   H     0.48228   0.61320   0.19573   0.00000  Uiso   1.00
H414   H     0.47276   0.56089   0.16833   0.00000  Uiso   1.00
H415   H     0.11133   0.70771   0.24668   0.00000  Uiso   1.00
H416   H     0.08439   0.65902   0.27202   0.00000  Uiso   1.00
H417   H     0.14214   0.66401   0.27150   0.00000  Uiso   1.00
H418   H     0.49981   0.66627   0.25055   0.00000  Uiso   1.00
H419   H     0.38590   0.78597   0.09239   0.00000  Uiso   1.00
H420   H     0.34730   0.82466   0.07098   0.00000  Uiso   1.00
H421   H     0.40321   0.83448   0.05903   0.00000  Uiso   1.00
H422   H     0.40824   0.84091   0.27480   0.00000  Uiso   1.00
H423   H     0.35178   0.83114   0.26722   0.00000  Uiso   1.00
H424   H     0.38873   0.79057   0.24632   0.00000  Uiso   1.00
H425   H     0.09098   0.66729   0.06152   0.00000  Uiso   1.00
H426   H     0.11539   0.71387   0.09197   0.00000  Uiso   1.00
H427   H     0.14858   0.67276   0.06599   0.00000  Uiso   1.00
H428   H     0.13579   0.96473   0.09253   0.00000  Uiso   1.00
H429   H     0.01606   0.63869   0.29843   0.00000  Uiso   1.00
H430   H     0.15211   0.91663   0.05880   0.00000  Uiso   1.00
H431   H     0.09647   0.92688   0.07165   0.00000  Uiso   1.00
H432   H     0.37048   0.50580   0.15540   0.00000  Uiso   1.00
H433   H     0.41939   0.52292   0.13063   0.00000  Uiso   1.00
H434   H     0.41505   0.51629   0.19098   0.00000  Uiso   1.00
H435   H     0.26776   0.63916   0.19774   0.00000  Uiso   1.00
H436   H     0.27724   0.68911   0.16500   0.00000  Uiso   1.00
H437   H     0.26772   0.63680   0.13760   0.00000  Uiso   1.00
H438   H     0.15700   0.90689   0.27540   0.00000  Uiso   1.00
H439   H     0.13928   0.95806   0.24679   0.00000  Uiso   1.00
H440   H     0.45972   0.65148   0.29080   0.00000  Uiso   1.00
H441   H     0.10098   0.91818   0.26663   0.00000  Uiso   1.00
H442   H     0.36410   0.96403   0.24095   0.00000  Uiso   1.00
H443   H     0.34679   0.91551   0.27430   0.00000  Uiso   1.00
H444   H     0.40270   0.92534   0.26236   0.00000  Uiso   1.00
H445   H     0.13867   0.54229   0.08665   0.00000  Uiso   1.00
H446   H     0.10786   0.58599   0.06183   0.00000  Uiso   1.00
H447   H     0.16561   0.59098   0.06132   0.00000  Uiso   1.00
H448   H     0.15902   0.58271   0.27181   0.00000  Uiso   1.00
H449   H     0.10142   0.57724   0.26734   0.00000  Uiso   1.00
H450   H     0.13460   0.53613   0.24136   0.00000  Uiso   1.00
H451   H     0.00000   0.66627   0.08375   0.00000  Uiso   1.00
H452   H     0.34176   0.90909   0.05853   0.00000  Uiso   1.00
H453   H     0.36127   0.95943   0.08701   0.00000  Uiso   1.00
H454   H     0.39822   0.91886   0.06611   0.00000  Uiso   1.00
H455   H     0.46550   0.64697   0.04101   0.00000  Uiso   1.00
H456   H     0.02348   0.64180   0.03726   0.00000  Uiso   1.00
N457   N     0.00000   0.75000   0.28573   0.00000  Uiso   1.00
N458   N     0.00000   0.75000   0.04760   0.00000  Uiso   1.00
N459   N     0.25000   0.50000   0.28573   0.00000  Uiso   1.00
N460   N     0.25000   0.50000   0.04760   0.00000  Uiso   1.00
O461   O     0.04580   0.70419   0.20487   0.00000  Uiso   1.00
O462   O     0.20419   0.54581   0.12846   0.00000  Uiso   1.00
O463   O     0.20419   0.54581   0.20487   0.00000  Uiso   1.00
O464   O     0.29580   0.95419   0.12846   0.00000  Uiso   1.00
O465   O     0.20419   0.95419   0.12846   0.00000  Uiso   1.00
O466   O     0.29580   0.54581   0.20487   0.00000  Uiso   1.00
O467   O     0.29580   0.54581   0.12846   0.00000  Uiso   1.00
O468   O     0.20419   0.95419   0.20487   0.00000  Uiso   1.00
O469   O     0.45419   0.79581   0.12846   0.00000  Uiso   1.00
O470   O     0.45419   0.79581   0.20487   0.00000  Uiso   1.00
O471   O     0.04580   0.70419   0.12846   0.00000  Uiso   1.00
O472   O     0.45419   0.70419   0.12846   0.00000  Uiso   1.00
O473   O     0.04580   0.79581   0.20487   0.00000  Uiso   1.00
O474   O     0.04580   0.79581   0.12846   0.00000  Uiso   1.00
O475   O     0.45419   0.70419   0.20487   0.00000  Uiso   1.00
O476   O     0.29580   0.95419   0.20487   0.00000  Uiso   1.00
Zn477  Zn    0.00000   0.75000   0.21771   0.00000  Uiso   1.00
Zn478  Zn    0.00000   0.75000   0.11563   0.00000  Uiso   1.00
Zn479  Zn    0.25000   0.50000   0.21771   0.00000  Uiso   1.00
Zn480  Zn    0.25000   0.50000   0.11563   0.00000  Uiso   1.00
C481   C     0.56328   0.69386   0.16675   0.00000  Uiso   1.00
C482   C     0.99800   0.70969   0.30962   0.00000  Uiso   1.00
C483   C     0.99855   0.70966   0.02407   0.00000  Uiso   1.00
C484   C     0.50089   0.79043   0.30921   0.00000  Uiso   1.00
C485   C     0.75200   0.54031   0.02372   0.00000  Uiso   1.00
C486   C     0.74951   0.95957   0.30962   0.00000  Uiso   1.00
C487   C     0.74910   0.95957   0.02412   0.00000  Uiso   1.00
C488   C     0.75145   0.54034   0.30926   0.00000  Uiso   1.00
C489   C     0.86350   0.67192   0.16894   0.00000  Uiso   1.00
C490   C     0.61734   0.85141   0.20691   0.00000  Uiso   1.00
C491   C     0.61525   0.85489   0.12542   0.00000  Uiso   1.00
C492   C     0.93705   0.80670   0.16678   0.00000  Uiso   1.00
C493   C     0.91887   0.61102   0.16604   0.00000  Uiso   1.00
C494   C     0.61433   0.64491   0.20797   0.00000  Uiso   1.00
C495   C     0.88297   0.85206   0.12631   0.00000  Uiso   1.00
C496   C     0.88493   0.85449   0.20789   0.00000  Uiso   1.00
C497   C     0.61692   0.64808   0.12615   0.00000  Uiso   1.00
C498   C     0.63266   0.89859   0.12642   0.00000  Uiso   1.00
C499   C     0.88650   0.57808   0.16440   0.00000  Uiso   1.00
C500   C     0.83113   0.63898   0.16729   0.00000  Uiso   1.00
C501   C     0.63475   0.89511   0.20792   0.00000  Uiso   1.00
C502   C     0.86703   0.89794   0.20703   0.00000  Uiso   1.00
C503   C     0.94002   0.69043   0.16687   0.00000  Uiso   1.00
C504   C     0.63566   0.60508   0.12536   0.00000  Uiso   1.00
C505   C     0.63308   0.60191   0.20718   0.00000  Uiso   1.00
C506   C     0.86507   0.89551   0.12544   0.00000  Uiso   1.00
C507   C     0.60187   0.83466   0.16601   0.00000  Uiso   1.00
C508   C     0.90675   0.65729   0.16748   0.00000  Uiso   1.00
C509   C     0.89865   0.83516   0.16718   0.00000  Uiso   1.00
C510   C     0.60111   0.66471   0.16714   0.00000  Uiso   1.00
C511   C     0.84325   0.59271   0.16586   0.00000  Uiso   1.00
C512   C     0.64813   0.91534   0.16732   0.00000  Uiso   1.00
C513   C     0.64889   0.58529   0.16619   0.00000  Uiso   1.00
C514   C     0.56354   0.80589   0.16646   0.00000  Uiso   1.00
C515   C     0.85135   0.91484   0.16615   0.00000  Uiso   1.00
C516   C     0.99936   0.83619   0.04710   0.00000  Uiso   1.00
C517   C     0.99297   0.66449   0.28600   0.00000  Uiso   1.00
C518   C     0.99660   0.66410   0.04794   0.00000  Uiso   1.00
C519   C     0.50192   0.83626   0.28541   0.00000  Uiso   1.00
C520   C     0.75703   0.58551   0.04734   0.00000  Uiso   1.00
C521   C     0.75064   0.91381   0.28624   0.00000  Uiso   1.00
C522   C     0.74808   0.91374   0.04792   0.00000  Uiso   1.00
C523   C     0.75340   0.58590   0.28539   0.00000  Uiso   1.00
C524   C     0.85162   0.72195   0.17304   0.00000  Uiso   1.00
C525   C     0.81295   0.94330   0.16655   0.00000  Uiso   1.00
C526   C     0.62032   0.82163   0.24829   0.00000  Uiso   1.00
C527   C     0.61643   0.82892   0.08183   0.00000  Uiso   1.00
C528   C     0.96636   0.59798   0.16635   0.00000  Uiso   1.00
C529   C     0.61245   0.67032   0.25195   0.00000  Uiso   1.00
C530   C     0.88029   0.82264   0.08491   0.00000  Uiso   1.00
C531   C     0.88399   0.82772   0.25136   0.00000  Uiso   1.00
C532   C     0.61755   0.67707   0.08402   0.00000  Uiso   1.00
C533   C     0.62968   0.92837   0.08505   0.00000  Uiso   1.00
C534   C     0.89838   0.52805   0.16029   0.00000  Uiso   1.00
C535   C     0.78364   0.65202   0.16699   0.00000  Uiso   1.00
C536   C     0.68672   0.55614   0.16659   0.00000  Uiso   1.00
C537   C     0.63357   0.92108   0.25150   0.00000  Uiso   1.00
C538   C     0.86971   0.92736   0.24842   0.00000  Uiso   1.00
C539   C     0.63755   0.57968   0.08138   0.00000  Uiso   1.00
C540   C     0.63245   0.57293   0.24932   0.00000  Uiso   1.00
C541   C     0.86601   0.92228   0.08197   0.00000  Uiso   1.00
C542   C     0.68646   0.94411   0.16687   0.00000  Uiso   1.00
C543   C     0.80998   0.55957   0.16647   0.00000  Uiso   1.00
C544   C     0.50049   0.79043   0.02372   0.00000  Uiso   1.00
H545   H     0.50061   0.83453   0.08326   0.00000  Uiso   1.00
H546   H     0.99984   0.83476   0.24931   0.00000  Uiso   1.00
H547   H     0.97464   0.85782   0.29626   0.00000  Uiso   1.00
H548   H     0.53188   0.85478   0.29343   0.00000  Uiso   1.00
H549   H     0.75019   0.58372   0.08279   0.00000  Uiso   1.00
H550   H     0.79028   0.59852   0.04254   0.00000  Uiso   1.00
H551   H     0.73394   0.61131   0.03491   0.00000  Uiso   1.00
H552   H     0.74939   0.91547   0.25007   0.00000  Uiso   1.00
H553   H     0.78050   0.89525   0.29479   0.00000  Uiso   1.00
H554   H     0.72324   0.89226   0.29698   0.00000  Uiso   1.00
H555   H     0.75016   0.91524   0.08403   0.00000  Uiso   1.00
H556   H     0.52676   0.85774   0.03635   0.00000  Uiso   1.00
H557   H     0.71812   0.89522   0.03991   0.00000  Uiso   1.00
H558   H     0.77536   0.89218   0.03707   0.00000  Uiso   1.00
H559   H     0.74999   0.58373   0.24959   0.00000  Uiso   1.00
H560   H     0.72651   0.60820   0.29607   0.00000  Uiso   1.00
H561   H     0.78450   0.60303   0.29232   0.00000  Uiso   1.00
H562   H     0.87952   0.74420   0.17794   0.00000  Uiso   1.00
H563   H     0.83495   0.73371   0.14235   0.00000  Uiso   1.00
H564   H     0.83061   0.72708   0.20271   0.00000  Uiso   1.00
H565   H     0.61421   0.78527   0.24080   0.00000  Uiso   1.00
H566   H     0.65353   0.82312   0.26169   0.00000  Uiso   1.00
H567   H     0.96950   0.85475   0.03855   0.00000  Uiso   1.00
H568   H     0.59789   0.83337   0.27454   0.00000  Uiso   1.00
H569   H     0.59300   0.84312   0.05794   0.00000  Uiso   1.00
H570   H     0.64902   0.83182   0.06670   0.00000  Uiso   1.00
H571   H     0.61072   0.79194   0.08655   0.00000  Uiso   1.00
H572   H     0.98224   0.61084   0.13559   0.00000  Uiso   1.00
H573   H     0.98228   0.61320   0.19573   0.00000  Uiso   1.00
H574   H     0.97276   0.56089   0.16833   0.00000  Uiso   1.00
H575   H     0.61133   0.70771   0.24668   0.00000  Uiso   1.00
H576   H     0.58439   0.65902   0.27202   0.00000  Uiso   1.00
H577   H     0.64214   0.66401   0.27150   0.00000  Uiso   1.00
H578   H     0.99981   0.66627   0.25055   0.00000  Uiso   1.00
H579   H     0.88590   0.78597   0.09239   0.00000  Uiso   1.00
H580   H     0.84730   0.82466   0.07098   0.00000  Uiso   1.00
H581   H     0.90321   0.83448   0.05903   0.00000  Uiso   1.00
H582   H     0.90824   0.84091   0.27480   0.00000  Uiso   1.00
H583   H     0.85178   0.83114   0.26722   0.00000  Uiso   1.00
H584   H     0.88873   0.79057   0.24632   0.00000  Uiso   1.00
H585   H     0.59098   0.66729   0.06152   0.00000  Uiso   1.00
H586   H     0.61539   0.71387   0.09197   0.00000  Uiso   1.00
H587   H     0.64858   0.67276   0.06599   0.00000  Uiso   1.00
H588   H     0.63579   0.96473   0.09253   0.00000  Uiso   1.00
H589   H     0.51606   0.63869   0.29843   0.00000  Uiso   1.00
H590   H     0.65211   0.91663   0.05880   0.00000  Uiso   1.00
H591   H     0.59647   0.92688   0.07165   0.00000  Uiso   1.00
H592   H     0.87048   0.50580   0.15540   0.00000  Uiso   1.00
H593   H     0.91939   0.52292   0.13063   0.00000  Uiso   1.00
H594   H     0.91505   0.51629   0.19098   0.00000  Uiso   1.00
H595   H     0.76776   0.63916   0.19774   0.00000  Uiso   1.00
H596   H     0.77724   0.68911   0.16500   0.00000  Uiso   1.00
H597   H     0.76772   0.63680   0.13760   0.00000  Uiso   1.00
H598   H     0.65700   0.90689   0.27540   0.00000  Uiso   1.00
H599   H     0.63928   0.95806   0.24679   0.00000  Uiso   1.00
H600   H     0.95972   0.65148   0.29080   0.00000  Uiso   1.00
H601   H     0.60098   0.91818   0.26663   0.00000  Uiso   1.00
H602   H     0.86410   0.96403   0.24095   0.00000  Uiso   1.00
H603   H     0.84679   0.91551   0.27430   0.00000  Uiso   1.00
H604   H     0.90270   0.92534   0.26236   0.00000  Uiso   1.00
H605   H     0.63867   0.54229   0.08665   0.00000  Uiso   1.00
H606   H     0.60786   0.58599   0.06183   0.00000  Uiso   1.00
H607   H     0.66561   0.59098   0.06132   0.00000  Uiso   1.00
H608   H     0.65902   0.58271   0.27181   0.00000  Uiso   1.00
H609   H     0.60142   0.57724   0.26734   0.00000  Uiso   1.00
H610   H     0.63460   0.53613   0.24136   0.00000  Uiso   1.00
H611   H     0.50000   0.66627   0.08375   0.00000  Uiso   1.00
H612   H     0.84176   0.90909   0.05853   0.00000  Uiso   1.00
H613   H     0.86127   0.95943   0.08701   0.00000  Uiso   1.00
H614   H     0.89822   0.91886   0.06611   0.00000  Uiso   1.00
H615   H     0.96550   0.64697   0.04101   0.00000  Uiso   1.00
H616   H     0.52348   0.64180   0.03726   0.00000  Uiso   1.00
N617   N     0.50000   0.75000   0.28573   0.00000  Uiso   1.00
N618   N     0.50000   0.75000   0.04760   0.00000  Uiso   1.00
N619   N     0.75000   0.50000   0.28573   0.00000  Uiso   1.00
N620   N     0.75000   0.50000   0.04760   0.00000  Uiso   1.00
O621   O     0.54580   0.70419   0.20487   0.00000  Uiso   1.00
O622   O     0.70419   0.54581   0.12846   0.00000  Uiso   1.00
O623   O     0.70419   0.54581   0.20487   0.00000  Uiso   1.00
O624   O     0.79580   0.95419   0.12846   0.00000  Uiso   1.00
O625   O     0.70419   0.95419   0.12846   0.00000  Uiso   1.00
O626   O     0.79580   0.54581   0.20487   0.00000  Uiso   1.00
O627   O     0.79580   0.54581   0.12846   0.00000  Uiso   1.00
O628   O     0.70419   0.95419   0.20487   0.00000  Uiso   1.00
O629   O     0.95419   0.79581   0.12846   0.00000  Uiso   1.00
O630   O     0.95419   0.79581   0.20487   0.00000  Uiso   1.00
O631   O     0.54580   0.70419   0.12846   0.00000  Uiso   1.00
O632   O     0.95419   0.70419   0.12846   0.00000  Uiso   1.00
O633   O     0.54580   0.79581   0.20487   0.00000  Uiso   1.00
O634   O     0.54580   0.79581   0.12846   0.00000  Uiso   1.00
O635   O     0.95419   0.70419   0.20487   0.00000  Uiso   1.00
O636   O     0.79580   0.95419   0.20487   0.00000  Uiso   1.00
Zn637  Zn    0.50000   0.75000   0.21771   0.00000  Uiso   1.00
Zn638  Zn    0.50000   0.75000   0.11563   0.00000  Uiso   1.00
Zn639  Zn    0.75000   0.50000   0.21771   0.00000  Uiso   1.00
Zn640  Zn    0.75000   0.50000   0.11563   0.00000  Uiso   1.00
C641   C     0.06328   0.19386   0.50008   0.00000  Uiso   1.00
C642   C     0.49800   0.20969   0.64295   0.00000  Uiso   1.00
C643   C     0.49855   0.20966   0.35740   0.00000  Uiso   1.00
C644   C     0.00089   0.29043   0.64255   0.00000  Uiso   1.00
C645   C     0.25200   0.04031   0.35705   0.00000  Uiso   1.00
C646   C     0.24951   0.45957   0.64295   0.00000  Uiso   1.00
C647   C     0.24910   0.45957   0.35745   0.00000  Uiso   1.00
C648   C     0.25145   0.04034   0.64260   0.00000  Uiso   1.00
C649   C     0.36350   0.17192   0.50227   0.00000  Uiso   1.00
C650   C     0.11734   0.35141   0.54025   0.00000  Uiso   1.00
C651   C     0.11525   0.35489   0.45875   0.00000  Uiso   1.00
C652   C     0.43705   0.30670   0.50011   0.00000  Uiso   1.00
C653   C     0.41887   0.11102   0.49937   0.00000  Uiso   1.00
C654   C     0.11433   0.14491   0.54131   0.00000  Uiso   1.00
C655   C     0.38297   0.35206   0.45964   0.00000  Uiso   1.00
C656   C     0.38493   0.35449   0.54123   0.00000  Uiso   1.00
C657   C     0.11692   0.14808   0.45949   0.00000  Uiso   1.00
C658   C     0.13266   0.39859   0.45976   0.00000  Uiso   1.00
C659   C     0.38650   0.07808   0.49773   0.00000  Uiso   1.00
C660   C     0.33113   0.13898   0.50063   0.00000  Uiso   1.00
C661   C     0.13475   0.39511   0.54125   0.00000  Uiso   1.00
C662   C     0.36703   0.39794   0.54036   0.00000  Uiso   1.00
C663   C     0.44002   0.19043   0.50020   0.00000  Uiso   1.00
C664   C     0.13566   0.10508   0.45869   0.00000  Uiso   1.00
C665   C     0.13308   0.10191   0.54051   0.00000  Uiso   1.00
C666   C     0.36507   0.39551   0.45877   0.00000  Uiso   1.00
C667   C     0.10187   0.33466   0.49934   0.00000  Uiso   1.00
C668   C     0.40675   0.15729   0.50081   0.00000  Uiso   1.00
C669   C     0.39865   0.33516   0.50052   0.00000  Uiso   1.00
C670   C     0.10111   0.16471   0.50047   0.00000  Uiso   1.00
C671   C     0.34325   0.09271   0.49919   0.00000  Uiso   1.00
C672   C     0.14813   0.41534   0.50066   0.00000  Uiso   1.00
C673   C     0.14889   0.08529   0.49953   0.00000  Uiso   1.00
C674   C     0.06354   0.30589   0.49980   0.00000  Uiso   1.00
C675   C     0.35135   0.41484   0.49948   0.00000  Uiso   1.00
C676   C     0.49936   0.33619   0.38043   0.00000  Uiso   1.00
C677   C     0.49297   0.16449   0.61933   0.00000  Uiso   1.00
C678   C     0.49660   0.16410   0.38127   0.00000  Uiso   1.00
C679   C     0.00192   0.33626   0.61874   0.00000  Uiso   1.00
C680   C     0.25703   0.08551   0.38067   0.00000  Uiso   1.00
C681   C     0.25064   0.41381   0.61957   0.00000  Uiso   1.00
C682   C     0.24808   0.41374   0.38126   0.00000  Uiso   1.00
C683   C     0.25340   0.08590   0.61873   0.00000  Uiso   1.00
C684   C     0.35162   0.22195   0.50637   0.00000  Uiso   1.00
C685   C     0.31295   0.44330   0.49989   0.00000  Uiso   1.00
C686   C     0.12032   0.32163   0.58162   0.00000  Uiso   1.00
C687   C     0.11643   0.32892   0.41516   0.00000  Uiso   1.00
C688   C     0.46636   0.09798   0.49968   0.00000  Uiso   1.00
C689   C     0.11245   0.17032   0.58528   0.00000  Uiso   1.00
C690   C     0.38029   0.32264   0.41825   0.00000  Uiso   1.00
C691   C     0.38399   0.32772   0.58470   0.00000  Uiso   1.00
C692   C     0.11755   0.17707   0.41735   0.00000  Uiso   1.00
C693   C     0.12968   0.42837   0.41838   0.00000  Uiso   1.00
C694   C     0.39838   0.02805   0.49363   0.00000  Uiso   1.00
C695   C     0.28364   0.15202   0.50032   0.00000  Uiso   1.00
C696   C     0.18672   0.05614   0.49992   0.00000  Uiso   1.00
C697   C     0.13357   0.42108   0.58484   0.00000  Uiso   1.00
C698   C     0.36971   0.42736   0.58175   0.00000  Uiso   1.00
C699   C     0.13755   0.07968   0.41472   0.00000  Uiso   1.00
C700   C     0.13245   0.07293   0.58265   0.00000  Uiso   1.00
C701   C     0.36601   0.42228   0.41530   0.00000  Uiso   1.00
C702   C     0.18646   0.44411   0.50020   0.00000  Uiso   1.00
C703   C     0.30998   0.05957   0.49980   0.00000  Uiso   1.00
C704   C     0.00049   0.29043   0.35705   0.00000  Uiso   1.00
H705   H     0.00061   0.33453   0.41660   0.00000  Uiso   1.00
H706   H     0.49984   0.33476   0.58264   0.00000  Uiso   1.00
H707   H     0.47464   0.35782   0.62960   0.00000  Uiso   1.00
H708   H     0.03188   0.35478   0.62676   0.00000  Uiso   1.00
H709   H     0.25019   0.08372   0.41612   0.00000  Uiso   1.00
H710   H     0.29028   0.09852   0.37587   0.00000  Uiso   1.00
H711   H     0.23394   0.11131   0.36824   0.00000  Uiso   1.00
H712   H     0.24939   0.41547   0.58341   0.00000  Uiso   1.00
H713   H     0.28050   0.39525   0.62812   0.00000  Uiso   1.00
H714   H     0.22324   0.39226   0.63031   0.00000  Uiso   1.00
H715   H     0.25016   0.41524   0.41736   0.00000  Uiso   1.00
H716   H     0.02676   0.35774   0.36969   0.00000  Uiso   1.00
H717   H     0.21812   0.39522   0.37324   0.00000  Uiso   1.00
H718   H     0.27536   0.39218   0.37040   0.00000  Uiso   1.00
H719   H     0.24999   0.08373   0.58292   0.00000  Uiso   1.00
H720   H     0.22651   0.10820   0.62941   0.00000  Uiso   1.00
H721   H     0.28450   0.10303   0.62566   0.00000  Uiso   1.00
H722   H     0.37952   0.24420   0.51127   0.00000  Uiso   1.00
H723   H     0.33495   0.23371   0.47568   0.00000  Uiso   1.00
H724   H     0.33061   0.22708   0.53604   0.00000  Uiso   1.00
H725   H     0.11421   0.28527   0.57414   0.00000  Uiso   1.00
H726   H     0.15353   0.32312   0.59502   0.00000  Uiso   1.00
H727   H     0.46950   0.35475   0.37188   0.00000  Uiso   1.00
H728   H     0.09789   0.33337   0.60787   0.00000  Uiso   1.00
H729   H     0.09300   0.34312   0.39127   0.00000  Uiso   1.00
H730   H     0.14902   0.33182   0.40004   0.00000  Uiso   1.00
H731   H     0.11072   0.29194   0.41988   0.00000  Uiso   1.00
H732   H     0.48224   0.11084   0.46892   0.00000  Uiso   1.00
H733   H     0.48228   0.11320   0.52907   0.00000  Uiso   1.00
H734   H     0.47276   0.06089   0.50167   0.00000  Uiso   1.00
H735   H     0.11133   0.20771   0.58002   0.00000  Uiso   1.00
H736   H     0.08439   0.15902   0.60535   0.00000  Uiso   1.00
H737   H     0.14214   0.16401   0.60484   0.00000  Uiso   1.00
H738   H     0.49981   0.16627   0.58388   0.00000  Uiso   1.00
H739   H     0.38590   0.28597   0.42572   0.00000  Uiso   1.00
H740   H     0.34730   0.32466   0.40431   0.00000  Uiso   1.00
H741   H     0.40321   0.33448   0.39236   0.00000  Uiso   1.00
H742   H     0.40824   0.34091   0.60814   0.00000  Uiso   1.00
H743   H     0.35178   0.33114   0.60055   0.00000  Uiso   1.00
H744   H     0.38873   0.29057   0.57966   0.00000  Uiso   1.00
H745   H     0.09098   0.16729   0.39486   0.00000  Uiso   1.00
H746   H     0.11539   0.21387   0.42530   0.00000  Uiso   1.00
H747   H     0.14858   0.17276   0.39933   0.00000  Uiso   1.00
H748   H     0.13579   0.46473   0.42586   0.00000  Uiso   1.00
H749   H     0.01606   0.13869   0.63176   0.00000  Uiso   1.00
H750   H     0.15211   0.41663   0.39213   0.00000  Uiso   1.00
H751   H     0.09647   0.42688   0.40498   0.00000  Uiso   1.00
H752   H     0.37048   0.00580   0.48873   0.00000  Uiso   1.00
H753   H     0.41939   0.02292   0.46396   0.00000  Uiso   1.00
H754   H     0.41505   0.01629   0.52432   0.00000  Uiso   1.00
H755   H     0.26776   0.13916   0.53108   0.00000  Uiso   1.00
H756   H     0.27724   0.18911   0.49833   0.00000  Uiso   1.00
H757   H     0.26772   0.13680   0.47093   0.00000  Uiso   1.00
H758   H     0.15700   0.40689   0.60873   0.00000  Uiso   1.00
H759   H     0.13928   0.45806   0.58012   0.00000  Uiso   1.00
H760   H     0.45972   0.15148   0.62413   0.00000  Uiso   1.00
H761   H     0.10098   0.41818   0.59996   0.00000  Uiso   1.00
H762   H     0.36410   0.46403   0.57428   0.00000  Uiso   1.00
H763   H     0.34679   0.41551   0.60764   0.00000  Uiso   1.00
H764   H     0.40270   0.42534   0.59569   0.00000  Uiso   1.00
H765   H     0.13867   0.04229   0.41999   0.00000  Uiso   1.00
H766   H     0.10786   0.08599   0.39516   0.00000  Uiso   1.00
H767   H     0.16561   0.09098   0.39465   0.00000  Uiso   1.00
H768   H     0.15902   0.08271   0.60514   0.00000  Uiso   1.00
H769   H     0.10142   0.07724   0.60067   0.00000  Uiso   1.00
H770   H     0.13460   0.03613   0.57470   0.00000  Uiso   1.00
H771   H     0.00000   0.16627   0.41708   0.00000  Uiso   1.00
H772   H     0.34176   0.40909   0.39186   0.00000  Uiso   1.00
H773   H     0.36127   0.45943   0.42034   0.00000  Uiso   1.00
H774   H     0.39822   0.41886   0.39945   0.00000  Uiso   1.00
H775   H     0.46550   0.14697   0.37434   0.00000  Uiso   1.00
H776   H     0.02348   0.14180   0.37059   0.00000  Uiso   1.00
N777   N     0.00000   0.25000   0.61907   0.00000  Uiso   1.00
N778   N     0.00000   0.25000   0.38093   0.00000  Uiso   1.00
N779   N     0.25000  -0.00000   0.61907   0.00000  Uiso   1.00
N780   N     0.25000   0.00000   0.38093   0.00000  Uiso   1.00
O781   O     0.04580   0.20419   0.53821   0.00000  Uiso   1.00
O782   O     0.20419   0.04581   0.46179   0.00000  Uiso   1.00
O783   O     0.20419   0.04581   0.53821   0.00000  Uiso   1.00
O784   O     0.29580   0.45419   0.46179   0.00000  Uiso   1.00
O785   O     0.20419   0.45419   0.46179   0.00000  Uiso   1.00
O786   O     0.29580   0.04581   0.53821   0.00000  Uiso   1.00
O787   O     0.29580   0.04581   0.46179   0.00000  Uiso   1.00
O788   O     0.20419   0.45419   0.53821   0.00000  Uiso   1.00
O789   O     0.45419   0.29581   0.46179   0.00000  Uiso   1.00
O790   O     0.45419   0.29581   0.53821   0.00000  Uiso   1.00
O791   O     0.04580   0.20419   0.46179   0.00000  Uiso   1.00
O792   O     0.45419   0.20419   0.46179   0.00000  Uiso   1.00
O793   O     0.04580   0.29581   0.53821   0.00000  Uiso   1.00
O794   O     0.04580   0.29581   0.46179   0.00000  Uiso   1.00
O795   O     0.45419   0.20419   0.53821   0.00000  Uiso   1.00
O796   O     0.29580   0.45419   0.53821   0.00000  Uiso   1.00
Zn797  Zn    0.00000   0.25000   0.55104   0.00000  Uiso   1.00
Zn798  Zn    0.00000   0.25000   0.44896   0.00000  Uiso   1.00
Zn799  Zn    0.25000   0.00000   0.55104   0.00000  Uiso   1.00
Zn800  Zn    0.25000   0.00000   0.44896   0.00000  Uiso   1.00
C801   C     0.56328   0.19386   0.50008   0.00000  Uiso   1.00
C802   C     0.99800   0.20969   0.64295   0.00000  Uiso   1.00
C803   C     0.99855   0.20966   0.35740   0.00000  Uiso   1.00
C804   C     0.50089   0.29043   0.64255   0.00000  Uiso   1.00
C805   C     0.75200   0.04031   0.35705   0.00000  Uiso   1.00
C806   C     0.74951   0.45957   0.64295   0.00000  Uiso   1.00
C807   C     0.74910   0.45957   0.35745   0.00000  Uiso   1.00
C808   C     0.75145   0.04034   0.64260   0.00000  Uiso   1.00
C809   C     0.86350   0.17192   0.50227   0.00000  Uiso   1.00
C810   C     0.61734   0.35141   0.54025   0.00000  Uiso   1.00
C811   C     0.61525   0.35489   0.45875   0.00000  Uiso   1.00
C812   C     0.93705   0.30670   0.50011   0.00000  Uiso   1.00
C813   C     0.91887   0.11102   0.49937   0.00000  Uiso   1.00
C814   C     0.61433   0.14491   0.54131   0.00000  Uiso   1.00
C815   C     0.88297   0.35206   0.45964   0.00000  Uiso   1.00
C816   C     0.88493   0.35449   0.54123   0.00000  Uiso   1.00
C817   C     0.61692   0.14808   0.45949   0.00000  Uiso   1.00
C818   C     0.63266   0.39859   0.45976   0.00000  Uiso   1.00
C819   C     0.88650   0.07808   0.49773   0.00000  Uiso   1.00
C820   C     0.83113   0.13898   0.50063   0.00000  Uiso   1.00
C821   C     0.63475   0.39511   0.54125   0.00000  Uiso   1.00
C822   C     0.86703   0.39794   0.54036   0.00000  Uiso   1.00
C823   C     0.94002   0.19043   0.50020   0.00000  Uiso   1.00
C824   C     0.63566   0.10508   0.45869   0.00000  Uiso   1.00
C825   C     0.63308   0.10191   0.54051   0.00000  Uiso   1.00
C826   C     0.86507   0.39551   0.45877   0.00000  Uiso   1.00
C827   C     0.60187   0.33466   0.49934   0.00000  Uiso   1.00
C828   C     0.90675   0.15729   0.50081   0.00000  Uiso   1.00
C829   C     0.89865   0.33516   0.50052   0.00000  Uiso   1.00
C830   C     0.60111   0.16471   0.50047   0.00000  Uiso   1.00
C831   C     0.84325   0.09271   0.49919   0.00000  Uiso   1.00
C832   C     0.64813   0.41534   0.50066   0.00000  Uiso   1.00
C833   C     0.64889   0.08529   0.49953   0.00000  Uiso   1.00
C834   C     0.56354   0.30589   0.49980   0.00000  Uiso   1.00
C835   C     0.85135   0.41484   0.49948   0.00000  Uiso   1.00
C836   C     0.99936   0.33619   0.38043   0.00000  Uiso   1.00
C837   C     0.99297   0.16449   0.61933   0.00000  Uiso   1.00
C838   C     0.99660   0.16410   0.38127   0.00000  Uiso   1.00
C839   C     0.50192   0.33626   0.61874   0.00000  Uiso   1.00
C840   C     0.75703   0.08551   0.38067   0.00000  Uiso   1.00
C841   C     0.75064   0.41381   0.61957   0.00000  Uiso   1.00
C842   C     0.74808   0.41374   0.38126   0.00000  Uiso   1.00
C843   C     0.75340   0.08590   0.61873   0.00000  Uiso   1.00
C844   C     0.85162   0.22195   0.50637   0.00000  Uiso   1.00
C845   C     0.81295   0.44330   0.49989   0.00000  Uiso   1.00
C846   C     0.62032   0.32163   0.58162   0.00000  Uiso   1.00
C847   C     0.61643   0.32892   0.41516   0.00000  Uiso   1.00
C848   C     0.96636   0.09798   0.49968   0.00000  Uiso   1.00
C849   C     0.61245   0.17032   0.58528   0.00000  Uiso   1.00
C850   C     0.88029   0.32264   0.41825   0.00000  Uiso   1.00
C851   C     0.88399   0.32772   0.58470   0.00000  Uiso   1.00
C852   C     0.61755   0.17707   0.41735   0.00000  Uiso   1.00
C853   C     0.62968   0.42837   0.41838   0.00000  Uiso   1.00
C854   C     0.89838   0.02805   0.49363   0.00000  Uiso   1.00
C855   C     0.78364   0.15202   0.50032   0.00000  Uiso   1.00
C856   C     0.68672   0.05614   0.49992   0.00000  Uiso   1.00
C857   C     0.63357   0.42108   0.58484   0.00000  Uiso   1.00
C858   C     0.86971   0.42736   0.58175   0.00000  Uiso   1.00
C859   C     0.63755   0.07968   0.41472   0.00000  Uiso   1.00
C860   C     0.63245   0.07293   0.58265   0.00000  Uiso   1.00
C861   C     0.86601   0.42228   0.41530   0.00000  Uiso   1.00
C862   C     0.68646   0.44411   0.50020   0.00000  Uiso   1.00
C863   C     0.80998   0.05957   0.49980   0.00000  Uiso   1.00
C864   C     0.50049   0.29043   0.35705   0.00000  Uiso   1.00
H865   H     0.50061   0.33453   0.41660   0.00000  Uiso   1.00
H866   H     0.99984   0.33476   0.58264   0.00000  Uiso   1.00
H867   H     0.97464   0.35782   0.62960   0.00000  Uiso   1.00
H868   H     0.53188   0.35478   0.62676   0.00000  Uiso   1.00
H869   H     0.75019   0.08372   0.41612   0.00000  Uiso   1.00
H870   H     0.79028   0.09852   0.37587   0.00000  Uiso   1.00
H871   H     0.73394   0.11131   0.36824   0.00000  Uiso   1.00
H872   H     0.74939   0.41547   0.58341   0.00000  Uiso   1.00
H873   H     0.78050   0.39525   0.62812   0.00000  Uiso   1.00
H874   H     0.72324   0.39226   0.63031   0.00000  Uiso   1.00
H875   H     0.75016   0.41524   0.41736   0.00000  Uiso   1.00
H876   H     0.52676   0.35774   0.36969   0.00000  Uiso   1.00
H877   H     0.71812   0.39522   0.37324   0.00000  Uiso   1.00
H878   H     0.77536   0.39218   0.37040   0.00000  Uiso   1.00
H879   H     0.74999   0.08373   0.58292   0.00000  Uiso   1.00
H880   H     0.72651   0.10820   0.62941   0.00000  Uiso   1.00
H881   H     0.78450   0.10303   0.62566   0.00000  Uiso   1.00
H882   H     0.87952   0.24420   0.51127   0.00000  Uiso   1.00
H883   H     0.83495   0.23371   0.47568   0.00000  Uiso   1.00
H884   H     0.83061   0.22708   0.53604   0.00000  Uiso   1.00
H885   H     0.61421   0.28527   0.57414   0.00000  Uiso   1.00
H886   H     0.65353   0.32312   0.59502   0.00000  Uiso   1.00
H887   H     0.96950   0.35475   0.37188   0.00000  Uiso   1.00
H888   H     0.59789   0.33337   0.60787   0.00000  Uiso   1.00
H889   H     0.59300   0.34312   0.39127   0.00000  Uiso   1.00
H890   H     0.64902   0.33182   0.40004   0.00000  Uiso   1.00
H891   H     0.61072   0.29194   0.41988   0.00000  Uiso   1.00
H892   H     0.98224   0.11084   0.46892   0.00000  Uiso   1.00
H893   H     0.98228   0.11320   0.52907   0.00000  Uiso   1.00
H894   H     0.97276   0.06089   0.50167   0.00000  Uiso   1.00
H895   H     0.61133   0.20771   0.58002   0.00000  Uiso   1.00
H896   H     0.58439   0.15902   0.60535   0.00000  Uiso   1.00
H897   H     0.64214   0.16401   0.60484   0.00000  Uiso   1.00
H898   H     0.99981   0.16627   0.58388   0.00000  Uiso   1.00
H899   H     0.88590   0.28597   0.42572   0.00000  Uiso   1.00
H900   H     0.84730   0.32466   0.40431   0.00000  Uiso   1.00
H901   H     0.90321   0.33448   0.39236   0.00000  Uiso   1.00
H902   H     0.90824   0.34091   0.60814   0.00000  Uiso   1.00
H903   H     0.85178   0.33114   0.60055   0.00000  Uiso   1.00
H904   H     0.88873   0.29057   0.57966   0.00000  Uiso   1.00
H905   H     0.59098   0.16729   0.39486   0.00000  Uiso   1.00
H906   H     0.61539   0.21387   0.42530   0.00000  Uiso   1.00
H907   H     0.64858   0.17276   0.39933   0.00000  Uiso   1.00
H908   H     0.63579   0.46473   0.42586   0.00000  Uiso   1.00
H909   H     0.51606   0.13869   0.63176   0.00000  Uiso   1.00
H910   H     0.65211   0.41663   0.39213   0.00000  Uiso   1.00
H911   H     0.59647   0.42688   0.40498   0.00000  Uiso   1.00
H912   H     0.87048   0.00580   0.48873   0.00000  Uiso   1.00
H913   H     0.91939   0.02292   0.46396   0.00000  Uiso   1.00
H914   H     0.91505   0.01629   0.52432   0.00000  Uiso   1.00
H915   H     0.76776   0.13916   0.53108   0.00000  Uiso   1.00
H916   H     0.77724   0.18911   0.49833   0.00000  Uiso   1.00
H917   H     0.76772   0.13680   0.47093   0.00000  Uiso   1.00
H918   H     0.65700   0.40689   0.60873   0.00000  Uiso   1.00
H919   H     0.63928   0.45806   0.58012   0.00000  Uiso   1.00
H920   H     0.95972   0.15148   0.62413   0.00000  Uiso   1.00
H921   H     0.60098   0.41818   0.59996   0.00000  Uiso   1.00
H922   H     0.86410   0.46403   0.57428   0.00000  Uiso   1.00
H923   H     0.84679   0.41551   0.60764   0.00000  Uiso   1.00
H924   H     0.90270   0.42534   0.59569   0.00000  Uiso   1.00
H925   H     0.63867   0.04229   0.41999   0.00000  Uiso   1.00
H926   H     0.60786   0.08599   0.39516   0.00000  Uiso   1.00
H927   H     0.66561   0.09098   0.39465   0.00000  Uiso   1.00
H928   H     0.65902   0.08271   0.60514   0.00000  Uiso   1.00
H929   H     0.60142   0.07724   0.60067   0.00000  Uiso   1.00
H930   H     0.63460   0.03613   0.57470   0.00000  Uiso   1.00
H931   H     0.50000   0.16627   0.41708   0.00000  Uiso   1.00
H932   H     0.84176   0.40909   0.39186   0.00000  Uiso   1.00
H933   H     0.86127   0.45943   0.42034   0.00000  Uiso   1.00
H934   H     0.89822   0.41886   0.39945   0.00000  Uiso   1.00
H935   H     0.96550   0.14697   0.37434   0.00000  Uiso   1.00
H936   H     0.52348   0.14180   0.37059   0.00000  Uiso   1.00
N937   N     0.50000   0.25000   0.61907   0.00000  Uiso   1.00
N938   N     0.50000   0.25000   0.38093   0.00000  Uiso   1.00
N939   N     0.75000  -0.00000   0.61907   0.00000  Uiso   1.00
N940   N     0.75000   0.00000   0.38093   0.00000  Uiso   1.00
O941   O     0.54580   0.20419   0.53821   0.00000  Uiso   1.00
O942   O     0.70419   0.04581   0.46179   0.00000  Uiso   1.00
O943   O     0.70419   0.04581   0.53821   0.00000  Uiso   1.00
O944   O     0.79580   0.45419   0.46179   0.00000  Uiso   1.00
O945   O     0.70419   0.45419   0.46179   0.00000  Uiso   1.00
O946   O     0.79580   0.04581   0.53821   0.00000  Uiso   1.00
O947   O     0.79580   0.04581   0.46179   0.00000  Uiso   1.00
O948   O     0.70419   0.45419   0.53821   0.00000  Uiso   1.00
O949   O     0.95419   0.29581   0.46179   0.00000  Uiso   1.00
O950   O     0.95419   0.29581   0.53821   0.00000  Uiso   1.00
O951   O     0.54580   0.20419   0.46179   0.00000  Uiso   1.00
O952   O     0.95419   0.20419   0.46179   0.00000  Uiso   1.00
O953   O     0.54580   0.29581   0.53821   0.00000  Uiso   1.00
O954   O     0.54580   0.29581   0.46179   0.00000  Uiso   1.00
O955   O     0.95419   0.20419   0.53821   0.00000  Uiso   1.00
O956   O     0.79580   0.45419   0.53821   0.00000  Uiso   1.00
Zn957  Zn    0.50000   0.25000   0.55104   0.00000  Uiso   1.00
Zn958  Zn    0.50000   0.25000   0.44896   0.00000  Uiso   1.00
Zn959  Zn    0.75000   0.00000   0.55104   0.00000  Uiso   1.00
Zn960  Zn    0.75000   0.00000   0.44896   0.00000  Uiso   1.00
C961   C     0.06328   0.69386   0.50008   0.00000  Uiso   1.00
C962   C     0.49800   0.70969   0.64295   0.00000  Uiso   1.00
C963   C     0.49855   0.70966   0.35740   0.00000  Uiso   1.00
C964   C     0.00089   0.79043   0.64255   0.00000  Uiso   1.00
C965   C     0.25200   0.54031   0.35705   0.00000  Uiso   1.00
C966   C     0.24951   0.95957   0.64295   0.00000  Uiso   1.00
C967   C     0.24910   0.95957   0.35745   0.00000  Uiso   1.00
C968   C     0.25145   0.54034   0.64260   0.00000  Uiso   1.00
C969   C     0.36350   0.67192   0.50227   0.00000  Uiso   1.00
C970   C     0.11734   0.85141   0.54025   0.00000  Uiso   1.00
C971   C     0.11525   0.85489   0.45875   0.00000  Uiso   1.00
C972   C     0.43705   0.80670   0.50011   0.00000  Uiso   1.00
C973   C     0.41887   0.61102   0.49937   0.00000  Uiso   1.00
C974   C     0.11433   0.64491   0.54131   0.00000  Uiso   1.00
C975   C     0.38297   0.85206   0.45964   0.00000  Uiso   1.00
C976   C     0.38493   0.85449   0.54123   0.00000  Uiso   1.00
C977   C     0.11692   0.64808   0.45949   0.00000  Uiso   1.00
C978   C     0.13266   0.89859   0.45976   0.00000  Uiso   1.00
C979   C     0.38650   0.57808   0.49773   0.00000  Uiso   1.00
C980   C     0.33113   0.63898   0.50063   0.00000  Uiso   1.00
C981   C     0.13475   0.89511   0.54125   0.00000  Uiso   1.00
C982   C     0.36703   0.89794   0.54036   0.00000  Uiso   1.00
C983   C     0.44002   0.69043   0.50020   0.00000  Uiso   1.00
C984   C     0.13566   0.60508   0.45869   0.00000  Uiso   1.00
C985   C     0.13308   0.60191   0.54051   0.00000  Uiso   1.00
C986   C     0.36507   0.89551   0.45877   0.00000  Uiso   1.00
C987   C     0.10187   0.83466   0.49934   0.00000  Uiso   1.00
C988   C     0.40675   0.65729   0.50081   0.00000  Uiso   1.00
C989   C     0.39865   0.83516   0.50052   0.00000  Uiso   1.00
C990   C     0.10111   0.66471   0.50047   0.00000  Uiso   1.00
C991   C     0.34325   0.59271   0.49919   0.00000  Uiso   1.00
C992   C     0.14813   0.91534   0.50066   0.00000  Uiso   1.00
C993   C     0.14889   0.58529   0.49953   0.00000  Uiso   1.00
C994   C     0.06354   0.80589   0.49980   0.00000  Uiso   1.00
C995   C     0.35135   0.91484   0.49948   0.00000  Uiso   1.00
C996   C     0.49936   0.83619   0.38043   0.00000  Uiso   1.00
C997   C     0.49297   0.66449   0.61933   0.00000  Uiso   1.00
C998   C     0.49660   0.66410   0.38127   0.00000  Uiso   1.00
C999   C     0.00192   0.83626   0.61874   0.00000  Uiso   1.00
C1000  C     0.25703   0.58551   0.38067   0.00000  Uiso   1.00
C1001  C     0.25064   0.91381   0.61957   0.00000  Uiso   1.00
C1002  C     0.24808   0.91374   0.38126   0.00000  Uiso   1.00
C1003  C     0.25340   0.58590   0.61873   0.00000  Uiso   1.00
C1004  C     0.35162   0.72195   0.50637   0.00000  Uiso   1.00
C1005  C     0.31295   0.94330   0.49989   0.00000  Uiso   1.00
C1006  C     0.12032   0.82163   0.58162   0.00000  Uiso   1.00
C1007  C     0.11643   0.82892   0.41516   0.00000  Uiso   1.00
C1008  C     0.46636   0.59798   0.49968   0.00000  Uiso   1.00
C1009  C     0.11245   0.67032   0.58528   0.00000  Uiso   1.00
C1010  C     0.38029   0.82264   0.41825   0.00000  Uiso   1.00
C1011  C     0.38399   0.82772   0.58470   0.00000  Uiso   1.00
C1012  C     0.11755   0.67707   0.41735   0.00000  Uiso   1.00
C1013  C     0.12968   0.92837   0.41838   0.00000  Uiso   1.00
C1014  C     0.39838   0.52805   0.49363   0.00000  Uiso   1.00
C1015  C     0.28364   0.65202   0.50032   0.00000  Uiso   1.00
C1016  C     0.18672   0.55614   0.49992   0.00000  Uiso   1.00
C1017  C     0.13357   0.92108   0.58484   0.00000  Uiso   1.00
C1018  C     0.36971   0.92736   0.58175   0.00000  Uiso   1.00
C1019  C     0.13755   0.57968   0.41472   0.00000  Uiso   1.00
C1020  C     0.13245   0.57293   0.58265   0.00000  Uiso   1.00
C1021  C     0.36601   0.92228   0.41530   0.00000  Uiso   1.00
C1022  C     0.18646   0.94411   0.50020   0.00000  Uiso   1.00
C1023  C     0.30998   0.55957   0.49980   0.00000  Uiso   1.00
C1024  C     0.00049   0.79043   0.35705   0.00000  Uiso   1.00
H1025  H     0.00061   0.83453   0.41660   0.00000  Uiso   1.00
H1026  H     0.49984   0.83476   0.58264   0.00000  Uiso   1.00
H1027  H     0.47464   0.85782   0.62960   0.00000  Uiso   1.00
H1028  H     0.03188   0.85478   0.62676   0.00000  Uiso   1.00
H1029  H     0.25019   0.58372   0.41612   0.00000  Uiso   1.00
H1030  H     0.29028   0.59852   0.37587   0.00000  Uiso   1.00
H1031  H     0.23394   0.61131   0.36824   0.00000  Uiso   1.00
H1032  H     0.24939   0.91547   0.58341   0.00000  Uiso   1.00
H1033  H     0.28050   0.89525   0.62812   0.00000  Uiso   1.00
H1034  H     0.22324   0.89226   0.63031   0.00000  Uiso   1.00
H1035  H     0.25016   0.91524   0.41736   0.00000  Uiso   1.00
H1036  H     0.02676   0.85774   0.36969   0.00000  Uiso   1.00
H1037  H     0.21812   0.89522   0.37324   0.00000  Uiso   1.00
H1038  H     0.27536   0.89218   0.37040   0.00000  Uiso   1.00
H1039  H     0.24999   0.58373   0.58292   0.00000  Uiso   1.00
H1040  H     0.22651   0.60820   0.62941   0.00000  Uiso   1.00
H1041  H     0.28450   0.60303   0.62566   0.00000  Uiso   1.00
H1042  H     0.37952   0.74420   0.51127   0.00000  Uiso   1.00
H1043  H     0.33495   0.73371   0.47568   0.00000  Uiso   1.00
H1044  H     0.33061   0.72708   0.53604   0.00000  Uiso   1.00
H1045  H     0.11421   0.78527   0.57414   0.00000  Uiso   1.00
H1046  H     0.15353   0.82312   0.59502   0.00000  Uiso   1.00
H1047  H     0.46950   0.85475   0.37188   0.00000  Uiso   1.00
H1048  H     0.09789   0.83337   0.60787   0.00000  Uiso   1.00
H1049  H     0.09300   0.84312   0.39127   0.00000  Uiso   1.00
H1050  H     0.14902   0.83182   0.40004   0.00000  Uiso   1.00
H1051  H     0.11072   0.79194   0.41988   0.00000  Uiso   1.00
H1052  H     0.48224   0.61084   0.46892   0.00000  Uiso   1.00
H1053  H     0.48228   0.61320   0.52907   0.00000  Uiso   1.00
H1054  H     0.47276   0.56089   0.50167   0.00000  Uiso   1.00
H1055  H     0.11133   0.70771   0.58002   0.00000  Uiso   1.00
H1056  H     0.08439   0.65902   0.60535   0.00000  Uiso   1.00
H1057  H     0.14214   0.66401   0.60484   0.00000  Uiso   1.00
H1058  H     0.49981   0.66627   0.58388   0.00000  Uiso   1.00
H1059  H     0.38590   0.78597   0.42572   0.00000  Uiso   1.00
H1060  H     0.34730   0.82466   0.40431   0.00000  Uiso   1.00
H1061  H     0.40321   0.83448   0.39236   0.00000  Uiso   1.00
H1062  H     0.40824   0.84091   0.60814   0.00000  Uiso   1.00
H1063  H     0.35178   0.83114   0.60055   0.00000  Uiso   1.00
H1064  H     0.38873   0.79057   0.57966   0.00000  Uiso   1.00
H1065  H     0.09098   0.66729   0.39486   0.00000  Uiso   1.00
H1066  H     0.11539   0.71387   0.42530   0.00000  Uiso   1.00
H1067  H     0.14858   0.67276   0.39933   0.00000  Uiso   1.00
H1068  H     0.13579   0.96473   0.42586   0.00000  Uiso   1.00
H1069  H     0.01606   0.63869   0.63176   0.00000  Uiso   1.00
H1070  H     0.15211   0.91663   0.39213   0.00000  Uiso   1.00
H1071  H     0.09647   0.92688   0.40498   0.00000  Uiso   1.00
H1072  H     0.37048   0.50580   0.48873   0.00000  Uiso   1.00
H1073  H     0.41939   0.52292   0.46396   0.00000  Uiso   1.00
H1074  H     0.41505   0.51629   0.52432   0.00000  Uiso   1.00
H1075  H     0.26776   0.63916   0.53108   0.00000  Uiso   1.00
H1076  H     0.27724   0.68911   0.49833   0.00000  Uiso   1.00
H1077  H     0.26772   0.63680   0.47093   0.00000  Uiso   1.00
H1078  H     0.15700   0.90689   0.60873   0.00000  Uiso   1.00
H1079  H     0.13928   0.95806   0.58012   0.00000  Uiso   1.00
H1080  H     0.45972   0.65148   0.62413   0.00000  Uiso   1.00
H1081  H     0.10098   0.91818   0.59996   0.00000  Uiso   1.00
H1082  H     0.36410   0.96403   0.57428   0.00000  Uiso   1.00
H1083  H     0.34679   0.91551   0.60764   0.00000  Uiso   1.00
H1084  H     0.40270   0.92534   0.59569   0.00000  Uiso   1.00
H1085  H     0.13867   0.54229   0.41999   0.00000  Uiso   1.00
H1086  H     0.10786   0.58599   0.39516   0.00000  Uiso   1.00
H1087  H     0.16561   0.59098   0.39465   0.00000  Uiso   1.00
H1088  H     0.15902   0.58271   0.60514   0.00000  Uiso   1.00
H1089  H     0.10142   0.57724   0.60067   0.00000  Uiso   1.00
H1090  H     0.13460   0.53613   0.57470   0.00000  Uiso   1.00
H1091  H     0.00000   0.66627   0.41708   0.00000  Uiso   1.00
H1092  H     0.34176   0.90909   0.39186   0.00000  Uiso   1.00
H1093  H     0.36127   0.95943   0.42034   0.00000  Uiso   1.00
H1094  H     0.39822   0.91886   0.39945   0.00000  Uiso   1.00
H1095  H     0.46550   0.64697   0.37434   0.00000  Uiso   1.00
H1096  H     0.02348   0.64180   0.37059   0.00000  Uiso   1.00
N1097  N     0.00000   0.75000   0.61907   0.00000  Uiso   1.00
N1098  N     0.00000   0.75000   0.38093   0.00000  Uiso   1.00
N1099  N     0.25000   0.50000   0.61907   0.00000  Uiso   1.00
N1100  N     0.25000   0.50000   0.38093   0.00000  Uiso   1.00
O1101  O     0.04580   0.70419   0.53821   0.00000  Uiso   1.00
O1102  O     0.20419   0.54581   0.46179   0.00000  Uiso   1.00
O1103  O     0.20419   0.54581   0.53821   0.00000  Uiso   1.00
O1104  O     0.29580   0.95419   0.46179   0.00000  Uiso   1.00
O1105  O     0.20419   0.95419   0.46179   0.00000  Uiso   1.00
O1106  O     0.29580   0.54581   0.53821   0.00000  Uiso   1.00
O1107  O     0.29580   0.54581   0.46179   0.00000  Uiso   1.00
O1108  O     0.20419   0.95419   0.53821   0.00000  Uiso   1.00
O1109  O     0.45419   0.79581   0.46179   0.00000  Uiso   1.00
O1110  O     0.45419   0.79581   0.53821   0.00000  Uiso   1.00
O1111  O     0.04580   0.70419   0.46179   0.00000  Uiso   1.00
O1112  O     0.45419   0.70419   0.46179   0.00000  Uiso   1.00
O1113  O     0.04580   0.79581   0.53821   0.00000  Uiso   1.00
O1114  O     0.04580   0.79581   0.46179   0.00000  Uiso   1.00
O1115  O     0.45419   0.70419   0.53821   0.00000  Uiso   1.00
O1116  O     0.29580   0.95419   0.53821   0.00000  Uiso   1.00
Zn1117 Zn    0.00000   0.75000   0.55104   0.00000  Uiso   1.00
Zn1118 Zn    0.00000   0.75000   0.44896   0.00000  Uiso   1.00
Zn1119 Zn    0.25000   0.50000   0.55104   0.00000  Uiso   1.00
Zn1120 Zn    0.25000   0.50000   0.44896   0.00000  Uiso   1.00
C1121  C     0.56328   0.69386   0.50008   0.00000  Uiso   1.00
C1122  C     0.99800   0.70969   0.64295   0.00000  Uiso   1.00
C1123  C     0.99855   0.70966   0.35740   0.00000  Uiso   1.00
C1124  C     0.50089   0.79043   0.64255   0.00000  Uiso   1.00
C1125  C     0.75200   0.54031   0.35705   0.00000  Uiso   1.00
C1126  C     0.74951   0.95957   0.64295   0.00000  Uiso   1.00
C1127  C     0.74910   0.95957   0.35745   0.00000  Uiso   1.00
C1128  C     0.75145   0.54034   0.64260   0.00000  Uiso   1.00
C1129  C     0.86350   0.67192   0.50227   0.00000  Uiso   1.00
C1130  C     0.61734   0.85141   0.54025   0.00000  Uiso   1.00
C1131  C     0.61525   0.85489   0.45875   0.00000  Uiso   1.00
C1132  C     0.93705   0.80670   0.50011   0.00000  Uiso   1.00
C1133  C     0.91887   0.61102   0.49937   0.00000  Uiso   1.00
C1134  C     0.61433   0.64491   0.54131   0.00000  Uiso   1.00
C1135  C     0.88297   0.85206   0.45964   0.00000  Uiso   1.00
C1136  C     0.88493   0.85449   0.54123   0.00000  Uiso   1.00
C1137  C     0.61692   0.64808   0.45949   0.00000  Uiso   1.00
C1138  C     0.63266   0.89859   0.45976   0.00000  Uiso   1.00
C1139  C     0.88650   0.57808   0.49773   0.00000  Uiso   1.00
C1140  C     0.83113   0.63898   0.50063   0.00000  Uiso   1.00
C1141  C     0.63475   0.89511   0.54125   0.00000  Uiso   1.00
C1142  C     0.86703   0.89794   0.54036   0.00000  Uiso   1.00
C1143  C     0.94002   0.69043   0.50020   0.00000  Uiso   1.00
C1144  C     0.63566   0.60508   0.45869   0.00000  Uiso   1.00
C1145  C     0.63308   0.60191   0.54051   0.00000  Uiso   1.00
C1146  C     0.86507   0.89551   0.45877   0.00000  Uiso   1.00
C1147  C     0.60187   0.83466   0.49934   0.00000  Uiso   1.00
C1148  C     0.90675   0.65729   0.50081   0.00000  Uiso   1.00
C1149  C     0.89865   0.83516   0.50052   0.00000  Uiso   1.00
C1150  C     0.60111   0.66471   0.50047   0.00000  Uiso   1.00
C1151  C     0.84325   0.59271   0.49919   0.00000  Uiso   1.00
C1152  C     0.64813   0.91534   0.50066   0.00000  Uiso   1.00
C1153  C     0.64889   0.58529   0.49953   0.00000  Uiso   1.00
C1154  C     0.56354   0.80589   0.49980   0.00000  Uiso   1.00
C1155  C     0.85135   0.91484   0.49948   0.00000  Uiso   1.00
C1156  C     0.99936   0.83619   0.38043   0.00000  Uiso   1.00
C1157  C     0.99297   0.66449   0.61933   0.00000  Uiso   1.00
C1158  C     0.99660   0.66410   0.38127   0.00000  Uiso   1.00
C1159  C     0.50192   0.83626   0.61874   0.00000  Uiso   1.00
C1160  C     0.75703   0.58551   0.38067   0.00000  Uiso   1.00
C1161  C     0.75064   0.91381   0.61957   0.00000  Uiso   1.00
C1162  C     0.74808   0.91374   0.38126   0.00000  Uiso   1.00
C1163  C     0.75340   0.58590   0.61873   0.00000  Uiso   1.00
C1164  C     0.85162   0.72195   0.50637   0.00000  Uiso   1.00
C1165  C     0.81295   0.94330   0.49989   0.00000  Uiso   1.00
C1166  C     0.62032   0.82163   0.58162   0.00000  Uiso   1.00
C1167  C     0.61643   0.82892   0.41516   0.00000  Uiso   1.00
C1168  C     0.96636   0.59798   0.49968   0.00000  Uiso   1.00
C1169  C     0.61245   0.67032   0.58528   0.00000  Uiso   1.00
C1170  C     0.88029   0.82264   0.41825   0.00000  Uiso   1.00
C1171  C     0.88399   0.82772   0.58470   0.00000  Uiso   1.00
C1172  C     0.61755   0.67707   0.41735   0.00000  Uiso   1.00
C1173  C     0.62968   0.92837   0.41838   0.00000  Uiso   1.00
C1174  C     0.89838   0.52805   0.49363   0.00000  Uiso   1.00
C1175  C     0.78364   0.65202   0.50032   0.00000  Uiso   1.00
C1176  C     0.68672   0.55614   0.49992   0.00000  Uiso   1.00
C1177  C     0.63357   0.92108   0.58484   0.00000  Uiso   1.00
C1178  C     0.86971   0.92736   0.58175   0.00000  Uiso   1.00
C1179  C     0.63755   0.57968   0.41472   0.00000  Uiso   1.00
C1180  C     0.63245   0.57293   0.58265   0.00000  Uiso   1.00
C1181  C     0.86601   0.92228   0.41530   0.00000  Uiso   1.00
C1182  C     0.68646   0.94411   0.50020   0.00000  Uiso   1.00
C1183  C     0.80998   0.55957   0.49980   0.00000  Uiso   1.00
C1184  C     0.50049   0.79043   0.35705   0.00000  Uiso   1.00
H1185  H     0.50061   0.83453   0.41660   0.00000  Uiso   1.00
H1186  H     0.99984   0.83476   0.58264   0.00000  Uiso   1.00
H1187  H     0.97464   0.85782   0.62960   0.00000  Uiso   1.00
H1188  H     0.53188   0.85478   0.62676   0.00000  Uiso   1.00
H1189  H     0.75019   0.58372   0.41612   0.00000  Uiso   1.00
H1190  H     0.79028   0.59852   0.37587   0.00000  Uiso   1.00
H1191  H     0.73394   0.61131   0.36824   0.00000  Uiso   1.00
H1192  H     0.74939   0.91547   0.58341   0.00000  Uiso   1.00
H1193  H     0.78050   0.89525   0.62812   0.00000  Uiso   1.00
H1194  H     0.72324   0.89226   0.63031   0.00000  Uiso   1.00
H1195  H     0.75016   0.91524   0.41736   0.00000  Uiso   1.00
H1196  H     0.52676   0.85774   0.36969   0.00000  Uiso   1.00
H1197  H     0.71812   0.89522   0.37324   0.00000  Uiso   1.00
H1198  H     0.77536   0.89218   0.37040   0.00000  Uiso   1.00
H1199  H     0.74999   0.58373   0.58292   0.00000  Uiso   1.00
H1200  H     0.72651   0.60820   0.62941   0.00000  Uiso   1.00
H1201  H     0.78450   0.60303   0.62566   0.00000  Uiso   1.00
H1202  H     0.87952   0.74420   0.51127   0.00000  Uiso   1.00
H1203  H     0.83495   0.73371   0.47568   0.00000  Uiso   1.00
H1204  H     0.83061   0.72708   0.53604   0.00000  Uiso   1.00
H1205  H     0.61421   0.78527   0.57414   0.00000  Uiso   1.00
H1206  H     0.65353   0.82312   0.59502   0.00000  Uiso   1.00
H1207  H     0.96950   0.85475   0.37188   0.00000  Uiso   1.00
H1208  H     0.59789   0.83337   0.60787   0.00000  Uiso   1.00
H1209  H     0.59300   0.84312   0.39127   0.00000  Uiso   1.00
H1210  H     0.64902   0.83182   0.40004   0.00000  Uiso   1.00
H1211  H     0.61072   0.79194   0.41988   0.00000  Uiso   1.00
H1212  H     0.98224   0.61084   0.46892   0.00000  Uiso   1.00
H1213  H     0.98228   0.61320   0.52907   0.00000  Uiso   1.00
H1214  H     0.97276   0.56089   0.50167   0.00000  Uiso   1.00
H1215  H     0.61133   0.70771   0.58002   0.00000  Uiso   1.00
H1216  H     0.58439   0.65902   0.60535   0.00000  Uiso   1.00
H1217  H     0.64214   0.66401   0.60484   0.00000  Uiso   1.00
H1218  H     0.99981   0.66627   0.58388   0.00000  Uiso   1.00
H1219  H     0.88590   0.78597   0.42572   0.00000  Uiso   1.00
H1220  H     0.84730   0.82466   0.40431   0.00000  Uiso   1.00
H1221  H     0.90321   0.83448   0.39236   0.00000  Uiso   1.00
H1222  H     0.90824   0.84091   0.60814   0.00000  Uiso   1.00
H1223  H     0.85178   0.83114   0.60055   0.00000  Uiso   1.00
H1224  H     0.88873   0.79057   0.57966   0.00000  Uiso   1.00
H1225  H     0.59098   0.66729   0.39486   0.00000  Uiso   1.00
H1226  H     0.61539   0.71387   0.42530   0.00000  Uiso   1.00
H1227  H     0.64858   0.67276   0.39933   0.00000  Uiso   1.00
H1228  H     0.63579   0.96473   0.42586   0.00000  Uiso   1.00
H1229  H     0.51606   0.63869   0.63176   0.00000  Uiso   1.00
H1230  H     0.65211   0.91663   0.39213   0.00000  Uiso   1.00
H1231  H     0.59647   0.92688   0.40498   0.00000  Uiso   1.00
H1232  H     0.87048   0.50580   0.48873   0.00000  Uiso   1.00
H1233  H     0.91939   0.52292   0.46396   0.00000  Uiso   1.00
H1234  H     0.91505   0.51629   0.52432   0.00000  Uiso   1.00
H1235  H     0.76776   0.63916   0.53108   0.00000  Uiso   1.00
H1236  H     0.77724   0.68911   0.49833   0.00000  Uiso   1.00
H1237  H     0.76772   0.63680   0.47093   0.00000  Uiso   1.00
H1238  H     0.65700   0.90689   0.60873   0.00000  Uiso   1.00
H1239  H     0.63928   0.95806   0.58012   0.00000  Uiso   1.00
H1240  H     0.95972   0.65148   0.62413   0.00000  Uiso   1.00
H1241  H     0.60098   0.91818   0.59996   0.00000  Uiso   1.00
H1242  H     0.86410   0.96403   0.57428   0.00000  Uiso   1.00
H1243  H     0.84679   0.91551   0.60764   0.00000  Uiso   1.00
H1244  H     0.90270   0.92534   0.59569   0.00000  Uiso   1.00
H1245  H     0.63867   0.54229   0.41999   0.00000  Uiso   1.00
H1246  H     0.60786   0.58599   0.39516   0.00000  Uiso   1.00
H1247  H     0.66561   0.59098   0.39465   0.00000  Uiso   1.00
H1248  H     0.65902   0.58271   0.60514   0.00000  Uiso   1.00
H1249  H     0.60142   0.57724   0.60067   0.00000  Uiso   1.00
H1250  H     0.63460   0.53613   0.57470   0.00000  Uiso   1.00
H1251  H     0.50000   0.66627   0.41708   0.00000  Uiso   1.00
H1252  H     0.84176   0.90909   0.39186   0.00000  Uiso   1.00
H1253  H     0.86127   0.95943   0.42034   0.00000  Uiso   1.00
H1254  H     0.89822   0.91886   0.39945   0.00000  Uiso   1.00
H1255  H     0.96550   0.64697   0.37434   0.00000  Uiso   1.00
H1256  H     0.52348   0.64180   0.37059   0.00000  Uiso   1.00
N1257  N     0.50000   0.75000   0.61907   0.00000  Uiso   1.00
N1258  N     0.50000   0.75000   0.38093   0.00000  Uiso   1.00
N1259  N     0.75000   0.50000   0.61907   0.00000  Uiso   1.00
N1260  N     0.75000   0.50000   0.38093   0.00000  Uiso   1.00
O1261  O     0.54580   0.70419   0.53821   0.00000  Uiso   1.00
O1262  O     0.70419   0.54581   0.46179   0.00000  Uiso   1.00
O1263  O     0.70419   0.54581   0.53821   0.00000  Uiso   1.00
O1264  O     0.79580   0.95419   0.46179   0.00000  Uiso   1.00
O1265  O     0.70419   0.95419   0.46179   0.00000  Uiso   1.00
O1266  O     0.79580   0.54581   0.53821   0.00000  Uiso   1.00
O1267  O     0.79580   0.54581   0.46179   0.00000  Uiso   1.00
O1268  O     0.70419   0.95419   0.53821   0.00000  Uiso   1.00
O1269  O     0.95419   0.79581   0.46179   0.00000  Uiso   1.00
O1270  O     0.95419   0.79581   0.53821   0.00000  Uiso   1.00
O1271  O     0.54580   0.70419   0.46179   0.00000  Uiso   1.00
O1272  O     0.95419   0.70419   0.46179   0.00000  Uiso   1.00
O1273  O     0.54580   0.79581   0.53821   0.00000  Uiso   1.00
O1274  O     0.54580   0.79581   0.46179   0.00000  Uiso   1.00
O1275  O     0.95419   0.70419   0.53821   0.00000  Uiso   1.00
O1276  O     0.79580   0.95419   0.53821   0.00000  Uiso   1.00
Zn1277 Zn    0.50000   0.75000   0.55104   0.00000  Uiso   1.00
Zn1278 Zn    0.50000   0.75000   0.44896   0.00000  Uiso   1.00
Zn1279 Zn    0.75000   0.50000   0.55104   0.00000  Uiso   1.00
Zn1280 Zn    0.75000   0.50000   0.44896   0.00000  Uiso   1.00
C1281  C     0.06328   0.19386   0.83341   0.00000  Uiso   1.00
C1282  C     0.49800   0.20969   0.97628   0.00000  Uiso   1.00
C1283  C     0.49855   0.20966   0.69074   0.00000  Uiso   1.00
C1284  C     0.00089   0.29043   0.97588   0.00000  Uiso   1.00
C1285  C     0.25200   0.04031   0.69038   0.00000  Uiso   1.00
C1286  C     0.24951   0.45957   0.97628   0.00000  Uiso   1.00
C1287  C     0.24910   0.45957   0.69079   0.00000  Uiso   1.00
C1288  C     0.25145   0.04034   0.97593   0.00000  Uiso   1.00
C1289  C     0.36350   0.17192   0.83560   0.00000  Uiso   1.00
C1290  C     0.11734   0.35141   0.87358   0.00000  Uiso   1.00
C1291  C     0.11525   0.35489   0.79208   0.00000  Uiso   1.00
C1292  C     0.43705   0.30670   0.83345   0.00000  Uiso   1.00
C1293  C     0.41887   0.11102   0.83271   0.00000  Uiso   1.00
C1294  C     0.11433   0.14491   0.87464   0.00000  Uiso   1.00
C1295  C     0.38297   0.35206   0.79297   0.00000  Uiso   1.00
C1296  C     0.38493   0.35449   0.87456   0.00000  Uiso   1.00
C1297  C     0.11692   0.14808   0.79282   0.00000  Uiso   1.00
C1298  C     0.13266   0.39859   0.79309   0.00000  Uiso   1.00
C1299  C     0.38650   0.07808   0.83106   0.00000  Uiso   1.00
C1300  C     0.33113   0.13898   0.83396   0.00000  Uiso   1.00
C1301  C     0.13475   0.39511   0.87458   0.00000  Uiso   1.00
C1302  C     0.36703   0.39794   0.87369   0.00000  Uiso   1.00
C1303  C     0.44002   0.19043   0.83353   0.00000  Uiso   1.00
C1304  C     0.13566   0.10508   0.79203   0.00000  Uiso   1.00
C1305  C     0.13308   0.10191   0.87385   0.00000  Uiso   1.00
C1306  C     0.36507   0.39551   0.79211   0.00000  Uiso   1.00
C1307  C     0.10187   0.33466   0.83268   0.00000  Uiso   1.00
C1308  C     0.40675   0.15729   0.83414   0.00000  Uiso   1.00
C1309  C     0.39865   0.33516   0.83385   0.00000  Uiso   1.00
C1310  C     0.10111   0.16471   0.83381   0.00000  Uiso   1.00
C1311  C     0.34325   0.09271   0.83252   0.00000  Uiso   1.00
C1312  C     0.14813   0.41534   0.83399   0.00000  Uiso   1.00
C1313  C     0.14889   0.08529   0.83286   0.00000  Uiso   1.00
C1314  C     0.06354   0.30589   0.83313   0.00000  Uiso   1.00
C1315  C     0.35135   0.41484   0.83282   0.00000  Uiso   1.00
C1316  C     0.49936   0.33619   0.71376   0.00000  Uiso   1.00
C1317  C     0.49297   0.16449   0.95266   0.00000  Uiso   1.00
C1318  C     0.49660   0.16410   0.71461   0.00000  Uiso   1.00
C1319  C     0.00192   0.33626   0.95208   0.00000  Uiso   1.00
C1320  C     0.25703   0.08551   0.71400   0.00000  Uiso   1.00
C1321  C     0.25064   0.41381   0.95290   0.00000  Uiso   1.00
C1322  C     0.24808   0.41374   0.71459   0.00000  Uiso   1.00
C1323  C     0.25340   0.08590   0.95206   0.00000  Uiso   1.00
C1324  C     0.35162   0.22195   0.83971   0.00000  Uiso   1.00
C1325  C     0.31295   0.44330   0.83322   0.00000  Uiso   1.00
C1326  C     0.12032   0.32163   0.91495   0.00000  Uiso   1.00
C1327  C     0.11643   0.32892   0.74850   0.00000  Uiso   1.00
C1328  C     0.46636   0.09798   0.83301   0.00000  Uiso   1.00
C1329  C     0.11245   0.17032   0.91862   0.00000  Uiso   1.00
C1330  C     0.38029   0.32264   0.75158   0.00000  Uiso   1.00
C1331  C     0.38399   0.32772   0.91803   0.00000  Uiso   1.00
C1332  C     0.11755   0.17707   0.75069   0.00000  Uiso   1.00
C1333  C     0.12968   0.42837   0.75172   0.00000  Uiso   1.00
C1334  C     0.39838   0.02805   0.82696   0.00000  Uiso   1.00
C1335  C     0.28364   0.15202   0.83365   0.00000  Uiso   1.00
C1336  C     0.18672   0.05614   0.83325   0.00000  Uiso   1.00
C1337  C     0.13357   0.42108   0.91817   0.00000  Uiso   1.00
C1338  C     0.36971   0.42736   0.91509   0.00000  Uiso   1.00
C1339  C     0.13755   0.07968   0.74805   0.00000  Uiso   1.00
C1340  C     0.13245   0.07293   0.91598   0.00000  Uiso   1.00
C1341  C     0.36601   0.42228   0.74864   0.00000  Uiso   1.00
C1342  C     0.18646   0.44411   0.83354   0.00000  Uiso   1.00
C1343  C     0.30998   0.05957   0.83314   0.00000  Uiso   1.00
C1344  C     0.00049   0.29043   0.69038   0.00000  Uiso   1.00
H1345  H     0.00061   0.33453   0.74993   0.00000  Uiso   1.00
H1346  H     0.49984   0.33476   0.91597   0.00000  Uiso   1.00
H1347  H     0.47464   0.35782   0.96293   0.00000  Uiso   1.00
H1348  H     0.03188   0.35478   0.96009   0.00000  Uiso   1.00
H1349  H     0.25019   0.08372   0.74945   0.00000  Uiso   1.00
H1350  H     0.29028   0.09852   0.70920   0.00000  Uiso   1.00
H1351  H     0.23394   0.11131   0.70157   0.00000  Uiso   1.00
H1352  H     0.24939   0.41547   0.91674   0.00000  Uiso   1.00
H1353  H     0.28050   0.39525   0.96145   0.00000  Uiso   1.00
H1354  H     0.22324   0.39226   0.96365   0.00000  Uiso   1.00
H1355  H     0.25016   0.41524   0.75069   0.00000  Uiso   1.00
H1356  H     0.02676   0.35774   0.70302   0.00000  Uiso   1.00
H1357  H     0.21812   0.39522   0.70657   0.00000  Uiso   1.00
H1358  H     0.27536   0.39218   0.70374   0.00000  Uiso   1.00
H1359  H     0.24999   0.08373   0.91625   0.00000  Uiso   1.00
H1360  H     0.22651   0.10820   0.96274   0.00000  Uiso   1.00
H1361  H     0.28450   0.10303   0.95899   0.00000  Uiso   1.00
H1362  H     0.37952   0.24420   0.84460   0.00000  Uiso   1.00
H1363  H     0.33495   0.23371   0.80902   0.00000  Uiso   1.00
H1364  H     0.33061   0.22708   0.86937   0.00000  Uiso   1.00
H1365  H     0.11421   0.28527   0.90747   0.00000  Uiso   1.00
H1366  H     0.15353   0.32312   0.92835   0.00000  Uiso   1.00
H1367  H     0.46950   0.35475   0.70521   0.00000  Uiso   1.00
H1368  H     0.09789   0.33337   0.94120   0.00000  Uiso   1.00
H1369  H     0.09300   0.34312   0.72460   0.00000  Uiso   1.00
H1370  H     0.14902   0.33182   0.73337   0.00000  Uiso   1.00
H1371  H     0.11072   0.29194   0.75321   0.00000  Uiso   1.00
H1372  H     0.48224   0.11084   0.80226   0.00000  Uiso   1.00
H1373  H     0.48228   0.11320   0.86240   0.00000  Uiso   1.00
H1374  H     0.47276   0.06089   0.83500   0.00000  Uiso   1.00
H1375  H     0.11133   0.20771   0.91335   0.00000  Uiso   1.00
H1376  H     0.08439   0.15902   0.93868   0.00000  Uiso   1.00
H1377  H     0.14214   0.16401   0.93817   0.00000  Uiso   1.00
H1378  H     0.49981   0.16627   0.91721   0.00000  Uiso   1.00
H1379  H     0.38590   0.28597   0.75905   0.00000  Uiso   1.00
H1380  H     0.34730   0.32466   0.73764   0.00000  Uiso   1.00
H1381  H     0.40321   0.33448   0.72570   0.00000  Uiso   1.00
H1382  H     0.40824   0.34091   0.94147   0.00000  Uiso   1.00
H1383  H     0.35178   0.33114   0.93389   0.00000  Uiso   1.00
H1384  H     0.38873   0.29057   0.91299   0.00000  Uiso   1.00
H1385  H     0.09098   0.16729   0.72819   0.00000  Uiso   1.00
H1386  H     0.11539   0.21387   0.75864   0.00000  Uiso   1.00
H1387  H     0.14858   0.17276   0.73266   0.00000  Uiso   1.00
H1388  H     0.13579   0.46473   0.75920   0.00000  Uiso   1.00
H1389  H     0.01606   0.13869   0.96509   0.00000  Uiso   1.00
H1390  H     0.15211   0.41663   0.72546   0.00000  Uiso   1.00
H1391  H     0.09647   0.42688   0.73831   0.00000  Uiso   1.00
H1392  H     0.37048   0.00580   0.82207   0.00000  Uiso   1.00
H1393  H     0.41939   0.02292   0.79729   0.00000  Uiso   1.00
H1394  H     0.41505   0.01629   0.85765   0.00000  Uiso   1.00
H1395  H     0.26776   0.13916   0.86441   0.00000  Uiso   1.00
H1396  H     0.27724   0.18911   0.83167   0.00000  Uiso   1.00
H1397  H     0.26772   0.13680   0.80427   0.00000  Uiso   1.00
H1398  H     0.15700   0.40689   0.94206   0.00000  Uiso   1.00
H1399  H     0.13928   0.45806   0.91345   0.00000  Uiso   1.00
H1400  H     0.45972   0.15148   0.95747   0.00000  Uiso   1.00
H1401  H     0.10098   0.41818   0.93330   0.00000  Uiso   1.00
H1402  H     0.36410   0.46403   0.90761   0.00000  Uiso   1.00
H1403  H     0.34679   0.41551   0.94097   0.00000  Uiso   1.00
H1404  H     0.40270   0.42534   0.92903   0.00000  Uiso   1.00
H1405  H     0.13867   0.04229   0.75332   0.00000  Uiso   1.00
H1406  H     0.10786   0.08599   0.72850   0.00000  Uiso   1.00
H1407  H     0.16561   0.09098   0.72798   0.00000  Uiso   1.00
H1408  H     0.15902   0.08271   0.93848   0.00000  Uiso   1.00
H1409  H     0.10142   0.07724   0.93401   0.00000  Uiso   1.00
H1410  H     0.13460   0.03613   0.90803   0.00000  Uiso   1.00
H1411  H     0.00000   0.16627   0.75041   0.00000  Uiso   1.00
H1412  H     0.34176   0.40909   0.72520   0.00000  Uiso   1.00
H1413  H     0.36127   0.45943   0.75368   0.00000  Uiso   1.00
H1414  H     0.39822   0.41886   0.73278   0.00000  Uiso   1.00
H1415  H     0.46550   0.14697   0.70768   0.00000  Uiso   1.00
H1416  H     0.02348   0.14180   0.70393   0.00000  Uiso   1.00
N1417  N     0.00000   0.25000   0.95240   0.00000  Uiso   1.00
N1418  N     0.00000   0.25000   0.71427   0.00000  Uiso   1.00
N1419  N     0.25000  -0.00000   0.95240   0.00000  Uiso   1.00
N1420  N     0.25000   0.00000   0.71427   0.00000  Uiso   1.00
O1421  O     0.04580   0.20419   0.87154   0.00000  Uiso   1.00
O1422  O     0.20419   0.04581   0.79513   0.00000  Uiso   1.00
O1423  O     0.20419   0.04581   0.87154   0.00000  Uiso   1.00
O1424  O     0.29580   0.45419   0.79513   0.00000  Uiso   1.00
O1425  O     0.20419   0.45419   0.79513   0.00000  Uiso   1.00
O1426  O     0.29580   0.04581   0.87154   0.00000  Uiso   1.00
O1427  O     0.29580   0.04581   0.79513   0.00000  Uiso   1.00
O1428  O     0.20419   0.45419   0.87154   0.00000  Uiso   1.00
O1429  O     0.45419   0.29581   0.79513   0.00000  Uiso   1.00
O1430  O     0.45419   0.29581   0.87154   0.00000  Uiso   1.00
O1431  O     0.04580   0.20419   0.79513   0.00000  Uiso   1.00
O1432  O     0.45419   0.20419   0.79513   0.00000  Uiso   1.00
O1433  O     0.04580   0.29581   0.87154   0.00000  Uiso   1.00
O1434  O     0.04580   0.29581   0.79513   0.00000  Uiso   1.00
O1435  O     0.45419   0.20419   0.87154   0.00000  Uiso   1.00
O1436  O     0.29580   0.45419   0.87154   0.00000  Uiso   1.00
Zn1437 Zn    0.00000   0.25000   0.88437   0.00000  Uiso   1.00
Zn1438 Zn    0.00000   0.25000   0.78229   0.00000  Uiso   1.00
Zn1439 Zn    0.25000   0.00000   0.88437   0.00000  Uiso   1.00
Zn1440 Zn    0.25000   0.00000   0.78229   0.00000  Uiso   1.00
C1441  C     0.56328   0.19386   0.83341   0.00000  Uiso   1.00
C1442  C     0.99800   0.20969   0.97628   0.00000  Uiso   1.00
C1443  C     0.99855   0.20966   0.69074   0.00000  Uiso   1.00
C1444  C     0.50089   0.29043   0.97588   0.00000  Uiso   1.00
C1445  C     0.75200   0.04031   0.69038   0.00000  Uiso   1.00
C1446  C     0.74951   0.45957   0.97628   0.00000  Uiso   1.00
C1447  C     0.74910   0.45957   0.69079   0.00000  Uiso   1.00
C1448  C     0.75145   0.04034   0.97593   0.00000  Uiso   1.00
C1449  C     0.86350   0.17192   0.83560   0.00000  Uiso   1.00
C1450  C     0.61734   0.35141   0.87358   0.00000  Uiso   1.00
C1451  C     0.61525   0.35489   0.79208   0.00000  Uiso   1.00
C1452  C     0.93705   0.30670   0.83345   0.00000  Uiso   1.00
C1453  C     0.91887   0.11102   0.83271   0.00000  Uiso   1.00
C1454  C     0.61433   0.14491   0.87464   0.00000  Uiso   1.00
C1455  C     0.88297   0.35206   0.79297   0.00000  Uiso   1.00
C1456  C     0.88493   0.35449   0.87456   0.00000  Uiso   1.00
C1457  C     0.61692   0.14808   0.79282   0.00000  Uiso   1.00
C1458  C     0.63266   0.39859   0.79309   0.00000  Uiso   1.00
C1459  C     0.88650   0.07808   0.83106   0.00000  Uiso   1.00
C1460  C     0.83113   0.13898   0.83396   0.00000  Uiso   1.00
C1461  C     0.63475   0.39511   0.87458   0.00000  Uiso   1.00
C1462  C     0.86703   0.39794   0.87369   0.00000  Uiso   1.00
C1463  C     0.94002   0.19043   0.83353   0.00000  Uiso   1.00
C1464  C     0.63566   0.10508   0.79203   0.00000  Uiso   1.00
C1465  C     0.63308   0.10191   0.87385   0.00000  Uiso   1.00
C1466  C     0.86507   0.39551   0.79211   0.00000  Uiso   1.00
C1467  C     0.60187   0.33466   0.83268   0.00000  Uiso   1.00
C1468  C     0.90675   0.15729   0.83414   0.00000  Uiso   1.00
C1469  C     0.89865   0.33516   0.83385   0.00000  Uiso   1.00
C1470  C     0.60111   0.16471   0.83381   0.00000  Uiso   1.00
C1471  C     0.84325   0.09271   0.83252   0.00000  Uiso   1.00
C1472  C     0.64813   0.41534   0.83399   0.00000  Uiso   1.00
C1473  C     0.64889   0.08529   0.83286   0.00000  Uiso   1.00
C1474  C     0.56354   0.30589   0.83313   0.00000  Uiso   1.00
C1475  C     0.85135   0.41484   0.83282   0.00000  Uiso   1.00
C1476  C     0.99936   0.33619   0.71376   0.00000  Uiso   1.00
C1477  C     0.99297   0.16449   0.95266   0.00000  Uiso   1.00
C1478  C     0.99660   0.16410   0.71461   0.00000  Uiso   1.00
C1479  C     0.50192   0.33626   0.95208   0.00000  Uiso   1.00
C1480  C     0.75703   0.08551   0.71400   0.00000  Uiso   1.00
C1481  C     0.75064   0.41381   0.95290   0.00000  Uiso   1.00
C1482  C     0.74808   0.41374   0.71459   0.00000  Uiso   1.00
C1483  C     0.75340   0.08590   0.95206   0.00000  Uiso   1.00
C1484  C     0.85162   0.22195   0.83971   0.00000  Uiso   1.00
C1485  C     0.81295   0.44330   0.83322   0.00000  Uiso   1.00
C1486  C     0.62032   0.32163   0.91495   0.00000  Uiso   1.00
C1487  C     0.61643   0.32892   0.74850   0.00000  Uiso   1.00
C1488  C     0.96636   0.09798   0.83301   0.00000  Uiso   1.00
C1489  C     0.61245   0.17032   0.91862   0.00000  Uiso   1.00
C1490  C     0.88029   0.32264   0.75158   0.00000  Uiso   1.00
C1491  C     0.88399   0.32772   0.91803   0.00000  Uiso   1.00
C1492  C     0.61755   0.17707   0.75069   0.00000  Uiso   1.00
C1493  C     0.62968   0.42837   0.75172   0.00000  Uiso   1.00
C1494  C     0.89838   0.02805   0.82696   0.00000  Uiso   1.00
C1495  C     0.78364   0.15202   0.83365   0.00000  Uiso   1.00
C1496  C     0.68672   0.05614   0.83325   0.00000  Uiso   1.00
C1497  C     0.63357   0.42108   0.91817   0.00000  Uiso   1.00
C1498  C     0.86971   0.42736   0.91509   0.00000  Uiso   1.00
C1499  C     0.63755   0.07968   0.74805   0.00000  Uiso   1.00
C1500  C     0.63245   0.07293   0.91598   0.00000  Uiso   1.00
C1501  C     0.86601   0.42228   0.74864   0.00000  Uiso   1.00
C1502  C     0.68646   0.44411   0.83354   0.00000  Uiso   1.00
C1503  C     0.80998   0.05957   0.83314   0.00000  Uiso   1.00
C1504  C     0.50049   0.29043   0.69038   0.00000  Uiso   1.00
H1505  H     0.50061   0.33453   0.74993   0.00000  Uiso   1.00
H1506  H     0.99984   0.33476   0.91597   0.00000  Uiso   1.00
H1507  H     0.97464   0.35782   0.96293   0.00000  Uiso   1.00
H1508  H     0.53188   0.35478   0.96009   0.00000  Uiso   1.00
H1509  H     0.75019   0.08372   0.74945   0.00000  Uiso   1.00
H1510  H     0.79028   0.09852   0.70920   0.00000  Uiso   1.00
H1511  H     0.73394   0.11131   0.70157   0.00000  Uiso   1.00
H1512  H     0.74939   0.41547   0.91674   0.00000  Uiso   1.00
H1513  H     0.78050   0.39525   0.96145   0.00000  Uiso   1.00
H1514  H     0.72324   0.39226   0.96365   0.00000  Uiso   1.00
H1515  H     0.75016   0.41524   0.75069   0.00000  Uiso   1.00
H1516  H     0.52676   0.35774   0.70302   0.00000  Uiso   1.00
H1517  H     0.71812   0.39522   0.70657   0.00000  Uiso   1.00
H1518  H     0.77536   0.39218   0.70374   0.00000  Uiso   1.00
H1519  H     0.74999   0.08373   0.91625   0.00000  Uiso   1.00
H1520  H     0.72651   0.10820   0.96274   0.00000  Uiso   1.00
H1521  H     0.78450   0.10303   0.95899   0.00000  Uiso   1.00
H1522  H     0.87952   0.24420   0.84460   0.00000  Uiso   1.00
H1523  H     0.83495   0.23371   0.80902   0.00000  Uiso   1.00
H1524  H     0.83061   0.22708   0.86937   0.00000  Uiso   1.00
H1525  H     0.61421   0.28527   0.90747   0.00000  Uiso   1.00
H1526  H     0.65353   0.32312   0.92835   0.00000  Uiso   1.00
H1527  H     0.96950   0.35475   0.70521   0.00000  Uiso   1.00
H1528  H     0.59789   0.33337   0.94120   0.00000  Uiso   1.00
H1529  H     0.59300   0.34312   0.72460   0.00000  Uiso   1.00
H1530  H     0.64902   0.33182   0.73337   0.00000  Uiso   1.00
H1531  H     0.61072   0.29194   0.75321   0.00000  Uiso   1.00
H1532  H     0.98224   0.11084   0.80226   0.00000  Uiso   1.00
H1533  H     0.98228   0.11320   0.86240   0.00000  Uiso   1.00
H1534  H     0.97276   0.06089   0.83500   0.00000  Uiso   1.00
H1535  H     0.61133   0.20771   0.91335   0.00000  Uiso   1.00
H1536  H     0.58439   0.15902   0.93868   0.00000  Uiso   1.00
H1537  H     0.64214   0.16401   0.93817   0.00000  Uiso   1.00
H1538  H     0.99981   0.16627   0.91721   0.00000  Uiso   1.00
H1539  H     0.88590   0.28597   0.75905   0.00000  Uiso   1.00
H1540  H     0.84730   0.32466   0.73764   0.00000  Uiso   1.00
H1541  H     0.90321   0.33448   0.72570   0.00000  Uiso   1.00
H1542  H     0.90824   0.34091   0.94147   0.00000  Uiso   1.00
H1543  H     0.85178   0.33114   0.93389   0.00000  Uiso   1.00
H1544  H     0.88873   0.29057   0.91299   0.00000  Uiso   1.00
H1545  H     0.59098   0.16729   0.72819   0.00000  Uiso   1.00
H1546  H     0.61539   0.21387   0.75864   0.00000  Uiso   1.00
H1547  H     0.64858   0.17276   0.73266   0.00000  Uiso   1.00
H1548  H     0.63579   0.46473   0.75920   0.00000  Uiso   1.00
H1549  H     0.51606   0.13869   0.96509   0.00000  Uiso   1.00
H1550  H     0.65211   0.41663   0.72546   0.00000  Uiso   1.00
H1551  H     0.59647   0.42688   0.73831   0.00000  Uiso   1.00
H1552  H     0.87048   0.00580   0.82207   0.00000  Uiso   1.00
H1553  H     0.91939   0.02292   0.79729   0.00000  Uiso   1.00
H1554  H     0.91505   0.01629   0.85765   0.00000  Uiso   1.00
H1555  H     0.76776   0.13916   0.86441   0.00000  Uiso   1.00
H1556  H     0.77724   0.18911   0.83167   0.00000  Uiso   1.00
H1557  H     0.76772   0.13680   0.80427   0.00000  Uiso   1.00
H1558  H     0.65700   0.40689   0.94206   0.00000  Uiso   1.00
H1559  H     0.63928   0.45806   0.91345   0.00000  Uiso   1.00
H1560  H     0.95972   0.15148   0.95747   0.00000  Uiso   1.00
H1561  H     0.60098   0.41818   0.93330   0.00000  Uiso   1.00
H1562  H     0.86410   0.46403   0.90761   0.00000  Uiso   1.00
H1563  H     0.84679   0.41551   0.94097   0.00000  Uiso   1.00
H1564  H     0.90270   0.42534   0.92903   0.00000  Uiso   1.00
H1565  H     0.63867   0.04229   0.75332   0.00000  Uiso   1.00
H1566  H     0.60786   0.08599   0.72850   0.00000  Uiso   1.00
H1567  H     0.66561   0.09098   0.72798   0.00000  Uiso   1.00
H1568  H     0.65902   0.08271   0.93848   0.00000  Uiso   1.00
H1569  H     0.60142   0.07724   0.93401   0.00000  Uiso   1.00
H1570  H     0.63460   0.03613   0.90803   0.00000  Uiso   1.00
H1571  H     0.50000   0.16627   0.75041   0.00000  Uiso   1.00
H1572  H     0.84176   0.40909   0.72520   0.00000  Uiso   1.00
H1573  H     0.86127   0.45943   0.75368   0.00000  Uiso   1.00
H1574  H     0.89822   0.41886   0.73278   0.00000  Uiso   1.00
H1575  H     0.96550   0.14697   0.70768   0.00000  Uiso   1.00
H1576  H     0.52348   0.14180   0.70393   0.00000  Uiso   1.00
N1577  N     0.50000   0.25000   0.95240   0.00000  Uiso   1.00
N1578  N     0.50000   0.25000   0.71427   0.00000  Uiso   1.00
N1579  N     0.75000  -0.00000   0.95240   0.00000  Uiso   1.00
N1580  N     0.75000   0.00000   0.71427   0.00000  Uiso   1.00
O1581  O     0.54580   0.20419   0.87154   0.00000  Uiso   1.00
O1582  O     0.70419   0.04581   0.79513   0.00000  Uiso   1.00
O1583  O     0.70419   0.04581   0.87154   0.00000  Uiso   1.00
O1584  O     0.79580   0.45419   0.79513   0.00000  Uiso   1.00
O1585  O     0.70419   0.45419   0.79513   0.00000  Uiso   1.00
O1586  O     0.79580   0.04581   0.87154   0.00000  Uiso   1.00
O1587  O     0.79580   0.04581   0.79513   0.00000  Uiso   1.00
O1588  O     0.70419   0.45419   0.87154   0.00000  Uiso   1.00
O1589  O     0.95419   0.29581   0.79513   0.00000  Uiso   1.00
O1590  O     0.95419   0.29581   0.87154   0.00000  Uiso   1.00
O1591  O     0.54580   0.20419   0.79513   0.00000  Uiso   1.00
O1592  O     0.95419   0.20419   0.79513   0.00000  Uiso   1.00
O1593  O     0.54580   0.29581   0.87154   0.00000  Uiso   1.00
O1594  O     0.54580   0.29581   0.79513   0.00000  Uiso   1.00
O1595  O     0.95419   0.20419   0.87154   0.00000  Uiso   1.00
O1596  O     0.79580   0.45419   0.87154   0.00000  Uiso   1.00
Zn1597 Zn    0.50000   0.25000   0.88437   0.00000  Uiso   1.00
Zn1598 Zn    0.50000   0.25000   0.78229   0.00000  Uiso   1.00
Zn1599 Zn    0.75000   0.00000   0.88437   0.00000  Uiso   1.00
Zn1600 Zn    0.75000   0.00000   0.78229   0.00000  Uiso   1.00
C1601  C     0.06328   0.69386   0.83341   0.00000  Uiso   1.00
C1602  C     0.49800   0.70969   0.97628   0.00000  Uiso   1.00
C1603  C     0.49855   0.70966   0.69074   0.00000  Uiso   1.00
C1604  C     0.00089   0.79043   0.97588   0.00000  Uiso   1.00
C1605  C     0.25200   0.54031   0.69038   0.00000  Uiso   1.00
C1606  C     0.24951   0.95957   0.97628   0.00000  Uiso   1.00
C1607  C     0.24910   0.95957   0.69079   0.00000  Uiso   1.00
C1608  C     0.25145   0.54034   0.97593   0.00000  Uiso   1.00
C1609  C     0.36350   0.67192   0.83560   0.00000  Uiso   1.00
C1610  C     0.11734   0.85141   0.87358   0.00000  Uiso   1.00
C1611  C     0.11525   0.85489   0.79208   0.00000  Uiso   1.00
C1612  C     0.43705   0.80670   0.83345   0.00000  Uiso   1.00
C1613  C     0.41887   0.61102   0.83271   0.00000  Uiso   1.00
C1614  C     0.11433   0.64491   0.87464   0.00000  Uiso   1.00
C1615  C     0.38297   0.85206   0.79297   0.00000  Uiso   1.00
C1616  C     0.38493   0.85449   0.87456   0.00000  Uiso   1.00
C1617  C     0.11692   0.64808   0.79282   0.00000  Uiso   1.00
C1618  C     0.13266   0.89859   0.79309   0.00000  Uiso   1.00
C1619  C     0.38650   0.57808   0.83106   0.00000  Uiso   1.00
C1620  C     0.33113   0.63898   0.83396   0.00000  Uiso   1.00
C1621  C     0.13475   0.89511   0.87458   0.00000  Uiso   1.00
C1622  C     0.36703   0.89794   0.87369   0.00000  Uiso   1.00
C1623  C     0.44002   0.69043   0.83353   0.00000  Uiso   1.00
C1624  C     0.13566   0.60508   0.79203   0.00000  Uiso   1.00
C1625  C     0.13308   0.60191   0.87385   0.00000  Uiso   1.00
C1626  C     0.36507   0.89551   0.79211   0.00000  Uiso   1.00
C1627  C     0.10187   0.83466   0.83268   0.00000  Uiso   1.00
C1628  C     0.40675   0.65729   0.83414   0.00000  Uiso   1.00
C1629  C     0.39865   0.83516   0.83385   0.00000  Uiso   1.00
C1630  C     0.10111   0.66471   0.83381   0.00000  Uiso   1.00
C1631  C     0.34325   0.59271   0.83252   0.00000  Uiso   1.00
C1632  C     0.14813   0.91534   0.83399   0.00000  Uiso   1.00
C1633  C     0.14889   0.58529   0.83286   0.00000  Uiso   1.00
C1634  C     0.06354   0.80589   0.83313   0.00000  Uiso   1.00
C1635  C     0.35135   0.91484   0.83282   0.00000  Uiso   1.00
C1636  C     0.49936   0.83619   0.71376   0.00000  Uiso   1.00
C1637  C     0.49297   0.66449   0.95266   0.00000  Uiso   1.00
C1638  C     0.49660   0.66410   0.71461   0.00000  Uiso   1.00
C1639  C     0.00192   0.83626   0.95208   0.00000  Uiso   1.00
C1640  C     0.25703   0.58551   0.71400   0.00000  Uiso   1.00
C1641  C     0.25064   0.91381   0.95290   0.00000  Uiso   1.00
C1642  C     0.24808   0.91374   0.71459   0.00000  Uiso   1.00
C1643  C     0.25340   0.58590   0.95206   0.00000  Uiso   1.00
C1644  C     0.35162   0.72195   0.83971   0.00000  Uiso   1.00
C1645  C     0.31295   0.94330   0.83322   0.00000  Uiso   1.00
C1646  C     0.12032   0.82163   0.91495   0.00000  Uiso   1.00
C1647  C     0.11643   0.82892   0.74850   0.00000  Uiso   1.00
C1648  C     0.46636   0.59798   0.83301   0.00000  Uiso   1.00
C1649  C     0.11245   0.67032   0.91862   0.00000  Uiso   1.00
C1650  C     0.38029   0.82264   0.75158   0.00000  Uiso   1.00
C1651  C     0.38399   0.82772   0.91803   0.00000  Uiso   1.00
C1652  C     0.11755   0.67707   0.75069   0.00000  Uiso   1.00
C1653  C     0.12968   0.92837   0.75172   0.00000  Uiso   1.00
C1654  C     0.39838   0.52805   0.82696   0.00000  Uiso   1.00
C1655  C     0.28364   0.65202   0.83365   0.00000  Uiso   1.00
C1656  C     0.18672   0.55614   0.83325   0.00000  Uiso   1.00
C1657  C     0.13357   0.92108   0.91817   0.00000  Uiso   1.00
C1658  C     0.36971   0.92736   0.91509   0.00000  Uiso   1.00
C1659  C     0.13755   0.57968   0.74805   0.00000  Uiso   1.00
C1660  C     0.13245   0.57293   0.91598   0.00000  Uiso   1.00
C1661  C     0.36601   0.92228   0.74864   0.00000  Uiso   1.00
C1662  C     0.18646   0.94411   0.83354   0.00000  Uiso   1.00
C1663  C     0.30998   0.55957   0.83314   0.00000  Uiso   1.00
C1664  C     0.00049   0.79043   0.69038   0.00000  Uiso   1.00
H1665  H     0.00061   0.83453   0.74993   0.00000  Uiso   1.00
H1666  H     0.49984   0.83476   0.91597   0.00000  Uiso   1.00
H1667  H     0.47464   0.85782   0.96293   0.00000  Uiso   1.00
H1668  H     0.03188   0.85478   0.96009   0.00000  Uiso   1.00
H1669  H     0.25019   0.58372   0.74945   0.00000  Uiso   1.00
H1670  H     0.29028   0.59852   0.70920   0.00000  Uiso   1.00
H1671  H     0.23394   0.61131   0.70157   0.00000  Uiso   1.00
H1672  H     0.24939   0.91547   0.91674   0.00000  Uiso   1.00
H1673  H     0.28050   0.89525   0.96145   0.00000  Uiso   1.00
H1674  H     0.22324   0.89226   0.96365   0.00000  Uiso   1.00
H1675  H     0.25016   0.91524   0.75069   0.00000  Uiso   1.00
H1676  H     0.02676   0.85774   0.70302   0.00000  Uiso   1.00
H1677  H     0.21812   0.89522   0.70657   0.00000  Uiso   1.00
H1678  H     0.27536   0.89218   0.70374   0.00000  Uiso   1.00
H1679  H     0.24999   0.58373   0.91625   0.00000  Uiso   1.00
H1680  H     0.22651   0.60820   0.96274   0.00000  Uiso   1.00
H1681  H     0.28450   0.60303   0.95899   0.00000  Uiso   1.00
H1682  H     0.37952   0.74420   0.84460   0.00000  Uiso   1.00
H1683  H     0.33495   0.73371   0.80902   0.00000  Uiso   1.00
H1684  H     0.33061   0.72708   0.86937   0.00000  Uiso   1.00
H1685  H     0.11421   0.78527   0.90747   0.00000  Uiso   1.00
H1686  H     0.15353   0.82312   0.92835   0.00000  Uiso   1.00
H1687  H     0.46950   0.85475   0.70521   0.00000  Uiso   1.00
H1688  H     0.09789   0.83337   0.94120   0.00000  Uiso   1.00
H1689  H     0.09300   0.84312   0.72460   0.00000  Uiso   1.00
H1690  H     0.14902   0.83182   0.73337   0.00000  Uiso   1.00
H1691  H     0.11072   0.79194   0.75321   0.00000  Uiso   1.00
H1692  H     0.48224   0.61084   0.80226   0.00000  Uiso   1.00
H1693  H     0.48228   0.61320   0.86240   0.00000  Uiso   1.00
H1694  H     0.47276   0.56089   0.83500   0.00000  Uiso   1.00
H1695  H     0.11133   0.70771   0.91335   0.00000  Uiso   1.00
H1696  H     0.08439   0.65902   0.93868   0.00000  Uiso   1.00
H1697  H     0.14214   0.66401   0.93817   0.00000  Uiso   1.00
H1698  H     0.49981   0.66627   0.91721   0.00000  Uiso   1.00
H1699  H     0.38590   0.78597   0.75905   0.00000  Uiso   1.00
H1700  H     0.34730   0.82466   0.73764   0.00000  Uiso   1.00
H1701  H     0.40321   0.83448   0.72570   0.00000  Uiso   1.00
H1702  H     0.40824   0.84091   0.94147   0.00000  Uiso   1.00
H1703  H     0.35178   0.83114   0.93389   0.00000  Uiso   1.00
H1704  H     0.38873   0.79057   0.91299   0.00000  Uiso   1.00
H1705  H     0.09098   0.66729   0.72819   0.00000  Uiso   1.00
H1706  H     0.11539   0.71387   0.75864   0.00000  Uiso   1.00
H1707  H     0.14858   0.67276   0.73266   0.00000  Uiso   1.00
H1708  H     0.13579   0.96473   0.75920   0.00000  Uiso   1.00
H1709  H     0.01606   0.63869   0.96509   0.00000  Uiso   1.00
H1710  H     0.15211   0.91663   0.72546   0.00000  Uiso   1.00
H1711  H     0.09647   0.92688   0.73831   0.00000  Uiso   1.00
H1712  H     0.37048   0.50580   0.82207   0.00000  Uiso   1.00
H1713  H     0.41939   0.52292   0.79729   0.00000  Uiso   1.00
H1714  H     0.41505   0.51629   0.85765   0.00000  Uiso   1.00
H1715  H     0.26776   0.63916   0.86441   0.00000  Uiso   1.00
H1716  H     0.27724   0.68911   0.83167   0.00000  Uiso   1.00
H1717  H     0.26772   0.63680   0.80427   0.00000  Uiso   1.00
H1718  H     0.15700   0.90689   0.94206   0.00000  Uiso   1.00
H1719  H     0.13928   0.95806   0.91345   0.00000  Uiso   1.00
H1720  H     0.45972   0.65148   0.95747   0.00000  Uiso   1.00
H1721  H     0.10098   0.91818   0.93330   0.00000  Uiso   1.00
H1722  H     0.36410   0.96403   0.90761   0.00000  Uiso   1.00
H1723  H     0.34679   0.91551   0.94097   0.00000  Uiso   1.00
H1724  H     0.40270   0.92534   0.92903   0.00000  Uiso   1.00
H1725  H     0.13867   0.54229   0.75332   0.00000  Uiso   1.00
H1726  H     0.10786   0.58599   0.72850   0.00000  Uiso   1.00
H1727  H     0.16561   0.59098   0.72798   0.00000  Uiso   1.00
H1728  H     0.15902   0.58271   0.93848   0.00000  Uiso   1.00
H1729  H     0.10142   0.57724   0.93401   0.00000  Uiso   1.00
H1730  H     0.13460   0.53613   0.90803   0.00000  Uiso   1.00
H1731  H     0.00000   0.66627   0.75041   0.00000  Uiso   1.00
H1732  H     0.34176   0.90909   0.72520   0.00000  Uiso   1.00
H1733  H     0.36127   0.95943   0.75368   0.00000  Uiso   1.00
H1734  H     0.39822   0.91886   0.73278   0.00000  Uiso   1.00
H1735  H     0.46550   0.64697   0.70768   0.00000  Uiso   1.00
H1736  H     0.02348   0.64180   0.70393   0.00000  Uiso   1.00
N1737  N     0.00000   0.75000   0.95240   0.00000  Uiso   1.00
N1738  N     0.00000   0.75000   0.71427   0.00000  Uiso   1.00
N1739  N     0.25000   0.50000   0.95240   0.00000  Uiso   1.00
N1740  N     0.25000   0.50000   0.71427   0.00000  Uiso   1.00
O1741  O     0.04580   0.70419   0.87154   0.00000  Uiso   1.00
O1742  O     0.20419   0.54581   0.79513   0.00000  Uiso   1.00
O1743  O     0.20419   0.54581   0.87154   0.00000  Uiso   1.00
O1744  O     0.29580   0.95419   0.79513   0.00000  Uiso   1.00
O1745  O     0.20419   0.95419   0.79513   0.00000  Uiso   1.00
O1746  O     0.29580   0.54581   0.87154   0.00000  Uiso   1.00
O1747  O     0.29580   0.54581   0.79513   0.00000  Uiso   1.00
O1748  O     0.20419   0.95419   0.87154   0.00000  Uiso   1.00
O1749  O     0.45419   0.79581   0.79513   0.00000  Uiso   1.00
O1750  O     0.45419   0.79581   0.87154   0.00000  Uiso   1.00
O1751  O     0.04580   0.70419   0.79513   0.00000  Uiso   1.00
O1752  O     0.45419   0.70419   0.79513   0.00000  Uiso   1.00
O1753  O     0.04580   0.79581   0.87154   0.00000  Uiso   1.00
O1754  O     0.04580   0.79581   0.79513   0.00000  Uiso   1.00
O1755  O     0.45419   0.70419   0.87154   0.00000  Uiso   1.00
O1756  O     0.29580   0.95419   0.87154   0.00000  Uiso   1.00
Zn1757 Zn    0.00000   0.75000   0.88437   0.00000  Uiso   1.00
Zn1758 Zn    0.00000   0.75000   0.78229   0.00000  Uiso   1.00
Zn1759 Zn    0.25000   0.50000   0.88437   0.00000  Uiso   1.00
Zn1760 Zn    0.25000   0.50000   0.78229   0.00000  Uiso   1.00
C1761  C     0.56328   0.69386   0.83341   0.00000  Uiso   1.00
C1762  C     0.99800   0.70969   0.97628   0.00000  Uiso   1.00
C1763  C     0.99855   0.70966   0.69074   0.00000  Uiso   1.00
C1764  C     0.50089   0.79043   0.97588   0.00000  Uiso   1.00
C1765  C     0.75200   0.54031   0.69038   0.00000  Uiso   1.00
C1766  C     0.74951   0.95957   0.97628   0.00000  Uiso   1.00
C1767  C     0.74910   0.95957   0.69079   0.00000  Uiso   1.00
C1768  C     0.75145   0.54034   0.97593   0.00000  Uiso   1.00
C1769  C     0.86350   0.67192   0.83560   0.00000  Uiso   1.00
C1770  C     0.61734   0.85141   0.87358   0.00000  Uiso   1.00
C1771  C     0.61525   0.85489   0.79208   0.00000  Uiso   1.00
C1772  C     0.93705   0.80670   0.83345   0.00000  Uiso   1.00
C1773  C     0.91887   0.61102   0.83271   0.00000  Uiso   1.00
C1774  C     0.61433   0.64491   0.87464   0.00000  Uiso   1.00
C1775  C     0.88297   0.85206   0.79297   0.00000  Uiso   1.00
C1776  C     0.88493   0.85449   0.87456   0.00000  Uiso   1.00
C1777  C     0.61692   0.64808   0.79282   0.00000  Uiso   1.00
C1778  C     0.63266   0.89859   0.79309   0.00000  Uiso   1.00
C1779  C     0.88650   0.57808   0.83106   0.00000  Uiso   1.00
C1780  C     0.83113   0.63898   0.83396   0.00000  Uiso   1.00
C1781  C     0.63475   0.89511   0.87458   0.00000  Uiso   1.00
C1782  C     0.86703   0.89794   0.87369   0.00000  Uiso   1.00
C1783  C     0.94002   0.69043   0.83353   0.00000  Uiso   1.00
C1784  C     0.63566   0.60508   0.79203   0.00000  Uiso   1.00
C1785  C     0.63308   0.60191   0.87385   0.00000  Uiso   1.00
C1786  C     0.86507   0.89551   0.79211   0.00000  Uiso   1.00
C1787  C     0.60187   0.83466   0.83268   0.00000  Uiso   1.00
C1788  C     0.90675   0.65729   0.83414   0.00000  Uiso   1.00
C1789  C     0.89865   0.83516   0.83385   0.00000  Uiso   1.00
C1790  C     0.60111   0.66471   0.83381   0.00000  Uiso   1.00
C1791  C     0.84325   0.59271   0.83252   0.00000  Uiso   1.00
C1792  C     0.64813   0.91534   0.83399   0.00000  Uiso   1.00
C1793  C     0.64889   0.58529   0.83286   0.00000  Uiso   1.00
C1794  C     0.56354   0.80589   0.83313   0.00000  Uiso   1.00
C1795  C     0.85135   0.91484   0.83282   0.00000  Uiso   1.00
C1796  C     0.99936   0.83619   0.71376   0.00000  Uiso   1.00
C1797  C     0.99297   0.66449   0.95266   0.00000  Uiso   1.00
C1798  C     0.99660   0.66410   0.71461   0.00000  Uiso   1.00
C1799  C     0.50192   0.83626   0.95208   0.00000  Uiso   1.00
C1800  C     0.75703   0.58551   0.71400   0.00000  Uiso   1.00
C1801  C     0.75064   0.91381   0.95290   0.00000  Uiso   1.00
C1802  C     0.74808   0.91374   0.71459   0.00000  Uiso   1.00
C1803  C     0.75340   0.58590   0.95206   0.00000  Uiso   1.00
C1804  C     0.85162   0.72195   0.83971   0.00000  Uiso   1.00
C1805  C     0.81295   0.94330   0.83322   0.00000  Uiso   1.00
C1806  C     0.62032   0.82163   0.91495   0.00000  Uiso   1.00
C1807  C     0.61643   0.82892   0.74850   0.00000  Uiso   1.00
C1808  C     0.96636   0.59798   0.83301   0.00000  Uiso   1.00
C1809  C     0.61245   0.67032   0.91862   0.00000  Uiso   1.00
C1810  C     0.88029   0.82264   0.75158   0.00000  Uiso   1.00
C1811  C     0.88399   0.82772   0.91803   0.00000  Uiso   1.00
C1812  C     0.61755   0.67707   0.75069   0.00000  Uiso   1.00
C1813  C     0.62968   0.92837   0.75172   0.00000  Uiso   1.00
C1814  C     0.89838   0.52805   0.82696   0.00000  Uiso   1.00
C1815  C     0.78364   0.65202   0.83365   0.00000  Uiso   1.00
C1816  C     0.68672   0.55614   0.83325   0.00000  Uiso   1.00
C1817  C     0.63357   0.92108   0.91817   0.00000  Uiso   1.00
C1818  C     0.86971   0.92736   0.91509   0.00000  Uiso   1.00
C1819  C     0.63755   0.57968   0.74805   0.00000  Uiso   1.00
C1820  C     0.63245   0.57293   0.91598   0.00000  Uiso   1.00
C1821  C     0.86601   0.92228   0.74864   0.00000  Uiso   1.00
C1822  C     0.68646   0.94411   0.83354   0.00000  Uiso   1.00
C1823  C     0.80998   0.55957   0.83314   0.00000  Uiso   1.00
C1824  C     0.50049   0.79043   0.69038   0.00000  Uiso   1.00
H1825  H     0.50061   0.83453   0.74993   0.00000  Uiso   1.00
H1826  H     0.99984   0.83476   0.91597   0.00000  Uiso   1.00
H1827  H     0.97464   0.85782   0.96293   0.00000  Uiso   1.00
H1828  H     0.53188   0.85478   0.96009   0.00000  Uiso   1.00
H1829  H     0.75019   0.58372   0.74945   0.00000  Uiso   1.00
H1830  H     0.79028   0.59852   0.70920   0.00000  Uiso   1.00
H1831  H     0.73394   0.61131   0.70157   0.00000  Uiso   1.00
H1832  H     0.74939   0.91547   0.91674   0.00000  Uiso   1.00
H1833  H     0.78050   0.89525   0.96145   0.00000  Uiso   1.00
H1834  H     0.72324   0.89226   0.96365   0.00000  Uiso   1.00
H1835  H     0.75016   0.91524   0.75069   0.00000  Uiso   1.00
H1836  H     0.52676   0.85774   0.70302   0.00000  Uiso   1.00
H1837  H     0.71812   0.89522   0.70657   0.00000  Uiso   1.00
H1838  H     0.77536   0.89218   0.70374   0.00000  Uiso   1.00
H1839  H     0.74999   0.58373   0.91625   0.00000  Uiso   1.00
H1840  H     0.72651   0.60820   0.96274   0.00000  Uiso   1.00
H1841  H     0.78450   0.60303   0.95899   0.00000  Uiso   1.00
H1842  H     0.87952   0.74420   0.84460   0.00000  Uiso   1.00
H1843  H     0.83495   0.73371   0.80902   0.00000  Uiso   1.00
H1844  H     0.83061   0.72708   0.86937   0.00000  Uiso   1.00
H1845  H     0.61421   0.78527   0.90747   0.00000  Uiso   1.00
H1846  H     0.65353   0.82312   0.92835   0.00000  Uiso   1.00
H1847  H     0.96950   0.85475   0.70521   0.00000  Uiso   1.00
H1848  H     0.59789   0.83337   0.94120   0.00000  Uiso   1.00
H1849  H     0.59300   0.84312   0.72460   0.00000  Uiso   1.00
H1850  H     0.64902   0.83182   0.73337   0.00000  Uiso   1.00
H1851  H     0.61072   0.79194   0.75321   0.00000  Uiso   1.00
H1852  H     0.98224   0.61084   0.80226   0.00000  Uiso   1.00
H1853  H     0.98228   0.61320   0.86240   0.00000  Uiso   1.00
H1854  H     0.97276   0.56089   0.83500   0.00000  Uiso   1.00
H1855  H     0.61133   0.70771   0.91335   0.00000  Uiso   1.00
H1856  H     0.58439   0.65902   0.93868   0.00000  Uiso   1.00
H1857  H     0.64214   0.66401   0.93817   0.00000  Uiso   1.00
H1858  H     0.99981   0.66627   0.91721   0.00000  Uiso   1.00
H1859  H     0.88590   0.78597   0.75905   0.00000  Uiso   1.00
H1860  H     0.84730   0.82466   0.73764   0.00000  Uiso   1.00
H1861  H     0.90321   0.83448   0.72570   0.00000  Uiso   1.00
H1862  H     0.90824   0.84091   0.94147   0.00000  Uiso   1.00
H1863  H     0.85178   0.83114   0.93389   0.00000  Uiso   1.00
H1864  H     0.88873   0.79057   0.91299   0.00000  Uiso   1.00
H1865  H     0.59098   0.66729   0.72819   0.00000  Uiso   1.00
H1866  H     0.61539   0.71387   0.75864   0.00000  Uiso   1.00
H1867  H     0.64858   0.67276   0.73266   0.00000  Uiso   1.00
H1868  H     0.63579   0.96473   0.75920   0.00000  Uiso   1.00
H1869  H     0.51606   0.63869   0.96509   0.00000  Uiso   1.00
H1870  H     0.65211   0.91663   0.72546   0.00000  Uiso   1.00
H1871  H     0.59647   0.92688   0.73831   0.00000  Uiso   1.00
H1872  H     0.87048   0.50580   0.82207   0.00000  Uiso   1.00
H1873  H     0.91939   0.52292   0.79729   0.00000  Uiso   1.00
H1874  H     0.91505   0.51629   0.85765   0.00000  Uiso   1.00
H1875  H     0.76776   0.63916   0.86441   0.00000  Uiso   1.00
H1876  H     0.77724   0.68911   0.83167   0.00000  Uiso   1.00
H1877  H     0.76772   0.63680   0.80427   0.00000  Uiso   1.00
H1878  H     0.65700   0.90689   0.94206   0.00000  Uiso   1.00
H1879  H     0.63928   0.95806   0.91345   0.00000  Uiso   1.00
H1880  H     0.95972   0.65148   0.95747   0.00000  Uiso   1.00
H1881  H     0.60098   0.91818   0.93330   0.00000  Uiso   1.00
H1882  H     0.86410   0.96403   0.90761   0.00000  Uiso   1.00
H1883  H     0.84679   0.91551   0.94097   0.00000  Uiso   1.00
H1884  H     0.90270   0.92534   0.92903   0.00000  Uiso   1.00
H1885  H     0.63867   0.54229   0.75332   0.00000  Uiso   1.00
H1886  H     0.60786   0.58599   0.72850   0.00000  Uiso   1.00
H1887  H     0.66561   0.59098   0.72798   0.00000  Uiso   1.00
H1888  H     0.65902   0.58271   0.93848   0.00000  Uiso   1.00
H1889  H     0.60142   0.57724   0.93401   0.00000  Uiso   1.00
H1890  H     0.63460   0.53613   0.90803   0.00000  Uiso   1.00
H1891  H     0.50000   0.66627   0.75041   0.00000  Uiso   1.00
H1892  H     0.84176   0.90909   0.72520   0.00000  Uiso   1.00
H1893  H     0.86127   0.95943   0.75368   0.00000  Uiso   1.00
H1894  H     0.89822   0.91886   0.73278   0.00000  Uiso   1.00
H1895  H     0.96550   0.64697   0.70768   0.00000  Uiso   1.00
H1896  H     0.52348   0.64180   0.70393   0.00000  Uiso   1.00
N1897  N     0.50000   0.75000   0.95240   0.00000  Uiso   1.00
N1898  N     0.50000   0.75000   0.71427   0.00000  Uiso   1.00
N1899  N     0.75000   0.50000   0.95240   0.00000  Uiso   1.00
N1900  N     0.75000   0.50000   0.71427   0.00000  Uiso   1.00
O1901  O     0.54580   0.70419   0.87154   0.00000  Uiso   1.00
O1902  O     0.70419   0.54581   0.79513   0.00000  Uiso   1.00
O1903  O     0.70419   0.54581   0.87154   0.00000  Uiso   1.00
O1904  O     0.79580   0.95419   0.79513   0.00000  Uiso   1.00
O1905  O     0.70419   0.95419   0.79513   0.00000  Uiso   1.00
O1906  O     0.79580   0.54581   0.87154   0.00000  Uiso   1.00
O1907  O     0.79580   0.54581   0.79513   0.00000  Uiso   1.00
O1908  O     0.70419   0.95419   0.87154   0.00000  Uiso   1.00
O1909  O     0.95419   0.79581   0.79513   0.00000  Uiso   1.00
O1910  O     0.95419   0.79581   0.87154   0.00000  Uiso   1.00
O1911  O     0.54580   0.70419   0.79513   0.00000  Uiso   1.00
O1912  O     0.95419   0.70419   0.79513   0.00000  Uiso   1.00
O1913  O     0.54580   0.79581   0.87154   0.00000  Uiso   1.00
O1914  O     0.54580   0.79581   0.79513   0.00000  Uiso   1.00
O1915  O     0.95419   0.70419   0.87154   0.00000  Uiso   1.00
O1916  O     0.79580   0.95419   0.87154   0.00000  Uiso   1.00
Zn1917 Zn    0.50000   0.75000   0.88437   0.00000  Uiso   1.00
Zn1918 Zn    0.50000   0.75000   0.78229   0.00000  Uiso   1.00
Zn1919 Zn    0.75000   0.50000   0.88437   0.00000  Uiso   1.00
Zn1920 Zn    0.75000   0.50000   0.78229   0.00000  Uiso   1.00
loop_
_geom_bond_atom_site_label_1
_geom_bond_atom_site_label_2
_geom_bond_distance
_geom_bond_site_symmetry_2
_ccdc_geom_bond_type
C1     C30     1.453   .     S
C1     O151    1.305   .     A
C1     O141    1.299   .     A
C2     C37     1.512   .     S
C2     C643    1.431   .     S
C2     N297    1.378   .     S
C3     C38     1.511   .     S
C3     C1282   1.431   1_554 S
C3     N298    1.379   .     S
C4     N137    1.380   .     A
C4     C39     1.516   .     S
C4     C704    1.432   .     S
C5     C40     1.512   .     S
C5     C1288   1.431   1_554 S
C5     N140    1.378   .     S
C6     C41     1.515   .     S
C6     C647    1.432   .     S
C6     N459    1.379   .     S
C7     N460    1.380   .     A
C7     C42     1.516   .     S
C7     C1286   1.432   1_554 S
C8     N139    1.379   .     A
C8     C43     1.511   .     S
C8     C645    1.431   .     S
C9     C20     1.395   .     A
C9     C44     1.516   .     S
C9     C28     1.412   .     A
C10    C27     1.408   .     A
C10    C21     1.390   .     A
C10    C46     1.514   .     S
C11    C18     1.390   .     A
C11    C47     1.514   .     S
C11    C27     1.410   .     A
C12    C29     1.456   .     S
C12    O150    1.299   .     A
C12    O149    1.304   .     A
C13    C28     1.407   .     A
C13    C19     1.395   .     A
C13    C48     1.525   .     S
C14    C49     1.516   .     S
C14    C30     1.413   .     A
C14    C25     1.388   .     A
C15    C50     1.516   .     S
C15    C29     1.407   .     A
C15    C26     1.389   .     A
C16    C51     1.515   .     S
C16    C22     1.389   .     A
C16    C29     1.410   .     A
C17    C30     1.408   .     A
C17    C52     1.516   .     S
C17    C24     1.388   .     A
C18    C53     1.514   .     S
C18    C32     1.408   .     A
C19    C31     1.412   .     A
C19    C54     1.516   .     S
C20    C55     1.525   .     S
C20    C31     1.407   .     A
C21    C32     1.410   .     A
C21    C57     1.514   .     S
C22    C35     1.407   .     A
C22    C58     1.516   .     S
C23    O152    1.291   .     A
C23    O155    1.289   .     A
C23    C28     1.418   .     S
C24    C33     1.413   .     A
C24    C59     1.516   .     S
C25    C60     1.516   .     S
C25    C33     1.408   .     A
C26    C61     1.515   .     S
C26    C35     1.410   .     A
C27    C34     1.459   .     S
C31    C63     1.418   .     S
C32    C62     1.459   .     S
C33    C56     1.453   .     S
C34    O154    1.302   .     A
C34    O153    1.305   .     A
C35    C45     1.456   .     S
C36    H87     1.106   .     S
C36    C224    1.515   .     S
C36    H225    1.084   .     S
C36    H236    1.105   .     S
C37    H98     1.082   .     S
C37    H120    1.110   .     S
C37    H269    1.106   .     S
C38    H135    1.110   .     S
C38    H291    1.080   .     S
C38    H296    1.107   .     S
C39    H68     1.106   .     S
C39    H226    1.084   1_455 S
C39    H227    1.106   1_455 S
C40    H71     1.106   .     S
C40    H69     1.082   .     S
C40    H70     1.110   .     S
C41    H73     1.106   .     S
C41    H74     1.105   .     S
C41    H72     1.084   .     S
C42    H78     1.106   .     S
C42    H75     1.084   .     S
C42    H77     1.106   .     S
C43    H79     1.080   .     S
C43    H80     1.108   .     S
C43    H81     1.110   .     S
C44    H83     1.110   .     S
C44    H82     1.096   .     S
C44    H84     1.110   .     S
C45    O144    1.299   .     A
C45    O156    1.304   .     A
C46    H85     1.105   .     S
C46    H88     1.104   .     S
C46    H86     1.111   .     S
C47    H89     1.103   .     S
C47    H91     1.105   .     S
C47    H90     1.111   .     S
C48    H94     1.105   .     S
C48    H93     1.107   .     S
C48    H92     1.107   .     S
C49    H97     1.111   .     S
C49    H95     1.106   .     S
C49    H96     1.106   .     S
C50    H99     1.109   .     S
C50    H101    1.104   .     S
C50    H100    1.111   .     S
C51    H102    1.104   .     S
C51    H104    1.109   .     S
C51    H103    1.111   .     S
C52    H107    1.111   .     S
C52    H105    1.107   .     S
C52    H106    1.107   .     S
C53    H110    1.104   .     S
C53    H111    1.111   .     S
C53    H108    1.105   .     S
C54    H113    1.110   .     S
C54    H112    1.096   .     S
C54    H114    1.110   .     S
C55    H116    1.105   .     S
C55    H117    1.107   .     S
C55    H115    1.107   .     S
C56    O143    1.305   .     A
C56    O142    1.299   .     A
C57    H119    1.105   .     S
C57    H121    1.111   .     S
C57    H118    1.103   .     S
C58    H122    1.109   .     S
C58    H123    1.104   .     S
C58    H124    1.111   .     S
C59    H126    1.111   .     S
C59    H127    1.106   .     S
C59    H125    1.106   .     S
C60    H128    1.107   .     S
C60    H130    1.107   .     S
C60    H129    1.111   .     S
C61    H133    1.109   .     S
C61    H132    1.104   .     S
C61    H134    1.111   .     S
C62    O148    1.302   .     A
C62    O145    1.305   .     A
C63    O146    1.291   .     A
C63    O147    1.289   .     A
C64    N138    1.379   .     A
C64    C196    1.515   1_455 S
C64    C1284   1.432   1_554 S
H65    C196    1.084   1_455 S
H66    C199    1.084   .     S
H67    C199    1.106   .     S
H76    C196    1.105   1_455 S
H109   C197    1.106   1_455 S
H131   C198    1.080   1_455 S
H136   C198    1.107   1_455 S
N137   Zn157   2.036   .     S
N137   C162    1.378   1_455 S
N138   Zn158   2.036   .     S
N138   C163    1.379   1_455 S
N139   C326    1.379   1_545 S
N139   Zn159   2.036   .     S
N140   C327    1.380   1_545 A
N140   Zn160   2.036   .     S
O141   Zn157   1.994   .     S
O142   Zn160   1.994   .     S
O143   Zn159   1.994   .     S
O144   Zn480   1.994   .     S
O145   Zn480   1.991   .     S
O146   Zn159   1.991   .     S
O147   Zn160   1.996   .     S
O148   Zn479   1.996   .     S
O149   Zn318   1.994   .     S
O150   Zn317   1.994   .     S
O151   Zn158   1.994   .     S
O152   Zn318   1.991   .     S
O153   Zn157   1.991   .     S
O154   Zn158   1.996   .     S
O155   Zn317   1.996   .     S
O156   Zn479   1.994   .     S
Zn157  O315    1.996   1_455 S
Zn157  O310    1.994   1_455 S
Zn158  O312    1.991   1_455 S
Zn158  O309    1.994   1_455 S
Zn159  O468    1.996   1_545 S
Zn159  O476    1.994   1_545 S
Zn160  O464    1.994   1_545 S
Zn160  O465    1.991   1_545 S
C161   C190    1.453   .     S
C161   O311    1.305   .     A
C161   O301    1.299   .     A
C162   C197    1.512   .     S
C162   C803    1.431   .     S
C162   N137    1.378   1_655 S
C163   C198    1.511   .     S
C163   C1442   1.431   1_554 S
C163   N138    1.379   1_655 S
C164   N297    1.380   .     A
C164   C199    1.516   .     S
C164   C864    1.432   .     S
C165   C200    1.512   .     S
C165   C1448   1.431   1_554 S
C165   N300    1.378   .     S
C166   C201    1.515   .     S
C166   C807    1.432   .     S
C166   N619    1.379   .     S
C167   N620    1.380   .     A
C167   C202    1.516   .     S
C167   C1446   1.432   1_554 S
C168   N299    1.379   .     A
C168   C203    1.511   .     S
C168   C805    1.431   .     S
C169   C180    1.395   .     A
C169   C204    1.516   .     S
C169   C188    1.412   .     A
C170   C187    1.408   .     A
C170   C181    1.390   .     A
C170   C206    1.514   .     S
C171   C178    1.390   .     A
C171   C207    1.514   .     S
C171   C187    1.410   .     A
C172   C189    1.456   .     S
C172   O310    1.299   .     A
C172   O309    1.304   .     A
C173   C188    1.407   .     A
C173   C179    1.395   .     A
C173   C208    1.525   .     S
C174   C209    1.516   .     S
C174   C190    1.413   .     A
C174   C185    1.388   .     A
C175   C210    1.516   .     S
C175   C189    1.407   .     A
C175   C186    1.389   .     A
C176   C211    1.515   .     S
C176   C182    1.389   .     A
C176   C189    1.410   .     A
C177   C190    1.408   .     A
C177   C212    1.516   .     S
C177   C184    1.388   .     A
C178   C213    1.514   .     S
C178   C192    1.408   .     A
C179   C191    1.412   .     A
C179   C214    1.516   .     S
C180   C215    1.525   .     S
C180   C191    1.407   .     A
C181   C192    1.410   .     A
C181   C217    1.514   .     S
C182   C195    1.407   .     A
C182   C218    1.516   .     S
C183   O312    1.291   .     A
C183   O315    1.289   .     A
C183   C188    1.418   .     S
C184   C193    1.413   .     A
C184   C219    1.516   .     S
C185   C220    1.516   .     S
C185   C193    1.408   .     A
C186   C221    1.515   .     S
C186   C195    1.410   .     A
C187   C194    1.459   .     S
C191   C223    1.418   .     S
C192   C222    1.459   .     S
C193   C216    1.453   .     S
C194   O314    1.302   .     A
C194   O313    1.305   .     A
C195   C205    1.456   .     S
C196   H247    1.106   .     S
C196   C64     1.515   1_655 S
C196   H65     1.084   1_655 S
C196   H76     1.105   1_655 S
C197   H258    1.082   .     S
C197   H280    1.110   .     S
C197   H109    1.106   1_655 S
C198   H295    1.110   .     S
C198   H131    1.080   1_655 S
C198   H136    1.107   1_655 S
C199   H228    1.106   .     S
C200   H231    1.106   .     S
C200   H229    1.082   .     S
C200   H230    1.110   .     S
C201   H233    1.106   .     S
C201   H234    1.105   .     S
C201   H232    1.084   .     S
C202   H238    1.106   .     S
C202   H235    1.084   .     S
C202   H237    1.106   .     S
C203   H239    1.080   .     S
C203   H240    1.108   .     S
C203   H241    1.110   .     S
C204   H243    1.110   .     S
C204   H242    1.096   .     S
C204   H244    1.110   .     S
C205   O304    1.299   .     A
C205   O316    1.304   .     A
C206   H245    1.105   .     S
C206   H248    1.104   .     S
C206   H246    1.111   .     S
C207   H249    1.103   .     S
C207   H251    1.105   .     S
C207   H250    1.111   .     S
C208   H254    1.105   .     S
C208   H253    1.107   .     S
C208   H252    1.107   .     S
C209   H257    1.111   .     S
C209   H255    1.106   .     S
C209   H256    1.106   .     S
C210   H259    1.109   .     S
C210   H261    1.104   .     S
C210   H260    1.111   .     S
C211   H262    1.104   .     S
C211   H264    1.109   .     S
C211   H263    1.111   .     S
C212   H267    1.111   .     S
C212   H265    1.107   .     S
C212   H266    1.107   .     S
C213   H270    1.104   .     S
C213   H271    1.111   .     S
C213   H268    1.105   .     S
C214   H273    1.110   .     S
C214   H272    1.096   .     S
C214   H274    1.110   .     S
C215   H276    1.105   .     S
C215   H277    1.107   .     S
C215   H275    1.107   .     S
C216   O303    1.305   .     A
C216   O302    1.299   .     A
C217   H279    1.105   .     S
C217   H281    1.111   .     S
C217   H278    1.103   .     S
C218   H282    1.109   .     S
C218   H283    1.104   .     S
C218   H284    1.111   .     S
C219   H286    1.111   .     S
C219   H287    1.106   .     S
C219   H285    1.106   .     S
C220   H288    1.107   .     S
C220   H290    1.107   .     S
C220   H289    1.111   .     S
C221   H293    1.109   .     S
C221   H292    1.104   .     S
C221   H294    1.111   .     S
C222   O308    1.302   .     A
C222   O305    1.305   .     A
C223   O306    1.291   .     A
C223   O307    1.289   .     A
C224   N298    1.379   .     A
C224   C1444   1.432   1_554 S
H226   C39     1.084   1_655 S
H227   C39     1.106   1_655 S
N297   Zn317   2.036   .     S
N298   Zn318   2.036   .     S
N299   C486    1.379   1_545 S
N299   Zn319   2.036   .     S
N300   C487    1.380   1_545 A
N300   Zn320   2.036   .     S
O301   Zn317   1.994   .     S
O302   Zn320   1.994   .     S
O303   Zn319   1.994   .     S
O304   Zn640   1.994   .     S
O305   Zn640   1.991   .     S
O306   Zn319   1.991   .     S
O307   Zn320   1.996   .     S
O308   Zn639   1.996   .     S
O309   Zn158   1.994   1_655 S
O310   Zn157   1.994   1_655 S
O311   Zn318   1.994   .     S
O312   Zn158   1.991   1_655 S
O313   Zn317   1.991   .     S
O314   Zn318   1.996   .     S
O315   Zn157   1.996   1_655 S
O316   Zn639   1.994   .     S
Zn319  O628    1.996   1_545 S
Zn319  O636    1.994   1_545 S
Zn320  O624    1.994   1_545 S
Zn320  O625    1.991   1_545 S
C321   C350    1.453   .     S
C321   O471    1.305   .     A
C321   O461    1.299   .     A
C322   C357    1.512   .     S
C322   C963    1.431   .     S
C322   N617    1.378   .     S
C323   C358    1.511   .     S
C323   C1602   1.431   1_554 S
C323   N618    1.379   .     S
C324   N457    1.380   .     A
C324   C359    1.516   .     S
C324   C1024   1.432   .     S
C325   C360    1.512   .     S
C325   C1608   1.431   1_554 S
C325   N460    1.378   .     S
C326   C361    1.515   .     S
C326   C967    1.432   .     S
C326   N139    1.379   1_565 S
C327   N140    1.380   1_565 A
C327   C362    1.516   .     S
C327   C1606   1.432   1_554 S
C328   N459    1.379   .     A
C328   C363    1.511   .     S
C328   C965    1.431   .     S
C329   C340    1.395   .     A
C329   C364    1.516   .     S
C329   C348    1.412   .     A
C330   C347    1.408   .     A
C330   C341    1.390   .     A
C330   C366    1.514   .     S
C331   C338    1.390   .     A
C331   C367    1.514   .     S
C331   C347    1.410   .     A
C332   C349    1.456   .     S
C332   O470    1.299   .     A
C332   O469    1.304   .     A
C333   C348    1.407   .     A
C333   C339    1.395   .     A
C333   C368    1.525   .     S
C334   C369    1.516   .     S
C334   C350    1.413   .     A
C334   C345    1.388   .     A
C335   C370    1.516   .     S
C335   C349    1.407   .     A
C335   C346    1.389   .     A
C336   C371    1.515   .     S
C336   C342    1.389   .     A
C336   C349    1.410   .     A
C337   C350    1.408   .     A
C337   C372    1.516   .     S
C337   C344    1.388   .     A
C338   C373    1.514   .     S
C338   C352    1.408   .     A
C339   C351    1.412   .     A
C339   C374    1.516   .     S
C340   C375    1.525   .     S
C340   C351    1.407   .     A
C341   C352    1.410   .     A
C341   C377    1.514   .     S
C342   C355    1.407   .     A
C342   C378    1.516   .     S
C343   O472    1.291   .     A
C343   O475    1.289   .     A
C343   C348    1.418   .     S
C344   C353    1.413   .     A
C344   C379    1.516   .     S
C345   C380    1.516   .     S
C345   C353    1.408   .     A
C346   C381    1.515   .     S
C346   C355    1.410   .     A
C347   C354    1.459   .     S
C351   C383    1.418   .     S
C352   C382    1.459   .     S
C353   C376    1.453   .     S
C354   O474    1.302   .     A
C354   O473    1.305   .     A
C355   C365    1.456   .     S
C356   H407    1.106   .     S
C356   C544    1.515   .     S
C356   H545    1.084   .     S
C356   H556    1.105   .     S
C357   H418    1.082   .     S
C357   H440    1.110   .     S
C357   H589    1.106   .     S
C358   H455    1.110   .     S
C358   H611    1.080   .     S
C358   H616    1.107   .     S
C359   H388    1.106   .     S
C359   H546    1.084   1_455 S
C359   H547    1.106   1_455 S
C360   H391    1.106   .     S
C360   H389    1.082   .     S
C360   H390    1.110   .     S
C361   H393    1.106   .     S
C361   H394    1.105   .     S
C361   H392    1.084   .     S
C362   H398    1.106   .     S
C362   H395    1.084   .     S
C362   H397    1.106   .     S
C363   H399    1.080   .     S
C363   H400    1.108   .     S
C363   H401    1.110   .     S
C364   H403    1.110   .     S
C364   H402    1.096   .     S
C364   H404    1.110   .     S
C365   O464    1.299   .     A
C365   O476    1.304   .     A
C366   H405    1.105   .     S
C366   H408    1.104   .     S
C366   H406    1.111   .     S
C367   H409    1.103   .     S
C367   H411    1.105   .     S
C367   H410    1.111   .     S
C368   H414    1.105   .     S
C368   H413    1.107   .     S
C368   H412    1.107   .     S
C369   H417    1.111   .     S
C369   H415    1.106   .     S
C369   H416    1.106   .     S
C370   H419    1.109   .     S
C370   H421    1.104   .     S
C370   H420    1.111   .     S
C371   H422    1.104   .     S
C371   H424    1.109   .     S
C371   H423    1.111   .     S
C372   H427    1.111   .     S
C372   H425    1.107   .     S
C372   H426    1.107   .     S
C373   H430    1.104   .     S
C373   H431    1.111   .     S
C373   H428    1.105   .     S
C374   H433    1.110   .     S
C374   H432    1.096   .     S
C374   H434    1.110   .     S
C375   H436    1.105   .     S
C375   H437    1.107   .     S
C375   H435    1.107   .     S
C376   O463    1.305   .     A
C376   O462    1.299   .     A
C377   H439    1.105   .     S
C377   H441    1.111   .     S
C377   H438    1.103   .     S
C378   H442    1.109   .     S
C378   H443    1.104   .     S
C378   H444    1.111   .     S
C379   H446    1.111   .     S
C379   H447    1.106   .     S
C379   H445    1.106   .     S
C380   H448    1.107   .     S
C380   H450    1.107   .     S
C380   H449    1.111   .     S
C381   H453    1.109   .     S
C381   H452    1.104   .     S
C381   H454    1.111   .     S
C382   O468    1.302   .     A
C382   O465    1.305   .     A
C383   O466    1.291   .     A
C383   O467    1.289   .     A
C384   N458    1.379   .     A
C384   C516    1.515   1_455 S
C384   C1604   1.432   1_554 S
H385   C516    1.084   1_455 S
H386   C519    1.084   .     S
H387   C519    1.106   .     S
H396   C516    1.105   1_455 S
H429   C517    1.106   1_455 S
H451   C518    1.080   1_455 S
H456   C518    1.107   1_455 S
N457   Zn477   2.036   .     S
N457   C482    1.378   1_455 S
N458   Zn478   2.036   .     S
N458   C483    1.379   1_455 S
N459   Zn479   2.036   .     S
N460   Zn480   2.036   .     S
O461   Zn477   1.994   .     S
O462   Zn480   1.994   .     S
O463   Zn479   1.994   .     S
O464   Zn160   1.994   1_565 S
O465   Zn160   1.991   1_565 S
O466   Zn479   1.991   .     S
O467   Zn480   1.996   .     S
O468   Zn159   1.996   1_565 S
O469   Zn638   1.994   .     S
O470   Zn637   1.994   .     S
O471   Zn478   1.994   .     S
O472   Zn638   1.991   .     S
O473   Zn477   1.991   .     S
O474   Zn478   1.996   .     S
O475   Zn637   1.996   .     S
O476   Zn159   1.994   1_565 S
Zn477  O635    1.996   1_455 S
Zn477  O630    1.994   1_455 S
Zn478  O632    1.991   1_455 S
Zn478  O629    1.994   1_455 S
C481   C510    1.453   .     S
C481   O631    1.305   .     A
C481   O621    1.299   .     A
C482   C517    1.512   .     S
C482   C1123   1.431   .     S
C482   N457    1.378   1_655 S
C483   C518    1.511   .     S
C483   C1762   1.431   1_554 S
C483   N458    1.379   1_655 S
C484   N617    1.380   .     A
C484   C519    1.516   .     S
C484   C1184   1.432   .     S
C485   C520    1.512   .     S
C485   C1768   1.431   1_554 S
C485   N620    1.378   .     S
C486   C521    1.515   .     S
C486   C1127   1.432   .     S
C486   N299    1.379   1_565 S
C487   N300    1.380   1_565 A
C487   C522    1.516   .     S
C487   C1766   1.432   1_554 S
C488   N619    1.379   .     A
C488   C523    1.511   .     S
C488   C1125   1.431   .     S
C489   C500    1.395   .     A
C489   C524    1.516   .     S
C489   C508    1.412   .     A
C490   C507    1.408   .     A
C490   C501    1.390   .     A
C490   C526    1.514   .     S
C491   C498    1.390   .     A
C491   C527    1.514   .     S
C491   C507    1.410   .     A
C492   C509    1.456   .     S
C492   O630    1.299   .     A
C492   O629    1.304   .     A
C493   C508    1.407   .     A
C493   C499    1.395   .     A
C493   C528    1.525   .     S
C494   C529    1.516   .     S
C494   C510    1.413   .     A
C494   C505    1.388   .     A
C495   C530    1.516   .     S
C495   C509    1.407   .     A
C495   C506    1.389   .     A
C496   C531    1.515   .     S
C496   C502    1.389   .     A
C496   C509    1.410   .     A
C497   C510    1.408   .     A
C497   C532    1.516   .     S
C497   C504    1.388   .     A
C498   C533    1.514   .     S
C498   C512    1.408   .     A
C499   C511    1.412   .     A
C499   C534    1.516   .     S
C500   C535    1.525   .     S
C500   C511    1.407   .     A
C501   C512    1.410   .     A
C501   C537    1.514   .     S
C502   C515    1.407   .     A
C502   C538    1.516   .     S
C503   O632    1.291   .     A
C503   O635    1.289   .     A
C503   C508    1.418   .     S
C504   C513    1.413   .     A
C504   C539    1.516   .     S
C505   C540    1.516   .     S
C505   C513    1.408   .     A
C506   C541    1.515   .     S
C506   C515    1.410   .     A
C507   C514    1.459   .     S
C511   C543    1.418   .     S
C512   C542    1.459   .     S
C513   C536    1.453   .     S
C514   O634    1.302   .     A
C514   O633    1.305   .     A
C515   C525    1.456   .     S
C516   H567    1.106   .     S
C516   C384    1.515   1_655 S
C516   H385    1.084   1_655 S
C516   H396    1.105   1_655 S
C517   H578    1.082   .     S
C517   H600    1.110   .     S
C517   H429    1.106   1_655 S
C518   H615    1.110   .     S
C518   H451    1.080   1_655 S
C518   H456    1.107   1_655 S
C519   H548    1.106   .     S
C520   H551    1.106   .     S
C520   H549    1.082   .     S
C520   H550    1.110   .     S
C521   H553    1.106   .     S
C521   H554    1.105   .     S
C521   H552    1.084   .     S
C522   H558    1.106   .     S
C522   H555    1.084   .     S
C522   H557    1.106   .     S
C523   H559    1.080   .     S
C523   H560    1.108   .     S
C523   H561    1.110   .     S
C524   H563    1.110   .     S
C524   H562    1.096   .     S
C524   H564    1.110   .     S
C525   O624    1.299   .     A
C525   O636    1.304   .     A
C526   H565    1.105   .     S
C526   H568    1.104   .     S
C526   H566    1.111   .     S
C527   H569    1.103   .     S
C527   H571    1.105   .     S
C527   H570    1.111   .     S
C528   H574    1.105   .     S
C528   H573    1.107   .     S
C528   H572    1.107   .     S
C529   H577    1.111   .     S
C529   H575    1.106   .     S
C529   H576    1.106   .     S
C530   H579    1.109   .     S
C530   H581    1.104   .     S
C530   H580    1.111   .     S
C531   H582    1.104   .     S
C531   H584    1.109   .     S
C531   H583    1.111   .     S
C532   H587    1.111   .     S
C532   H585    1.107   .     S
C532   H586    1.107   .     S
C533   H590    1.104   .     S
C533   H591    1.111   .     S
C533   H588    1.105   .     S
C534   H593    1.110   .     S
C534   H592    1.096   .     S
C534   H594    1.110   .     S
C535   H596    1.105   .     S
C535   H597    1.107   .     S
C535   H595    1.107   .     S
C536   O623    1.305   .     A
C536   O622    1.299   .     A
C537   H599    1.105   .     S
C537   H601    1.111   .     S
C537   H598    1.103   .     S
C538   H602    1.109   .     S
C538   H603    1.104   .     S
C538   H604    1.111   .     S
C539   H606    1.111   .     S
C539   H607    1.106   .     S
C539   H605    1.106   .     S
C540   H608    1.107   .     S
C540   H610    1.107   .     S
C540   H609    1.111   .     S
C541   H613    1.109   .     S
C541   H612    1.104   .     S
C541   H614    1.111   .     S
C542   O628    1.302   .     A
C542   O625    1.305   .     A
C543   O626    1.291   .     A
C543   O627    1.289   .     A
C544   N618    1.379   .     A
C544   C1764   1.432   1_554 S
H546   C359    1.084   1_655 S
H547   C359    1.106   1_655 S
N617   Zn637   2.036   .     S
N618   Zn638   2.036   .     S
N619   Zn639   2.036   .     S
N620   Zn640   2.036   .     S
O621   Zn637   1.994   .     S
O622   Zn640   1.994   .     S
O623   Zn639   1.994   .     S
O624   Zn320   1.994   1_565 S
O625   Zn320   1.991   1_565 S
O626   Zn639   1.991   .     S
O627   Zn640   1.996   .     S
O628   Zn319   1.996   1_565 S
O629   Zn478   1.994   1_655 S
O630   Zn477   1.994   1_655 S
O631   Zn638   1.994   .     S
O632   Zn478   1.991   1_655 S
O633   Zn637   1.991   .     S
O634   Zn638   1.996   .     S
O635   Zn477   1.996   1_655 S
O636   Zn319   1.994   1_565 S
C641   C670    1.453   .     S
C641   O791    1.305   .     A
C641   O781    1.299   .     A
C642   C677    1.512   .     S
C642   C1283   1.431   .     S
C642   N937    1.378   .     S
C643   C678    1.511   .     S
C643   N938    1.379   .     S
C644   N777    1.380   .     A
C644   C679    1.516   .     S
C644   C1344   1.432   .     S
C645   C680    1.512   .     S
C645   N780    1.378   .     S
C646   C681    1.515   .     S
C646   C1287   1.432   .     S
C646   N1099   1.379   .     S
C647   N1100   1.380   .     A
C647   C682    1.516   .     S
C648   N779    1.379   .     A
C648   C683    1.511   .     S
C648   C1285   1.431   .     S
C649   C660    1.395   .     A
C649   C684    1.516   .     S
C649   C668    1.412   .     A
C650   C667    1.408   .     A
C650   C661    1.390   .     A
C650   C686    1.514   .     S
C651   C658    1.390   .     A
C651   C687    1.514   .     S
C651   C667    1.410   .     A
C652   C669    1.456   .     S
C652   O790    1.299   .     A
C652   O789    1.304   .     A
C653   C668    1.407   .     A
C653   C659    1.395   .     A
C653   C688    1.525   .     S
C654   C689    1.516   .     S
C654   C670    1.413   .     A
C654   C665    1.388   .     A
C655   C690    1.516   .     S
C655   C669    1.407   .     A
C655   C666    1.389   .     A
C656   C691    1.515   .     S
C656   C662    1.389   .     A
C656   C669    1.410   .     A
C657   C670    1.408   .     A
C657   C692    1.516   .     S
C657   C664    1.388   .     A
C658   C693    1.514   .     S
C658   C672    1.408   .     A
C659   C671    1.412   .     A
C659   C694    1.516   .     S
C660   C695    1.525   .     S
C660   C671    1.407   .     A
C661   C672    1.410   .     A
C661   C697    1.514   .     S
C662   C675    1.407   .     A
C662   C698    1.516   .     S
C663   O792    1.291   .     A
C663   O795    1.289   .     A
C663   C668    1.418   .     S
C664   C673    1.413   .     A
C664   C699    1.516   .     S
C665   C700    1.516   .     S
C665   C673    1.408   .     A
C666   C701    1.515   .     S
C666   C675    1.410   .     A
C667   C674    1.459   .     S
C671   C703    1.418   .     S
C672   C702    1.459   .     S
C673   C696    1.453   .     S
C674   O794    1.302   .     A
C674   O793    1.305   .     A
C675   C685    1.456   .     S
C676   H727    1.106   .     S
C676   C864    1.515   .     S
C676   H865    1.084   .     S
C676   H876    1.105   .     S
C677   H738    1.082   .     S
C677   H760    1.110   .     S
C677   H909    1.106   .     S
C678   H775    1.110   .     S
C678   H931    1.080   .     S
C678   H936    1.107   .     S
C679   H708    1.106   .     S
C679   H866    1.084   1_455 S
C679   H867    1.106   1_455 S
C680   H711    1.106   .     S
C680   H709    1.082   .     S
C680   H710    1.110   .     S
C681   H713    1.106   .     S
C681   H714    1.105   .     S
C681   H712    1.084   .     S
C682   H718    1.106   .     S
C682   H715    1.084   .     S
C682   H717    1.106   .     S
C683   H719    1.080   .     S
C683   H720    1.108   .     S
C683   H721    1.110   .     S
C684   H723    1.110   .     S
C684   H722    1.096   .     S
C684   H724    1.110   .     S
C685   O784    1.299   .     A
C685   O796    1.304   .     A
C686   H725    1.105   .     S
C686   H728    1.104   .     S
C686   H726    1.111   .     S
C687   H729    1.103   .     S
C687   H731    1.105   .     S
C687   H730    1.111   .     S
C688   H734    1.105   .     S
C688   H733    1.107   .     S
C688   H732    1.107   .     S
C689   H737    1.111   .     S
C689   H735    1.106   .     S
C689   H736    1.106   .     S
C690   H739    1.109   .     S
C690   H741    1.104   .     S
C690   H740    1.111   .     S
C691   H742    1.104   .     S
C691   H744    1.109   .     S
C691   H743    1.111   .     S
C692   H747    1.111   .     S
C692   H745    1.107   .     S
C692   H746    1.107   .     S
C693   H750    1.104   .     S
C693   H751    1.111   .     S
C693   H748    1.105   .     S
C694   H753    1.110   .     S
C694   H752    1.096   .     S
C694   H754    1.110   .     S
C695   H756    1.105   .     S
C695   H757    1.107   .     S
C695   H755    1.107   .     S
C696   O783    1.305   .     A
C696   O782    1.299   .     A
C697   H759    1.105   .     S
C697   H761    1.111   .     S
C697   H758    1.103   .     S
C698   H762    1.109   .     S
C698   H763    1.104   .     S
C698   H764    1.111   .     S
C699   H766    1.111   .     S
C699   H767    1.106   .     S
C699   H765    1.106   .     S
C700   H768    1.107   .     S
C700   H770    1.107   .     S
C700   H769    1.111   .     S
C701   H773    1.109   .     S
C701   H772    1.104   .     S
C701   H774    1.111   .     S
C702   O788    1.302   .     A
C702   O785    1.305   .     A
C703   O786    1.291   .     A
C703   O787    1.289   .     A
C704   N778    1.379   .     A
C704   C836    1.515   1_455 S
H705   C836    1.084   1_455 S
H706   C839    1.084   .     S
H707   C839    1.106   .     S
H716   C836    1.105   1_455 S
H749   C837    1.106   1_455 S
H771   C838    1.080   1_455 S
H776   C838    1.107   1_455 S
N777   Zn797   2.036   .     S
N777   C802    1.378   1_455 S
N778   Zn798   2.036   .     S
N778   C803    1.379   1_455 S
N779   C966    1.379   1_545 S
N779   Zn799   2.036   .     S
N780   C967    1.380   1_545 A
N780   Zn800   2.036   .     S
O781   Zn797   1.994   .     S
O782   Zn800   1.994   .     S
O783   Zn799   1.994   .     S
O784   Zn1120  1.994   .     S
O785   Zn1120  1.991   .     S
O786   Zn799   1.991   .     S
O787   Zn800   1.996   .     S
O788   Zn1119  1.996   .     S
O789   Zn958   1.994   .     S
O790   Zn957   1.994   .     S
O791   Zn798   1.994   .     S
O792   Zn958   1.991   .     S
O793   Zn797   1.991   .     S
O794   Zn798   1.996   .     S
O795   Zn957   1.996   .     S
O796   Zn1119  1.994   .     S
Zn797  O955    1.996   1_455 S
Zn797  O950    1.994   1_455 S
Zn798  O952    1.991   1_455 S
Zn798  O949    1.994   1_455 S
Zn799  O1108   1.996   1_545 S
Zn799  O1116   1.994   1_545 S
Zn800  O1104   1.994   1_545 S
Zn800  O1105   1.991   1_545 S
C801   C830    1.453   .     S
C801   O951    1.305   .     A
C801   O941    1.299   .     A
C802   C837    1.512   .     S
C802   C1443   1.431   .     S
C802   N777    1.378   1_655 S
C803   C838    1.511   .     S
C803   N778    1.379   1_655 S
C804   N937    1.380   .     A
C804   C839    1.516   .     S
C804   C1504   1.432   .     S
C805   C840    1.512   .     S
C805   N940    1.378   .     S
C806   C841    1.515   .     S
C806   C1447   1.432   .     S
C806   N1259   1.379   .     S
C807   N1260   1.380   .     A
C807   C842    1.516   .     S
C808   N939    1.379   .     A
C808   C843    1.511   .     S
C808   C1445   1.431   .     S
C809   C820    1.395   .     A
C809   C844    1.516   .     S
C809   C828    1.412   .     A
C810   C827    1.408   .     A
C810   C821    1.390   .     A
C810   C846    1.514   .     S
C811   C818    1.390   .     A
C811   C847    1.514   .     S
C811   C827    1.410   .     A
C812   C829    1.456   .     S
C812   O950    1.299   .     A
C812   O949    1.304   .     A
C813   C828    1.407   .     A
C813   C819    1.395   .     A
C813   C848    1.525   .     S
C814   C849    1.516   .     S
C814   C830    1.413   .     A
C814   C825    1.388   .     A
C815   C850    1.516   .     S
C815   C829    1.407   .     A
C815   C826    1.389   .     A
C816   C851    1.515   .     S
C816   C822    1.389   .     A
C816   C829    1.410   .     A
C817   C830    1.408   .     A
C817   C852    1.516   .     S
C817   C824    1.388   .     A
C818   C853    1.514   .     S
C818   C832    1.408   .     A
C819   C831    1.412   .     A
C819   C854    1.516   .     S
C820   C855    1.525   .     S
C820   C831    1.407   .     A
C821   C832    1.410   .     A
C821   C857    1.514   .     S
C822   C835    1.407   .     A
C822   C858    1.516   .     S
C823   O952    1.291   .     A
C823   O955    1.289   .     A
C823   C828    1.418   .     S
C824   C833    1.413   .     A
C824   C859    1.516   .     S
C825   C860    1.516   .     S
C825   C833    1.408   .     A
C826   C861    1.515   .     S
C826   C835    1.410   .     A
C827   C834    1.459   .     S
C831   C863    1.418   .     S
C832   C862    1.459   .     S
C833   C856    1.453   .     S
C834   O954    1.302   .     A
C834   O953    1.305   .     A
C835   C845    1.456   .     S
C836   H887    1.106   .     S
C836   C704    1.515   1_655 S
C836   H705    1.084   1_655 S
C836   H716    1.105   1_655 S
C837   H898    1.082   .     S
C837   H920    1.110   .     S
C837   H749    1.106   1_655 S
C838   H935    1.110   .     S
C838   H771    1.080   1_655 S
C838   H776    1.107   1_655 S
C839   H868    1.106   .     S
C840   H871    1.106   .     S
C840   H869    1.082   .     S
C840   H870    1.110   .     S
C841   H873    1.106   .     S
C841   H874    1.105   .     S
C841   H872    1.084   .     S
C842   H878    1.106   .     S
C842   H875    1.084   .     S
C842   H877    1.106   .     S
C843   H879    1.080   .     S
C843   H880    1.108   .     S
C843   H881    1.110   .     S
C844   H883    1.110   .     S
C844   H882    1.096   .     S
C844   H884    1.110   .     S
C845   O944    1.299   .     A
C845   O956    1.304   .     A
C846   H885    1.105   .     S
C846   H888    1.104   .     S
C846   H886    1.111   .     S
C847   H889    1.103   .     S
C847   H891    1.105   .     S
C847   H890    1.111   .     S
C848   H894    1.105   .     S
C848   H893    1.107   .     S
C848   H892    1.107   .     S
C849   H897    1.111   .     S
C849   H895    1.106   .     S
C849   H896    1.106   .     S
C850   H899    1.109   .     S
C850   H901    1.104   .     S
C850   H900    1.111   .     S
C851   H902    1.104   .     S
C851   H904    1.109   .     S
C851   H903    1.111   .     S
C852   H907    1.111   .     S
C852   H905    1.107   .     S
C852   H906    1.107   .     S
C853   H910    1.104   .     S
C853   H911    1.111   .     S
C853   H908    1.105   .     S
C854   H913    1.110   .     S
C854   H912    1.096   .     S
C854   H914    1.110   .     S
C855   H916    1.105   .     S
C855   H917    1.107   .     S
C855   H915    1.107   .     S
C856   O943    1.305   .     A
C856   O942    1.299   .     A
C857   H919    1.105   .     S
C857   H921    1.111   .     S
C857   H918    1.103   .     S
C858   H922    1.109   .     S
C858   H923    1.104   .     S
C858   H924    1.111   .     S
C859   H926    1.111   .     S
C859   H927    1.106   .     S
C859   H925    1.106   .     S
C860   H928    1.107   .     S
C860   H930    1.107   .     S
C860   H929    1.111   .     S
C861   H933    1.109   .     S
C861   H932    1.104   .     S
C861   H934    1.111   .     S
C862   O948    1.302   .     A
C862   O945    1.305   .     A
C863   O946    1.291   .     A
C863   O947    1.289   .     A
C864   N938    1.379   .     A
H866   C679    1.084   1_655 S
H867   C679    1.106   1_655 S
N937   Zn957   2.036   .     S
N938   Zn958   2.036   .     S
N939   C1126   1.379   1_545 S
N939   Zn959   2.036   .     S
N940   C1127   1.380   1_545 A
N940   Zn960   2.036   .     S
O941   Zn957   1.994   .     S
O942   Zn960   1.994   .     S
O943   Zn959   1.994   .     S
O944   Zn1280  1.994   .     S
O945   Zn1280  1.991   .     S
O946   Zn959   1.991   .     S
O947   Zn960   1.996   .     S
O948   Zn1279  1.996   .     S
O949   Zn798   1.994   1_655 S
O950   Zn797   1.994   1_655 S
O951   Zn958   1.994   .     S
O952   Zn798   1.991   1_655 S
O953   Zn957   1.991   .     S
O954   Zn958   1.996   .     S
O955   Zn797   1.996   1_655 S
O956   Zn1279  1.994   .     S
Zn959  O1268   1.996   1_545 S
Zn959  O1276   1.994   1_545 S
Zn960  O1264   1.994   1_545 S
Zn960  O1265   1.991   1_545 S
C961   C990    1.453   .     S
C961   O1111   1.305   .     A
C961   O1101   1.299   .     A
C962   C997    1.512   .     S
C962   C1603   1.431   .     S
C962   N1257   1.378   .     S
C963   C998    1.511   .     S
C963   N1258   1.379   .     S
C964   N1097   1.380   .     A
C964   C999    1.516   .     S
C964   C1664   1.432   .     S
C965   C1000   1.512   .     S
C965   N1100   1.378   .     S
C966   C1001   1.515   .     S
C966   C1607   1.432   .     S
C966   N779    1.379   1_565 S
C967   N780    1.380   1_565 A
C967   C1002   1.516   .     S
C968   N1099   1.379   .     A
C968   C1003   1.511   .     S
C968   C1605   1.431   .     S
C969   C980    1.395   .     A
C969   C1004   1.516   .     S
C969   C988    1.412   .     A
C970   C987    1.408   .     A
C970   C981    1.390   .     A
C970   C1006   1.514   .     S
C971   C978    1.390   .     A
C971   C1007   1.514   .     S
C971   C987    1.410   .     A
C972   C989    1.456   .     S
C972   O1110   1.299   .     A
C972   O1109   1.304   .     A
C973   C988    1.407   .     A
C973   C979    1.395   .     A
C973   C1008   1.525   .     S
C974   C1009   1.516   .     S
C974   C990    1.413   .     A
C974   C985    1.388   .     A
C975   C1010   1.516   .     S
C975   C989    1.407   .     A
C975   C986    1.389   .     A
C976   C1011   1.515   .     S
C976   C982    1.389   .     A
C976   C989    1.410   .     A
C977   C990    1.408   .     A
C977   C1012   1.516   .     S
C977   C984    1.388   .     A
C978   C1013   1.514   .     S
C978   C992    1.408   .     A
C979   C991    1.412   .     A
C979   C1014   1.516   .     S
C980   C1015   1.525   .     S
C980   C991    1.407   .     A
C981   C992    1.410   .     A
C981   C1017   1.514   .     S
C982   C995    1.407   .     A
C982   C1018   1.516   .     S
C983   O1112   1.291   .     A
C983   O1115   1.289   .     A
C983   C988    1.418   .     S
C984   C993    1.413   .     A
C984   C1019   1.516   .     S
C985   C1020   1.516   .     S
C985   C993    1.408   .     A
C986   C1021   1.515   .     S
C986   C995    1.410   .     A
C987   C994    1.459   .     S
C991   C1023   1.418   .     S
C992   C1022   1.459   .     S
C993   C1016   1.453   .     S
C994   O1114   1.302   .     A
C994   O1113   1.305   .     A
C995   C1005   1.456   .     S
C996   H1047   1.106   .     S
C996   C1184   1.515   .     S
C996   H1185   1.084   .     S
C996   H1196   1.105   .     S
C997   H1058   1.082   .     S
C997   H1080   1.110   .     S
C997   H1229   1.106   .     S
C998   H1095   1.110   .     S
C998   H1251   1.080   .     S
C998   H1256   1.107   .     S
C999   H1028   1.106   .     S
C999   H1186   1.084   1_455 S
C999   H1187   1.106   1_455 S
C1000  H1031   1.106   .     S
C1000  H1029   1.082   .     S
C1000  H1030   1.110   .     S
C1001  H1033   1.106   .     S
C1001  H1034   1.105   .     S
C1001  H1032   1.084   .     S
C1002  H1038   1.106   .     S
C1002  H1035   1.084   .     S
C1002  H1037   1.106   .     S
C1003  H1039   1.080   .     S
C1003  H1040   1.108   .     S
C1003  H1041   1.110   .     S
C1004  H1043   1.110   .     S
C1004  H1042   1.096   .     S
C1004  H1044   1.110   .     S
C1005  O1104   1.299   .     A
C1005  O1116   1.304   .     A
C1006  H1045   1.105   .     S
C1006  H1048   1.104   .     S
C1006  H1046   1.111   .     S
C1007  H1049   1.103   .     S
C1007  H1051   1.105   .     S
C1007  H1050   1.111   .     S
C1008  H1054   1.105   .     S
C1008  H1053   1.107   .     S
C1008  H1052   1.107   .     S
C1009  H1057   1.111   .     S
C1009  H1055   1.106   .     S
C1009  H1056   1.106   .     S
C1010  H1059   1.109   .     S
C1010  H1061   1.104   .     S
C1010  H1060   1.111   .     S
C1011  H1062   1.104   .     S
C1011  H1064   1.109   .     S
C1011  H1063   1.111   .     S
C1012  H1067   1.111   .     S
C1012  H1065   1.107   .     S
C1012  H1066   1.107   .     S
C1013  H1070   1.104   .     S
C1013  H1071   1.111   .     S
C1013  H1068   1.105   .     S
C1014  H1073   1.110   .     S
C1014  H1072   1.096   .     S
C1014  H1074   1.110   .     S
C1015  H1076   1.105   .     S
C1015  H1077   1.107   .     S
C1015  H1075   1.107   .     S
C1016  O1103   1.305   .     A
C1016  O1102   1.299   .     A
C1017  H1079   1.105   .     S
C1017  H1081   1.111   .     S
C1017  H1078   1.103   .     S
C1018  H1082   1.109   .     S
C1018  H1083   1.104   .     S
C1018  H1084   1.111   .     S
C1019  H1086   1.111   .     S
C1019  H1087   1.106   .     S
C1019  H1085   1.106   .     S
C1020  H1088   1.107   .     S
C1020  H1090   1.107   .     S
C1020  H1089   1.111   .     S
C1021  H1093   1.109   .     S
C1021  H1092   1.104   .     S
C1021  H1094   1.111   .     S
C1022  O1108   1.302   .     A
C1022  O1105   1.305   .     A
C1023  O1106   1.291   .     A
C1023  O1107   1.289   .     A
C1024  N1098   1.379   .     A
C1024  C1156   1.515   1_455 S
H1025  C1156   1.084   1_455 S
H1026  C1159   1.084   .     S
H1027  C1159   1.106   .     S
H1036  C1156   1.105   1_455 S
H1069  C1157   1.106   1_455 S
H1091  C1158   1.080   1_455 S
H1096  C1158   1.107   1_455 S
N1097  Zn1117  2.036   .     S
N1097  C1122   1.378   1_455 S
N1098  Zn1118  2.036   .     S
N1098  C1123   1.379   1_455 S
N1099  Zn1119  2.036   .     S
N1100  Zn1120  2.036   .     S
O1101  Zn1117  1.994   .     S
O1102  Zn1120  1.994   .     S
O1103  Zn1119  1.994   .     S
O1104  Zn800   1.994   1_565 S
O1105  Zn800   1.991   1_565 S
O1106  Zn1119  1.991   .     S
O1107  Zn1120  1.996   .     S
O1108  Zn799   1.996   1_565 S
O1109  Zn1278  1.994   .     S
O1110  Zn1277  1.994   .     S
O1111  Zn1118  1.994   .     S
O1112  Zn1278  1.991   .     S
O1113  Zn1117  1.991   .     S
O1114  Zn1118  1.996   .     S
O1115  Zn1277  1.996   .     S
O1116  Zn799   1.994   1_565 S
Zn1117 O1275   1.996   1_455 S
Zn1117 O1270   1.994   1_455 S
Zn1118 O1272   1.991   1_455 S
Zn1118 O1269   1.994   1_455 S
C1121  C1150   1.453   .     S
C1121  O1271   1.305   .     A
C1121  O1261   1.299   .     A
C1122  C1157   1.512   .     S
C1122  C1763   1.431   .     S
C1122  N1097   1.378   1_655 S
C1123  C1158   1.511   .     S
C1123  N1098   1.379   1_655 S
C1124  N1257   1.380   .     A
C1124  C1159   1.516   .     S
C1124  C1824   1.432   .     S
C1125  C1160   1.512   .     S
C1125  N1260   1.378   .     S
C1126  C1161   1.515   .     S
C1126  C1767   1.432   .     S
C1126  N939    1.379   1_565 S
C1127  N940    1.380   1_565 A
C1127  C1162   1.516   .     S
C1128  N1259   1.379   .     A
C1128  C1163   1.511   .     S
C1128  C1765   1.431   .     S
C1129  C1140   1.395   .     A
C1129  C1164   1.516   .     S
C1129  C1148   1.412   .     A
C1130  C1147   1.408   .     A
C1130  C1141   1.390   .     A
C1130  C1166   1.514   .     S
C1131  C1138   1.390   .     A
C1131  C1167   1.514   .     S
C1131  C1147   1.410   .     A
C1132  C1149   1.456   .     S
C1132  O1270   1.299   .     A
C1132  O1269   1.304   .     A
C1133  C1148   1.407   .     A
C1133  C1139   1.395   .     A
C1133  C1168   1.525   .     S
C1134  C1169   1.516   .     S
C1134  C1150   1.413   .     A
C1134  C1145   1.388   .     A
C1135  C1170   1.516   .     S
C1135  C1149   1.407   .     A
C1135  C1146   1.389   .     A
C1136  C1171   1.515   .     S
C1136  C1142   1.389   .     A
C1136  C1149   1.410   .     A
C1137  C1150   1.408   .     A
C1137  C1172   1.516   .     S
C1137  C1144   1.388   .     A
C1138  C1173   1.514   .     S
C1138  C1152   1.408   .     A
C1139  C1151   1.412   .     A
C1139  C1174   1.516   .     S
C1140  C1175   1.525   .     S
C1140  C1151   1.407   .     A
C1141  C1152   1.410   .     A
C1141  C1177   1.514   .     S
C1142  C1155   1.407   .     A
C1142  C1178   1.516   .     S
C1143  O1272   1.291   .     A
C1143  O1275   1.289   .     A
C1143  C1148   1.418   .     S
C1144  C1153   1.413   .     A
C1144  C1179   1.516   .     S
C1145  C1180   1.516   .     S
C1145  C1153   1.408   .     A
C1146  C1181   1.515   .     S
C1146  C1155   1.410   .     A
C1147  C1154   1.459   .     S
C1151  C1183   1.418   .     S
C1152  C1182   1.459   .     S
C1153  C1176   1.453   .     S
C1154  O1274   1.302   .     A
C1154  O1273   1.305   .     A
C1155  C1165   1.456   .     S
C1156  H1207   1.106   .     S
C1156  C1024   1.515   1_655 S
C1156  H1025   1.084   1_655 S
C1156  H1036   1.105   1_655 S
C1157  H1218   1.082   .     S
C1157  H1240   1.110   .     S
C1157  H1069   1.106   1_655 S
C1158  H1255   1.110   .     S
C1158  H1091   1.080   1_655 S
C1158  H1096   1.107   1_655 S
C1159  H1188   1.106   .     S
C1160  H1191   1.106   .     S
C1160  H1189   1.082   .     S
C1160  H1190   1.110   .     S
C1161  H1193   1.106   .     S
C1161  H1194   1.105   .     S
C1161  H1192   1.084   .     S
C1162  H1198   1.106   .     S
C1162  H1195   1.084   .     S
C1162  H1197   1.106   .     S
C1163  H1199   1.080   .     S
C1163  H1200   1.108   .     S
C1163  H1201   1.110   .     S
C1164  H1203   1.110   .     S
C1164  H1202   1.096   .     S
C1164  H1204   1.110   .     S
C1165  O1264   1.299   .     A
C1165  O1276   1.304   .     A
C1166  H1205   1.105   .     S
C1166  H1208   1.104   .     S
C1166  H1206   1.111   .     S
C1167  H1209   1.103   .     S
C1167  H1211   1.105   .     S
C1167  H1210   1.111   .     S
C1168  H1214   1.105   .     S
C1168  H1213   1.107   .     S
C1168  H1212   1.107   .     S
C1169  H1217   1.111   .     S
C1169  H1215   1.106   .     S
C1169  H1216   1.106   .     S
C1170  H1219   1.109   .     S
C1170  H1221   1.104   .     S
C1170  H1220   1.111   .     S
C1171  H1222   1.104   .     S
C1171  H1224   1.109   .     S
C1171  H1223   1.111   .     S
C1172  H1227   1.111   .     S
C1172  H1225   1.107   .     S
C1172  H1226   1.107   .     S
C1173  H1230   1.104   .     S
C1173  H1231   1.111   .     S
C1173  H1228   1.105   .     S
C1174  H1233   1.110   .     S
C1174  H1232   1.096   .     S
C1174  H1234   1.110   .     S
C1175  H1236   1.105   .     S
C1175  H1237   1.107   .     S
C1175  H1235   1.107   .     S
C1176  O1263   1.305   .     A
C1176  O1262   1.299   .     A
C1177  H1239   1.105   .     S
C1177  H1241   1.111   .     S
C1177  H1238   1.103   .     S
C1178  H1242   1.109   .     S
C1178  H1243   1.104   .     S
C1178  H1244   1.111   .     S
C1179  H1246   1.111   .     S
C1179  H1247   1.106   .     S
C1179  H1245   1.106   .     S
C1180  H1248   1.107   .     S
C1180  H1250   1.107   .     S
C1180  H1249   1.111   .     S
C1181  H1253   1.109   .     S
C1181  H1252   1.104   .     S
C1181  H1254   1.111   .     S
C1182  O1268   1.302   .     A
C1182  O1265   1.305   .     A
C1183  O1266   1.291   .     A
C1183  O1267   1.289   .     A
C1184  N1258   1.379   .     A
H1186  C999    1.084   1_655 S
H1187  C999    1.106   1_655 S
N1257  Zn1277  2.036   .     S
N1258  Zn1278  2.036   .     S
N1259  Zn1279  2.036   .     S
N1260  Zn1280  2.036   .     S
O1261  Zn1277  1.994   .     S
O1262  Zn1280  1.994   .     S
O1263  Zn1279  1.994   .     S
O1264  Zn960   1.994   1_565 S
O1265  Zn960   1.991   1_565 S
O1266  Zn1279  1.991   .     S
O1267  Zn1280  1.996   .     S
O1268  Zn959   1.996   1_565 S
O1269  Zn1118  1.994   1_655 S
O1270  Zn1117  1.994   1_655 S
O1271  Zn1278  1.994   .     S
O1272  Zn1118  1.991   1_655 S
O1273  Zn1277  1.991   .     S
O1274  Zn1278  1.996   .     S
O1275  Zn1117  1.996   1_655 S
O1276  Zn959   1.994   1_565 S
C1281  C1310   1.453   .     S
C1281  O1431   1.305   .     A
C1281  O1421   1.299   .     A
C1282  C1317   1.512   .     S
C1282  C3      1.431   1_556 S
C1282  N1577   1.378   .     S
C1283  C1318   1.511   .     S
C1283  N1578   1.379   .     S
C1284  N1417   1.380   .     A
C1284  C1319   1.516   .     S
C1284  C64     1.432   1_556 S
C1285  C1320   1.512   .     S
C1285  N1420   1.378   .     S
C1286  C1321   1.515   .     S
C1286  C7      1.432   1_556 S
C1286  N1739   1.379   .     S
C1287  N1740   1.380   .     A
C1287  C1322   1.516   .     S
C1288  N1419   1.379   .     A
C1288  C1323   1.511   .     S
C1288  C5      1.431   1_556 S
C1289  C1300   1.395   .     A
C1289  C1324   1.516   .     S
C1289  C1308   1.412   .     A
C1290  C1307   1.408   .     A
C1290  C1301   1.390   .     A
C1290  C1326   1.514   .     S
C1291  C1298   1.390   .     A
C1291  C1327   1.514   .     S
C1291  C1307   1.410   .     A
C1292  C1309   1.456   .     S
C1292  O1430   1.299   .     A
C1292  O1429   1.304   .     A
C1293  C1308   1.407   .     A
C1293  C1299   1.395   .     A
C1293  C1328   1.525   .     S
C1294  C1329   1.516   .     S
C1294  C1310   1.413   .     A
C1294  C1305   1.388   .     A
C1295  C1330   1.516   .     S
C1295  C1309   1.407   .     A
C1295  C1306   1.389   .     A
C1296  C1331   1.515   .     S
C1296  C1302   1.389   .     A
C1296  C1309   1.410   .     A
C1297  C1310   1.408   .     A
C1297  C1332   1.516   .     S
C1297  C1304   1.388   .     A
C1298  C1333   1.514   .     S
C1298  C1312   1.408   .     A
C1299  C1311   1.412   .     A
C1299  C1334   1.516   .     S
C1300  C1335   1.525   .     S
C1300  C1311   1.407   .     A
C1301  C1312   1.410   .     A
C1301  C1337   1.514   .     S
C1302  C1315   1.407   .     A
C1302  C1338   1.516   .     S
C1303  O1432   1.291   .     A
C1303  O1435   1.289   .     A
C1303  C1308   1.418   .     S
C1304  C1313   1.413   .     A
C1304  C1339   1.516   .     S
C1305  C1340   1.516   .     S
C1305  C1313   1.408   .     A
C1306  C1341   1.515   .     S
C1306  C1315   1.410   .     A
C1307  C1314   1.459   .     S
C1311  C1343   1.418   .     S
C1312  C1342   1.459   .     S
C1313  C1336   1.453   .     S
C1314  O1434   1.302   .     A
C1314  O1433   1.305   .     A
C1315  C1325   1.456   .     S
C1316  H1367   1.106   .     S
C1316  C1504   1.515   .     S
C1316  H1505   1.084   .     S
C1316  H1516   1.105   .     S
C1317  H1378   1.082   .     S
C1317  H1400   1.110   .     S
C1317  H1549   1.106   .     S
C1318  H1415   1.110   .     S
C1318  H1571   1.080   .     S
C1318  H1576   1.107   .     S
C1319  H1348   1.106   .     S
C1319  H1506   1.084   1_455 S
C1319  H1507   1.106   1_455 S
C1320  H1351   1.106   .     S
C1320  H1349   1.082   .     S
C1320  H1350   1.110   .     S
C1321  H1353   1.106   .     S
C1321  H1354   1.105   .     S
C1321  H1352   1.084   .     S
C1322  H1358   1.106   .     S
C1322  H1355   1.084   .     S
C1322  H1357   1.106   .     S
C1323  H1359   1.080   .     S
C1323  H1360   1.108   .     S
C1323  H1361   1.110   .     S
C1324  H1363   1.110   .     S
C1324  H1362   1.096   .     S
C1324  H1364   1.110   .     S
C1325  O1424   1.299   .     A
C1325  O1436   1.304   .     A
C1326  H1365   1.105   .     S
C1326  H1368   1.104   .     S
C1326  H1366   1.111   .     S
C1327  H1369   1.103   .     S
C1327  H1371   1.105   .     S
C1327  H1370   1.111   .     S
C1328  H1374   1.105   .     S
C1328  H1373   1.107   .     S
C1328  H1372   1.107   .     S
C1329  H1377   1.111   .     S
C1329  H1375   1.106   .     S
C1329  H1376   1.106   .     S
C1330  H1379   1.109   .     S
C1330  H1381   1.104   .     S
C1330  H1380   1.111   .     S
C1331  H1382   1.104   .     S
C1331  H1384   1.109   .     S
C1331  H1383   1.111   .     S
C1332  H1387   1.111   .     S
C1332  H1385   1.107   .     S
C1332  H1386   1.107   .     S
C1333  H1390   1.104   .     S
C1333  H1391   1.111   .     S
C1333  H1388   1.105   .     S
C1334  H1393   1.110   .     S
C1334  H1392   1.096   .     S
C1334  H1394   1.110   .     S
C1335  H1396   1.105   .     S
C1335  H1397   1.107   .     S
C1335  H1395   1.107   .     S
C1336  O1423   1.305   .     A
C1336  O1422   1.299   .     A
C1337  H1399   1.105   .     S
C1337  H1401   1.111   .     S
C1337  H1398   1.103   .     S
C1338  H1402   1.109   .     S
C1338  H1403   1.104   .     S
C1338  H1404   1.111   .     S
C1339  H1406   1.111   .     S
C1339  H1407   1.106   .     S
C1339  H1405   1.106   .     S
C1340  H1408   1.107   .     S
C1340  H1410   1.107   .     S
C1340  H1409   1.111   .     S
C1341  H1413   1.109   .     S
C1341  H1412   1.104   .     S
C1341  H1414   1.111   .     S
C1342  O1428   1.302   .     A
C1342  O1425   1.305   .     A
C1343  O1426   1.291   .     A
C1343  O1427   1.289   .     A
C1344  N1418   1.379   .     A
C1344  C1476   1.515   1_455 S
H1345  C1476   1.084   1_455 S
H1346  C1479   1.084   .     S
H1347  C1479   1.106   .     S
H1356  C1476   1.105   1_455 S
H1389  C1477   1.106   1_455 S
H1411  C1478   1.080   1_455 S
H1416  C1478   1.107   1_455 S
N1417  Zn1437  2.036   .     S
N1417  C1442   1.378   1_455 S
N1418  Zn1438  2.036   .     S
N1418  C1443   1.379   1_455 S
N1419  C1606   1.379   1_545 S
N1419  Zn1439  2.036   .     S
N1420  C1607   1.380   1_545 A
N1420  Zn1440  2.036   .     S
O1421  Zn1437  1.994   .     S
O1422  Zn1440  1.994   .     S
O1423  Zn1439  1.994   .     S
O1424  Zn1760  1.994   .     S
O1425  Zn1760  1.991   .     S
O1426  Zn1439  1.991   .     S
O1427  Zn1440  1.996   .     S
O1428  Zn1759  1.996   .     S
O1429  Zn1598  1.994   .     S
O1430  Zn1597  1.994   .     S
O1431  Zn1438  1.994   .     S
O1432  Zn1598  1.991   .     S
O1433  Zn1437  1.991   .     S
O1434  Zn1438  1.996   .     S
O1435  Zn1597  1.996   .     S
O1436  Zn1759  1.994   .     S
Zn1437 O1595   1.996   1_455 S
Zn1437 O1590   1.994   1_455 S
Zn1438 O1592   1.991   1_455 S
Zn1438 O1589   1.994   1_455 S
Zn1439 O1748   1.996   1_545 S
Zn1439 O1756   1.994   1_545 S
Zn1440 O1744   1.994   1_545 S
Zn1440 O1745   1.991   1_545 S
C1441  C1470   1.453   .     S
C1441  O1591   1.305   .     A
C1441  O1581   1.299   .     A
C1442  C1477   1.512   .     S
C1442  C163    1.431   1_556 S
C1442  N1417   1.378   1_655 S
C1443  C1478   1.511   .     S
C1443  N1418   1.379   1_655 S
C1444  N1577   1.380   .     A
C1444  C1479   1.516   .     S
C1444  C224    1.432   1_556 S
C1445  C1480   1.512   .     S
C1445  N1580   1.378   .     S
C1446  C1481   1.515   .     S
C1446  C167    1.432   1_556 S
C1446  N1899   1.379   .     S
C1447  N1900   1.380   .     A
C1447  C1482   1.516   .     S
C1448  N1579   1.379   .     A
C1448  C1483   1.511   .     S
C1448  C165    1.431   1_556 S
C1449  C1460   1.395   .     A
C1449  C1484   1.516   .     S
C1449  C1468   1.412   .     A
C1450  C1467   1.408   .     A
C1450  C1461   1.390   .     A
C1450  C1486   1.514   .     S
C1451  C1458   1.390   .     A
C1451  C1487   1.514   .     S
C1451  C1467   1.410   .     A
C1452  C1469   1.456   .     S
C1452  O1590   1.299   .     A
C1452  O1589   1.304   .     A
C1453  C1468   1.407   .     A
C1453  C1459   1.395   .     A
C1453  C1488   1.525   .     S
C1454  C1489   1.516   .     S
C1454  C1470   1.413   .     A
C1454  C1465   1.388   .     A
C1455  C1490   1.516   .     S
C1455  C1469   1.407   .     A
C1455  C1466   1.389   .     A
C1456  C1491   1.515   .     S
C1456  C1462   1.389   .     A
C1456  C1469   1.410   .     A
C1457  C1470   1.408   .     A
C1457  C1492   1.516   .     S
C1457  C1464   1.388   .     A
C1458  C1493   1.514   .     S
C1458  C1472   1.408   .     A
C1459  C1471   1.412   .     A
C1459  C1494   1.516   .     S
C1460  C1495   1.525   .     S
C1460  C1471   1.407   .     A
C1461  C1472   1.410   .     A
C1461  C1497   1.514   .     S
C1462  C1475   1.407   .     A
C1462  C1498   1.516   .     S
C1463  O1592   1.291   .     A
C1463  O1595   1.289   .     A
C1463  C1468   1.418   .     S
C1464  C1473   1.413   .     A
C1464  C1499   1.516   .     S
C1465  C1500   1.516   .     S
C1465  C1473   1.408   .     A
C1466  C1501   1.515   .     S
C1466  C1475   1.410   .     A
C1467  C1474   1.459   .     S
C1471  C1503   1.418   .     S
C1472  C1502   1.459   .     S
C1473  C1496   1.453   .     S
C1474  O1594   1.302   .     A
C1474  O1593   1.305   .     A
C1475  C1485   1.456   .     S
C1476  H1527   1.106   .     S
C1476  C1344   1.515   1_655 S
C1476  H1345   1.084   1_655 S
C1476  H1356   1.105   1_655 S
C1477  H1538   1.082   .     S
C1477  H1560   1.110   .     S
C1477  H1389   1.106   1_655 S
C1478  H1575   1.110   .     S
C1478  H1411   1.080   1_655 S
C1478  H1416   1.107   1_655 S
C1479  H1508   1.106   .     S
C1480  H1511   1.106   .     S
C1480  H1509   1.082   .     S
C1480  H1510   1.110   .     S
C1481  H1513   1.106   .     S
C1481  H1514   1.105   .     S
C1481  H1512   1.084   .     S
C1482  H1518   1.106   .     S
C1482  H1515   1.084   .     S
C1482  H1517   1.106   .     S
C1483  H1519   1.080   .     S
C1483  H1520   1.108   .     S
C1483  H1521   1.110   .     S
C1484  H1523   1.110   .     S
C1484  H1522   1.096   .     S
C1484  H1524   1.110   .     S
C1485  O1584   1.299   .     A
C1485  O1596   1.304   .     A
C1486  H1525   1.105   .     S
C1486  H1528   1.104   .     S
C1486  H1526   1.111   .     S
C1487  H1529   1.103   .     S
C1487  H1531   1.105   .     S
C1487  H1530   1.111   .     S
C1488  H1534   1.105   .     S
C1488  H1533   1.107   .     S
C1488  H1532   1.107   .     S
C1489  H1537   1.111   .     S
C1489  H1535   1.106   .     S
C1489  H1536   1.106   .     S
C1490  H1539   1.109   .     S
C1490  H1541   1.104   .     S
C1490  H1540   1.111   .     S
C1491  H1542   1.104   .     S
C1491  H1544   1.109   .     S
C1491  H1543   1.111   .     S
C1492  H1547   1.111   .     S
C1492  H1545   1.107   .     S
C1492  H1546   1.107   .     S
C1493  H1550   1.104   .     S
C1493  H1551   1.111   .     S
C1493  H1548   1.105   .     S
C1494  H1553   1.110   .     S
C1494  H1552   1.096   .     S
C1494  H1554   1.110   .     S
C1495  H1556   1.105   .     S
C1495  H1557   1.107   .     S
C1495  H1555   1.107   .     S
C1496  O1583   1.305   .     A
C1496  O1582   1.299   .     A
C1497  H1559   1.105   .     S
C1497  H1561   1.111   .     S
C1497  H1558   1.103   .     S
C1498  H1562   1.109   .     S
C1498  H1563   1.104   .     S
C1498  H1564   1.111   .     S
C1499  H1566   1.111   .     S
C1499  H1567   1.106   .     S
C1499  H1565   1.106   .     S
C1500  H1568   1.107   .     S
C1500  H1570   1.107   .     S
C1500  H1569   1.111   .     S
C1501  H1573   1.109   .     S
C1501  H1572   1.104   .     S
C1501  H1574   1.111   .     S
C1502  O1588   1.302   .     A
C1502  O1585   1.305   .     A
C1503  O1586   1.291   .     A
C1503  O1587   1.289   .     A
C1504  N1578   1.379   .     A
H1506  C1319   1.084   1_655 S
H1507  C1319   1.106   1_655 S
N1577  Zn1597  2.036   .     S
N1578  Zn1598  2.036   .     S
N1579  C1766   1.379   1_545 S
N1579  Zn1599  2.036   .     S
N1580  C1767   1.380   1_545 A
N1580  Zn1600  2.036   .     S
O1581  Zn1597  1.994   .     S
O1582  Zn1600  1.994   .     S
O1583  Zn1599  1.994   .     S
O1584  Zn1920  1.994   .     S
O1585  Zn1920  1.991   .     S
O1586  Zn1599  1.991   .     S
O1587  Zn1600  1.996   .     S
O1588  Zn1919  1.996   .     S
O1589  Zn1438  1.994   1_655 S
O1590  Zn1437  1.994   1_655 S
O1591  Zn1598  1.994   .     S
O1592  Zn1438  1.991   1_655 S
O1593  Zn1597  1.991   .     S
O1594  Zn1598  1.996   .     S
O1595  Zn1437  1.996   1_655 S
O1596  Zn1919  1.994   .     S
Zn1599 O1908   1.996   1_545 S
Zn1599 O1916   1.994   1_545 S
Zn1600 O1904   1.994   1_545 S
Zn1600 O1905   1.991   1_545 S
C1601  C1630   1.453   .     S
C1601  O1751   1.305   .     A
C1601  O1741   1.299   .     A
C1602  C1637   1.512   .     S
C1602  C323    1.431   1_556 S
C1602  N1897   1.378   .     S
C1603  C1638   1.511   .     S
C1603  N1898   1.379   .     S
C1604  N1737   1.380   .     A
C1604  C1639   1.516   .     S
C1604  C384    1.432   1_556 S
C1605  C1640   1.512   .     S
C1605  N1740   1.378   .     S
C1606  C1641   1.515   .     S
C1606  C327    1.432   1_556 S
C1606  N1419   1.379   1_565 S
C1607  N1420   1.380   1_565 A
C1607  C1642   1.516   .     S
C1608  N1739   1.379   .     A
C1608  C1643   1.511   .     S
C1608  C325    1.431   1_556 S
C1609  C1620   1.395   .     A
C1609  C1644   1.516   .     S
C1609  C1628   1.412   .     A
C1610  C1627   1.408   .     A
C1610  C1621   1.390   .     A
C1610  C1646   1.514   .     S
C1611  C1618   1.390   .     A
C1611  C1647   1.514   .     S
C1611  C1627   1.410   .     A
C1612  C1629   1.456   .     S
C1612  O1750   1.299   .     A
C1612  O1749   1.304   .     A
C1613  C1628   1.407   .     A
C1613  C1619   1.395   .     A
C1613  C1648   1.525   .     S
C1614  C1649   1.516   .     S
C1614  C1630   1.413   .     A
C1614  C1625   1.388   .     A
C1615  C1650   1.516   .     S
C1615  C1629   1.407   .     A
C1615  C1626   1.389   .     A
C1616  C1651   1.515   .     S
C1616  C1622   1.389   .     A
C1616  C1629   1.410   .     A
C1617  C1630   1.408   .     A
C1617  C1652   1.516   .     S
C1617  C1624   1.388   .     A
C1618  C1653   1.514   .     S
C1618  C1632   1.408   .     A
C1619  C1631   1.412   .     A
C1619  C1654   1.516   .     S
C1620  C1655   1.525   .     S
C1620  C1631   1.407   .     A
C1621  C1632   1.410   .     A
C1621  C1657   1.514   .     S
C1622  C1635   1.407   .     A
C1622  C1658   1.516   .     S
C1623  O1752   1.291   .     A
C1623  O1755   1.289   .     A
C1623  C1628   1.418   .     S
C1624  C1633   1.413   .     A
C1624  C1659   1.516   .     S
C1625  C1660   1.516   .     S
C1625  C1633   1.408   .     A
C1626  C1661   1.515   .     S
C1626  C1635   1.410   .     A
C1627  C1634   1.459   .     S
C1631  C1663   1.418   .     S
C1632  C1662   1.459   .     S
C1633  C1656   1.453   .     S
C1634  O1754   1.302   .     A
C1634  O1753   1.305   .     A
C1635  C1645   1.456   .     S
C1636  H1687   1.106   .     S
C1636  C1824   1.515   .     S
C1636  H1825   1.084   .     S
C1636  H1836   1.105   .     S
C1637  H1698   1.082   .     S
C1637  H1720   1.110   .     S
C1637  H1869   1.106   .     S
C1638  H1735   1.110   .     S
C1638  H1891   1.080   .     S
C1638  H1896   1.107   .     S
C1639  H1668   1.106   .     S
C1639  H1826   1.084   1_455 S
C1639  H1827   1.106   1_455 S
C1640  H1671   1.106   .     S
C1640  H1669   1.082   .     S
C1640  H1670   1.110   .     S
C1641  H1673   1.106   .     S
C1641  H1674   1.105   .     S
C1641  H1672   1.084   .     S
C1642  H1678   1.106   .     S
C1642  H1675   1.084   .     S
C1642  H1677   1.106   .     S
C1643  H1679   1.080   .     S
C1643  H1680   1.108   .     S
C1643  H1681   1.110   .     S
C1644  H1683   1.110   .     S
C1644  H1682   1.096   .     S
C1644  H1684   1.110   .     S
C1645  O1744   1.299   .     A
C1645  O1756   1.304   .     A
C1646  H1685   1.105   .     S
C1646  H1688   1.104   .     S
C1646  H1686   1.111   .     S
C1647  H1689   1.103   .     S
C1647  H1691   1.105   .     S
C1647  H1690   1.111   .     S
C1648  H1694   1.105   .     S
C1648  H1693   1.107   .     S
C1648  H1692   1.107   .     S
C1649  H1697   1.111   .     S
C1649  H1695   1.106   .     S
C1649  H1696   1.106   .     S
C1650  H1699   1.109   .     S
C1650  H1701   1.104   .     S
C1650  H1700   1.111   .     S
C1651  H1702   1.104   .     S
C1651  H1704   1.109   .     S
C1651  H1703   1.111   .     S
C1652  H1707   1.111   .     S
C1652  H1705   1.107   .     S
C1652  H1706   1.107   .     S
C1653  H1710   1.104   .     S
C1653  H1711   1.111   .     S
C1653  H1708   1.105   .     S
C1654  H1713   1.110   .     S
C1654  H1712   1.096   .     S
C1654  H1714   1.110   .     S
C1655  H1716   1.105   .     S
C1655  H1717   1.107   .     S
C1655  H1715   1.107   .     S
C1656  O1743   1.305   .     A
C1656  O1742   1.299   .     A
C1657  H1719   1.105   .     S
C1657  H1721   1.111   .     S
C1657  H1718   1.103   .     S
C1658  H1722   1.109   .     S
C1658  H1723   1.104   .     S
C1658  H1724   1.111   .     S
C1659  H1726   1.111   .     S
C1659  H1727   1.106   .     S
C1659  H1725   1.106   .     S
C1660  H1728   1.107   .     S
C1660  H1730   1.107   .     S
C1660  H1729   1.111   .     S
C1661  H1733   1.109   .     S
C1661  H1732   1.104   .     S
C1661  H1734   1.111   .     S
C1662  O1748   1.302   .     A
C1662  O1745   1.305   .     A
C1663  O1746   1.291   .     A
C1663  O1747   1.289   .     A
C1664  N1738   1.379   .     A
C1664  C1796   1.515   1_455 S
H1665  C1796   1.084   1_455 S
H1666  C1799   1.084   .     S
H1667  C1799   1.106   .     S
H1676  C1796   1.105   1_455 S
H1709  C1797   1.106   1_455 S
H1731  C1798   1.080   1_455 S
H1736  C1798   1.107   1_455 S
N1737  Zn1757  2.036   .     S
N1737  C1762   1.378   1_455 S
N1738  Zn1758  2.036   .     S
N1738  C1763   1.379   1_455 S
N1739  Zn1759  2.036   .     S
N1740  Zn1760  2.036   .     S
O1741  Zn1757  1.994   .     S
O1742  Zn1760  1.994   .     S
O1743  Zn1759  1.994   .     S
O1744  Zn1440  1.994   1_565 S
O1745  Zn1440  1.991   1_565 S
O1746  Zn1759  1.991   .     S
O1747  Zn1760  1.996   .     S
O1748  Zn1439  1.996   1_565 S
O1749  Zn1918  1.994   .     S
O1750  Zn1917  1.994   .     S
O1751  Zn1758  1.994   .     S
O1752  Zn1918  1.991   .     S
O1753  Zn1757  1.991   .     S
O1754  Zn1758  1.996   .     S
O1755  Zn1917  1.996   .     S
O1756  Zn1439  1.994   1_565 S
Zn1757 O1915   1.996   1_455 S
Zn1757 O1910   1.994   1_455 S
Zn1758 O1912   1.991   1_455 S
Zn1758 O1909   1.994   1_455 S
C1761  C1790   1.453   .     S
C1761  O1911   1.305   .     A
C1761  O1901   1.299   .     A
C1762  C1797   1.512   .     S
C1762  C483    1.431   1_556 S
C1762  N1737   1.378   1_655 S
C1763  C1798   1.511   .     S
C1763  N1738   1.379   1_655 S
C1764  N1897   1.380   .     A
C1764  C1799   1.516   .     S
C1764  C544    1.432   1_556 S
C1765  C1800   1.512   .     S
C1765  N1900   1.378   .     S
C1766  C1801   1.515   .     S
C1766  C487    1.432   1_556 S
C1766  N1579   1.379   1_565 S
C1767  N1580   1.380   1_565 A
C1767  C1802   1.516   .     S
C1768  N1899   1.379   .     A
C1768  C1803   1.511   .     S
C1768  C485    1.431   1_556 S
C1769  C1780   1.395   .     A
C1769  C1804   1.516   .     S
C1769  C1788   1.412   .     A
C1770  C1787   1.408   .     A
C1770  C1781   1.390   .     A
C1770  C1806   1.514   .     S
C1771  C1778   1.390   .     A
C1771  C1807   1.514   .     S
C1771  C1787   1.410   .     A
C1772  C1789   1.456   .     S
C1772  O1910   1.299   .     A
C1772  O1909   1.304   .     A
C1773  C1788   1.407   .     A
C1773  C1779   1.395   .     A
C1773  C1808   1.525   .     S
C1774  C1809   1.516   .     S
C1774  C1790   1.413   .     A
C1774  C1785   1.388   .     A
C1775  C1810   1.516   .     S
C1775  C1789   1.407   .     A
C1775  C1786   1.389   .     A
C1776  C1811   1.515   .     S
C1776  C1782   1.389   .     A
C1776  C1789   1.410   .     A
C1777  C1790   1.408   .     A
C1777  C1812   1.516   .     S
C1777  C1784   1.388   .     A
C1778  C1813   1.514   .     S
C1778  C1792   1.408   .     A
C1779  C1791   1.412   .     A
C1779  C1814   1.516   .     S
C1780  C1815   1.525   .     S
C1780  C1791   1.407   .     A
C1781  C1792   1.410   .     A
C1781  C1817   1.514   .     S
C1782  C1795   1.407   .     A
C1782  C1818   1.516   .     S
C1783  O1912   1.291   .     A
C1783  O1915   1.289   .     A
C1783  C1788   1.418   .     S
C1784  C1793   1.413   .     A
C1784  C1819   1.516   .     S
C1785  C1820   1.516   .     S
C1785  C1793   1.408   .     A
C1786  C1821   1.515   .     S
C1786  C1795   1.410   .     A
C1787  C1794   1.459   .     S
C1791  C1823   1.418   .     S
C1792  C1822   1.459   .     S
C1793  C1816   1.453   .     S
C1794  O1914   1.302   .     A
C1794  O1913   1.305   .     A
C1795  C1805   1.456   .     S
C1796  H1847   1.106   .     S
C1796  C1664   1.515   1_655 S
C1796  H1665   1.084   1_655 S
C1796  H1676   1.105   1_655 S
C1797  H1858   1.082   .     S
C1797  H1880   1.110   .     S
C1797  H1709   1.106   1_655 S
C1798  H1895   1.110   .     S
C1798  H1731   1.080   1_655 S
C1798  H1736   1.107   1_655 S
C1799  H1828   1.106   .     S
C1800  H1831   1.106   .     S
C1800  H1829   1.082   .     S
C1800  H1830   1.110   .     S
C1801  H1833   1.106   .     S
C1801  H1834   1.105   .     S
C1801  H1832   1.084   .     S
C1802  H1838   1.106   .     S
C1802  H1835   1.084   .     S
C1802  H1837   1.106   .     S
C1803  H1839   1.080   .     S
C1803  H1840   1.108   .     S
C1803  H1841   1.110   .     S
C1804  H1843   1.110   .     S
C1804  H1842   1.096   .     S
C1804  H1844   1.110   .     S
C1805  O1904   1.299   .     A
C1805  O1916   1.304   .     A
C1806  H1845   1.105   .     S
C1806  H1848   1.104   .     S
C1806  H1846   1.111   .     S
C1807  H1849   1.103   .     S
C1807  H1851   1.105   .     S
C1807  H1850   1.111   .     S
C1808  H1854   1.105   .     S
C1808  H1853   1.107   .     S
C1808  H1852   1.107   .     S
C1809  H1857   1.111   .     S
C1809  H1855   1.106   .     S
C1809  H1856   1.106   .     S
C1810  H1859   1.109   .     S
C1810  H1861   1.104   .     S
C1810  H1860   1.111   .     S
C1811  H1862   1.104   .     S
C1811  H1864   1.109   .     S
C1811  H1863   1.111   .     S
C1812  H1867   1.111   .     S
C1812  H1865   1.107   .     S
C1812  H1866   1.107   .     S
C1813  H1870   1.104   .     S
C1813  H1871   1.111   .     S
C1813  H1868   1.105   .     S
C1814  H1873   1.110   .     S
C1814  H1872   1.096   .     S
C1814  H1874   1.110   .     S
C1815  H1876   1.105   .     S
C1815  H1877   1.107   .     S
C1815  H1875   1.107   .     S
C1816  O1903   1.305   .     A
C1816  O1902   1.299   .     A
C1817  H1879   1.105   .     S
C1817  H1881   1.111   .     S
C1817  H1878   1.103   .     S
C1818  H1882   1.109   .     S
C1818  H1883   1.104   .     S
C1818  H1884   1.111   .     S
C1819  H1886   1.111   .     S
C1819  H1887   1.106   .     S
C1819  H1885   1.106   .     S
C1820  H1888   1.107   .     S
C1820  H1890   1.107   .     S
C1820  H1889   1.111   .     S
C1821  H1893   1.109   .     S
C1821  H1892   1.104   .     S
C1821  H1894   1.111   .     S
C1822  O1908   1.302   .     A
C1822  O1905   1.305   .     A
C1823  O1906   1.291   .     A
C1823  O1907   1.289   .     A
C1824  N1898   1.379   .     A
H1826  C1639   1.084   1_655 S
H1827  C1639   1.106   1_655 S
N1897  Zn1917  2.036   .     S
N1898  Zn1918  2.036   .     S
N1899  Zn1919  2.036   .     S
N1900  Zn1920  2.036   .     S
O1901  Zn1917  1.994   .     S
O1902  Zn1920  1.994   .     S
O1903  Zn1919  1.994   .     S
O1904  Zn1600  1.994   1_565 S
O1905  Zn1600  1.991   1_565 S
O1906  Zn1919  1.991   .     S
O1907  Zn1920  1.996   .     S
O1908  Zn1599  1.996   1_565 S
O1909  Zn1758  1.994   1_655 S
O1910  Zn1757  1.994   1_655 S
O1911  Zn1918  1.994   .     S
O1912  Zn1758  1.991   1_655 S
O1913  Zn1917  1.991   .     S
O1914  Zn1918  1.996   .     S
O1915  Zn1757  1.996   1_655 S
O1916  Zn1599  1.994   1_565 S
