data_str_m1_o10_o16_pcu_sym.103
_audit_creation_date              2020-01-03
_audit_creation_method            'Materials Studio'
_symmetry_space_group_name_H-M    'P1'
_symmetry_Int_Tables_number       1
_symmetry_cell_setting            triclinic
loop_
_symmetry_equiv_pos_as_xyz
  x,y,z
_cell_length_a                    32.5066
_cell_length_b                    32.5244
_cell_length_c                    31.0589
_cell_angle_alpha                 96.1033
_cell_angle_beta                  74.5362
_cell_angle_gamma                 98.3730
loop_
_atom_site_label
_atom_site_type_symbol
_atom_site_fract_x
_atom_site_fract_y
_atom_site_fract_z
_atom_site_U_iso_or_equiv
_atom_site_adp_type
_atom_site_occupancy
C1     C     0.05277   0.15972   0.26007   0.00000  Uiso   1.00
C2     C     0.16948   0.15797   0.05972   0.00000  Uiso   1.00
C3     C     0.23229   0.12363   0.05599   0.00000  Uiso   1.00
C4     C     0.28085   0.17382   0.23995   0.00000  Uiso   1.00
C5     C     0.14114   0.19215   0.42009   0.00000  Uiso   1.00
C6     C     0.32677   0.17640   0.23569   0.00000  Uiso   1.00
C7     C     0.00744   0.15748   0.26417   0.00000  Uiso   1.00
C8     C     0.18051   0.32252   0.23621   0.00000  Uiso   1.00
C9     C     0.15220   0.01180   0.26407   0.00000  Uiso   1.00
C10    C     0.15630   0.05589   0.26018   0.00000  Uiso   1.00
C11    C     0.17664   0.27795   0.24010   0.00000  Uiso   1.00
C12    C     0.08922   0.20603   0.49035   0.00000  Uiso   1.00
C13    C     0.18570   0.14819   0.12940   0.00000  Uiso   1.00
C14    C     0.14952   0.18546   0.37084   0.00000  Uiso   1.00
C15    C     0.24497   0.12609   0.00903   0.00000  Uiso   1.00
C16    C     0.19533   0.14145   0.08089   0.00000  Uiso   1.00
C17    C     0.10209   0.20616   0.44406   0.00000  Uiso   1.00
C18    C     0.25688   0.10157   0.07868   0.00000  Uiso   1.00
C19    C     0.28427   0.10816   0.48205   0.00000  Uiso   1.00
C20    C     0.28073   0.07393   0.45104   0.00000  Uiso   1.00
C21    C     0.31752   0.05689   0.42571   0.00000  Uiso   1.00
C22    C     0.02466   0.07372   0.43131   0.00000  Uiso   1.00
C23    C     0.11426   0.19070   0.01350   0.00000  Uiso   1.00
C24    C     0.02842   0.10765   0.46222   0.00000  Uiso   1.00
C25    C     0.32508   0.12501   0.48742   0.00000  Uiso   1.00
C26    C     0.15460   0.17734   0.49084   0.00000  Uiso   1.00
C27    C     0.16905   0.18060   0.44379   0.00000  Uiso   1.00
C28    C     0.18083   0.16040   0.01314   0.00000  Uiso   1.00
C29    C     0.22039   0.14638   0.48807   0.00000  Uiso   1.00
C30    C     0.23575   0.15479   0.44290   0.00000  Uiso   1.00
C31    C     0.21122   0.17275   0.42169   0.00000  Uiso   1.00
H32    H     0.31892   0.14038   0.29109   0.00000  Uiso   1.00
H33    H     0.01595   0.19370   0.20927   0.00000  Uiso   1.00
H34    H     0.28606   0.05090   0.07877   0.00000  Uiso   1.00
H35    H     0.24951   0.06051   0.44657   0.00000  Uiso   1.00
H36    H     0.31464   0.03056   0.40181   0.00000  Uiso   1.00
H37    H     0.05310   0.06042   0.41177   0.00000  Uiso   1.00
H38    H     0.05978   0.12036   0.46668   0.00000  Uiso   1.00
H39    H     0.32839   0.15139   0.01118   0.00000  Uiso   1.00
H40    H     0.20662   0.00370   0.21049   0.00000  Uiso   1.00
H41    H     0.12586   0.33141   0.29005   0.00000  Uiso   1.00
H42    H     0.26742   0.14835   0.42351   0.00000  Uiso   1.00
H43    H     0.14176   0.17081   0.08116   0.00000  Uiso   1.00
H44    H     0.08046   0.21563   0.42685   0.00000  Uiso   1.00
H45    H     0.10071   0.18951   0.04901   0.00000  Uiso   1.00
H46    H     0.05858   0.21617   0.00834   0.00000  Uiso   1.00
H47    H     0.22631   0.18082   0.38776   0.00000  Uiso   1.00
O48    O     0.16667   0.16667   0.25000   0.00000  Uiso   1.00
O49    O     0.15451   0.12637   0.15458   0.00000  Uiso   1.00
O50    O     0.12940   0.20391   0.34968   0.00000  Uiso   1.00
O51    O     0.20824   0.17759   0.14606   0.00000  Uiso   1.00
O52    O     0.17451   0.15880   0.34968   0.00000  Uiso   1.00
O53    O     0.26625   0.11724   0.11291   0.00000  Uiso   1.00
O54    O     0.26937   0.06269   0.06064   0.00000  Uiso   1.00
O55    O     0.17930   0.08019   0.28213   0.00000  Uiso   1.00
O56    O     0.14632   0.26085   0.27013   0.00000  Uiso   1.00
O57    O     0.07412   0.13291   0.23413   0.00000  Uiso   1.00
O58    O     0.26693   0.19272   0.21360   0.00000  Uiso   1.00
O59    O     0.07071   0.18878   0.28213   0.00000  Uiso   1.00
O60    O     0.25491   0.15226   0.27013   0.00000  Uiso   1.00
O61    O     0.13760   0.06944   0.23413   0.00000  Uiso   1.00
O62    O     0.20345   0.25620   0.21360   0.00000  Uiso   1.00
Zn63   Zn    0.19338   0.13994   0.28734   0.00000  Uiso   1.00
Zn64   Zn    0.13379   0.12458   0.21875   0.00000  Uiso   1.00
Zn65   Zn    0.21056   0.19775   0.20657   0.00000  Uiso   1.00
Zn66   Zn    0.12893   0.20439   0.28733   0.00000  Uiso   1.00
C67    C     0.38610   0.15972   0.26007   0.00000  Uiso   1.00
C68    C     0.50281   0.15797   0.05972   0.00000  Uiso   1.00
C69    C     0.56562   0.12363   0.05599   0.00000  Uiso   1.00
C70    C     0.61418   0.17382   0.23995   0.00000  Uiso   1.00
C71    C     0.47447   0.19215   0.42009   0.00000  Uiso   1.00
C72    C     0.66011   0.17640   0.23569   0.00000  Uiso   1.00
C73    C     0.34077   0.15748   0.26417   0.00000  Uiso   1.00
C74    C     0.51384   0.32252   0.23621   0.00000  Uiso   1.00
C75    C     0.48554   0.01180   0.26407   0.00000  Uiso   1.00
C76    C     0.48963   0.05589   0.26018   0.00000  Uiso   1.00
C77    C     0.50997   0.27795   0.24010   0.00000  Uiso   1.00
C78    C     0.42255   0.20603   0.49035   0.00000  Uiso   1.00
C79    C     0.51903   0.14819   0.12940   0.00000  Uiso   1.00
C80    C     0.48285   0.18546   0.37084   0.00000  Uiso   1.00
C81    C     0.57831   0.12609   0.00903   0.00000  Uiso   1.00
C82    C     0.52866   0.14145   0.08089   0.00000  Uiso   1.00
C83    C     0.43542   0.20616   0.44406   0.00000  Uiso   1.00
C84    C     0.59021   0.10157   0.07868   0.00000  Uiso   1.00
C85    C     0.61760   0.10816   0.48205   0.00000  Uiso   1.00
C86    C     0.61407   0.07393   0.45104   0.00000  Uiso   1.00
C87    C     0.65085   0.05689   0.42571   0.00000  Uiso   1.00
C88    C     0.35799   0.07372   0.43131   0.00000  Uiso   1.00
C89    C     0.44759   0.19070   0.01350   0.00000  Uiso   1.00
C90    C     0.36175   0.10765   0.46222   0.00000  Uiso   1.00
C91    C     0.65841   0.12501   0.48742   0.00000  Uiso   1.00
C92    C     0.48793   0.17734   0.49084   0.00000  Uiso   1.00
C93    C     0.50238   0.18060   0.44379   0.00000  Uiso   1.00
C94    C     0.51416   0.16040   0.01314   0.00000  Uiso   1.00
C95    C     0.55372   0.14638   0.48807   0.00000  Uiso   1.00
C96    C     0.56908   0.15479   0.44290   0.00000  Uiso   1.00
C97    C     0.54455   0.17275   0.42169   0.00000  Uiso   1.00
H98    H     0.65226   0.14038   0.29109   0.00000  Uiso   1.00
H99    H     0.34928   0.19370   0.20927   0.00000  Uiso   1.00
H100   H     0.61939   0.05090   0.07877   0.00000  Uiso   1.00
H101   H     0.58284   0.06051   0.44657   0.00000  Uiso   1.00
H102   H     0.64797   0.03056   0.40181   0.00000  Uiso   1.00
H103   H     0.38643   0.06042   0.41177   0.00000  Uiso   1.00
H104   H     0.39311   0.12036   0.46668   0.00000  Uiso   1.00
H105   H     0.66172   0.15139   0.01118   0.00000  Uiso   1.00
H106   H     0.53995   0.00370   0.21049   0.00000  Uiso   1.00
H107   H     0.45919   0.33141   0.29005   0.00000  Uiso   1.00
H108   H     0.60075   0.14835   0.42351   0.00000  Uiso   1.00
H109   H     0.47510   0.17081   0.08116   0.00000  Uiso   1.00
H110   H     0.41379   0.21563   0.42685   0.00000  Uiso   1.00
H111   H     0.43404   0.18951   0.04901   0.00000  Uiso   1.00
H112   H     0.39191   0.21617   0.00834   0.00000  Uiso   1.00
H113   H     0.55964   0.18082   0.38776   0.00000  Uiso   1.00
O114   O     0.50000   0.16667   0.25000   0.00000  Uiso   1.00
O115   O     0.48784   0.12637   0.15458   0.00000  Uiso   1.00
O116   O     0.46274   0.20391   0.34968   0.00000  Uiso   1.00
O117   O     0.54157   0.17759   0.14606   0.00000  Uiso   1.00
O118   O     0.50785   0.15880   0.34968   0.00000  Uiso   1.00
O119   O     0.59959   0.11724   0.11291   0.00000  Uiso   1.00
O120   O     0.60270   0.06269   0.06064   0.00000  Uiso   1.00
O121   O     0.51264   0.08019   0.28213   0.00000  Uiso   1.00
O122   O     0.47965   0.26085   0.27013   0.00000  Uiso   1.00
O123   O     0.40745   0.13291   0.23413   0.00000  Uiso   1.00
O124   O     0.60026   0.19272   0.21360   0.00000  Uiso   1.00
O125   O     0.40405   0.18878   0.28213   0.00000  Uiso   1.00
O126   O     0.58824   0.15226   0.27013   0.00000  Uiso   1.00
O127   O     0.47093   0.06944   0.23413   0.00000  Uiso   1.00
O128   O     0.53678   0.25620   0.21360   0.00000  Uiso   1.00
Zn129  Zn    0.52672   0.13994   0.28734   0.00000  Uiso   1.00
Zn130  Zn    0.46713   0.12458   0.21875   0.00000  Uiso   1.00
Zn131  Zn    0.54389   0.19775   0.20657   0.00000  Uiso   1.00
Zn132  Zn    0.46226   0.20439   0.28733   0.00000  Uiso   1.00
C133   C     0.71943   0.15972   0.26007   0.00000  Uiso   1.00
C134   C     0.83614   0.15797   0.05972   0.00000  Uiso   1.00
C135   C     0.89895   0.12363   0.05599   0.00000  Uiso   1.00
C136   C     0.94751   0.17382   0.23995   0.00000  Uiso   1.00
C137   C     0.80781   0.19215   0.42009   0.00000  Uiso   1.00
C138   C     0.99344   0.17640   0.23569   0.00000  Uiso   1.00
C139   C     0.67411   0.15748   0.26417   0.00000  Uiso   1.00
C140   C     0.84718   0.32252   0.23621   0.00000  Uiso   1.00
C141   C     0.81887   0.01180   0.26407   0.00000  Uiso   1.00
C142   C     0.82296   0.05589   0.26018   0.00000  Uiso   1.00
C143   C     0.84330   0.27795   0.24010   0.00000  Uiso   1.00
C144   C     0.75588   0.20603   0.49035   0.00000  Uiso   1.00
C145   C     0.85237   0.14819   0.12940   0.00000  Uiso   1.00
C146   C     0.81618   0.18546   0.37084   0.00000  Uiso   1.00
C147   C     0.91164   0.12609   0.00903   0.00000  Uiso   1.00
C148   C     0.86199   0.14145   0.08089   0.00000  Uiso   1.00
C149   C     0.76875   0.20616   0.44406   0.00000  Uiso   1.00
C150   C     0.92355   0.10157   0.07868   0.00000  Uiso   1.00
C151   C     0.95093   0.10816   0.48205   0.00000  Uiso   1.00
C152   C     0.94740   0.07393   0.45104   0.00000  Uiso   1.00
C153   C     0.98419   0.05689   0.42571   0.00000  Uiso   1.00
C154   C     0.69132   0.07372   0.43131   0.00000  Uiso   1.00
C155   C     0.78092   0.19070   0.01350   0.00000  Uiso   1.00
C156   C     0.69509   0.10765   0.46222   0.00000  Uiso   1.00
C157   C     0.99175   0.12501   0.48742   0.00000  Uiso   1.00
C158   C     0.82126   0.17734   0.49084   0.00000  Uiso   1.00
C159   C     0.83572   0.18060   0.44379   0.00000  Uiso   1.00
C160   C     0.84749   0.16040   0.01314   0.00000  Uiso   1.00
C161   C     0.88706   0.14638   0.48807   0.00000  Uiso   1.00
C162   C     0.90242   0.15479   0.44290   0.00000  Uiso   1.00
C163   C     0.87789   0.17275   0.42169   0.00000  Uiso   1.00
H164   H     0.98559   0.14038   0.29109   0.00000  Uiso   1.00
H165   H     0.68261   0.19370   0.20927   0.00000  Uiso   1.00
H166   H     0.95272   0.05090   0.07877   0.00000  Uiso   1.00
H167   H     0.91617   0.06051   0.44657   0.00000  Uiso   1.00
H168   H     0.98131   0.03056   0.40181   0.00000  Uiso   1.00
H169   H     0.71977   0.06042   0.41177   0.00000  Uiso   1.00
H170   H     0.72644   0.12036   0.46668   0.00000  Uiso   1.00
H171   H     0.99505   0.15139   0.01118   0.00000  Uiso   1.00
H172   H     0.87328   0.00370   0.21049   0.00000  Uiso   1.00
H173   H     0.79253   0.33141   0.29005   0.00000  Uiso   1.00
H174   H     0.93408   0.14835   0.42351   0.00000  Uiso   1.00
H175   H     0.80843   0.17081   0.08116   0.00000  Uiso   1.00
H176   H     0.74712   0.21563   0.42685   0.00000  Uiso   1.00
H177   H     0.76738   0.18951   0.04901   0.00000  Uiso   1.00
H178   H     0.72524   0.21617   0.00834   0.00000  Uiso   1.00
H179   H     0.89297   0.18082   0.38776   0.00000  Uiso   1.00
O180   O     0.83333   0.16667   0.25000   0.00000  Uiso   1.00
O181   O     0.82118   0.12637   0.15458   0.00000  Uiso   1.00
O182   O     0.79607   0.20391   0.34968   0.00000  Uiso   1.00
O183   O     0.87491   0.17759   0.14606   0.00000  Uiso   1.00
O184   O     0.84118   0.15880   0.34968   0.00000  Uiso   1.00
O185   O     0.93292   0.11724   0.11291   0.00000  Uiso   1.00
O186   O     0.93604   0.06269   0.06064   0.00000  Uiso   1.00
O187   O     0.84597   0.08019   0.28213   0.00000  Uiso   1.00
O188   O     0.81298   0.26085   0.27013   0.00000  Uiso   1.00
O189   O     0.74078   0.13291   0.23413   0.00000  Uiso   1.00
O190   O     0.93360   0.19272   0.21360   0.00000  Uiso   1.00
O191   O     0.73738   0.18878   0.28213   0.00000  Uiso   1.00
O192   O     0.92158   0.15226   0.27013   0.00000  Uiso   1.00
O193   O     0.80426   0.06944   0.23413   0.00000  Uiso   1.00
O194   O     0.87012   0.25620   0.21360   0.00000  Uiso   1.00
Zn195  Zn    0.86005   0.13994   0.28734   0.00000  Uiso   1.00
Zn196  Zn    0.80046   0.12458   0.21875   0.00000  Uiso   1.00
Zn197  Zn    0.87723   0.19775   0.20657   0.00000  Uiso   1.00
Zn198  Zn    0.79560   0.20439   0.28733   0.00000  Uiso   1.00
C199   C     0.05277   0.49306   0.26007   0.00000  Uiso   1.00
C200   C     0.16948   0.49130   0.05972   0.00000  Uiso   1.00
C201   C     0.23229   0.45697   0.05599   0.00000  Uiso   1.00
C202   C     0.28085   0.50715   0.23995   0.00000  Uiso   1.00
C203   C     0.14114   0.52548   0.42009   0.00000  Uiso   1.00
C204   C     0.32677   0.50973   0.23569   0.00000  Uiso   1.00
C205   C     0.00744   0.49081   0.26417   0.00000  Uiso   1.00
C206   C     0.18051   0.65585   0.23621   0.00000  Uiso   1.00
C207   C     0.15220   0.34513   0.26407   0.00000  Uiso   1.00
C208   C     0.15630   0.38922   0.26018   0.00000  Uiso   1.00
C209   C     0.17664   0.61129   0.24010   0.00000  Uiso   1.00
C210   C     0.08922   0.53936   0.49035   0.00000  Uiso   1.00
C211   C     0.18570   0.48152   0.12940   0.00000  Uiso   1.00
C212   C     0.14952   0.51879   0.37084   0.00000  Uiso   1.00
C213   C     0.24497   0.45942   0.00903   0.00000  Uiso   1.00
C214   C     0.19533   0.47478   0.08089   0.00000  Uiso   1.00
C215   C     0.10209   0.53949   0.44406   0.00000  Uiso   1.00
C216   C     0.25688   0.43491   0.07868   0.00000  Uiso   1.00
C217   C     0.28427   0.44149   0.48205   0.00000  Uiso   1.00
C218   C     0.28073   0.40726   0.45104   0.00000  Uiso   1.00
C219   C     0.31752   0.39022   0.42571   0.00000  Uiso   1.00
C220   C     0.02466   0.40705   0.43131   0.00000  Uiso   1.00
C221   C     0.11426   0.52404   0.01350   0.00000  Uiso   1.00
C222   C     0.02842   0.44098   0.46222   0.00000  Uiso   1.00
C223   C     0.32508   0.45834   0.48742   0.00000  Uiso   1.00
C224   C     0.15460   0.51068   0.49084   0.00000  Uiso   1.00
C225   C     0.16905   0.51394   0.44379   0.00000  Uiso   1.00
C226   C     0.18083   0.49373   0.01314   0.00000  Uiso   1.00
C227   C     0.22039   0.47971   0.48807   0.00000  Uiso   1.00
C228   C     0.23575   0.48813   0.44290   0.00000  Uiso   1.00
C229   C     0.21122   0.50609   0.42169   0.00000  Uiso   1.00
H230   H     0.31892   0.47371   0.29109   0.00000  Uiso   1.00
H231   H     0.01595   0.52703   0.20927   0.00000  Uiso   1.00
H232   H     0.28606   0.38423   0.07877   0.00000  Uiso   1.00
H233   H     0.24951   0.39385   0.44657   0.00000  Uiso   1.00
H234   H     0.31464   0.36389   0.40181   0.00000  Uiso   1.00
H235   H     0.05310   0.39375   0.41177   0.00000  Uiso   1.00
H236   H     0.05978   0.45369   0.46668   0.00000  Uiso   1.00
H237   H     0.32839   0.48472   0.01118   0.00000  Uiso   1.00
H238   H     0.20662   0.33704   0.21049   0.00000  Uiso   1.00
H239   H     0.12586   0.66474   0.29005   0.00000  Uiso   1.00
H240   H     0.26742   0.48169   0.42351   0.00000  Uiso   1.00
H241   H     0.14176   0.50415   0.08116   0.00000  Uiso   1.00
H242   H     0.08046   0.54897   0.42685   0.00000  Uiso   1.00
H243   H     0.10071   0.52284   0.04901   0.00000  Uiso   1.00
H244   H     0.05858   0.54950   0.00834   0.00000  Uiso   1.00
H245   H     0.22631   0.51416   0.38776   0.00000  Uiso   1.00
O246   O     0.16667   0.50000   0.25000   0.00000  Uiso   1.00
O247   O     0.15451   0.45970   0.15458   0.00000  Uiso   1.00
O248   O     0.12940   0.53724   0.34968   0.00000  Uiso   1.00
O249   O     0.20824   0.51092   0.14606   0.00000  Uiso   1.00
O250   O     0.17451   0.49213   0.34968   0.00000  Uiso   1.00
O251   O     0.26625   0.45058   0.11291   0.00000  Uiso   1.00
O252   O     0.26937   0.39602   0.06064   0.00000  Uiso   1.00
O253   O     0.17930   0.41352   0.28213   0.00000  Uiso   1.00
O254   O     0.14632   0.59418   0.27013   0.00000  Uiso   1.00
O255   O     0.07412   0.46625   0.23413   0.00000  Uiso   1.00
O256   O     0.26693   0.52605   0.21360   0.00000  Uiso   1.00
O257   O     0.07071   0.52211   0.28213   0.00000  Uiso   1.00
O258   O     0.25491   0.48559   0.27013   0.00000  Uiso   1.00
O259   O     0.13760   0.40277   0.23413   0.00000  Uiso   1.00
O260   O     0.20345   0.58953   0.21360   0.00000  Uiso   1.00
Zn261  Zn    0.19338   0.47327   0.28734   0.00000  Uiso   1.00
Zn262  Zn    0.13379   0.45791   0.21875   0.00000  Uiso   1.00
Zn263  Zn    0.21056   0.53109   0.20657   0.00000  Uiso   1.00
Zn264  Zn    0.12893   0.53773   0.28733   0.00000  Uiso   1.00
C265   C     0.38610   0.49306   0.26007   0.00000  Uiso   1.00
C266   C     0.50281   0.49130   0.05972   0.00000  Uiso   1.00
C267   C     0.56562   0.45697   0.05599   0.00000  Uiso   1.00
C268   C     0.61418   0.50715   0.23995   0.00000  Uiso   1.00
C269   C     0.47447   0.52548   0.42009   0.00000  Uiso   1.00
C270   C     0.66011   0.50973   0.23569   0.00000  Uiso   1.00
C271   C     0.34077   0.49081   0.26417   0.00000  Uiso   1.00
C272   C     0.51384   0.65585   0.23621   0.00000  Uiso   1.00
C273   C     0.48554   0.34513   0.26407   0.00000  Uiso   1.00
C274   C     0.48963   0.38922   0.26018   0.00000  Uiso   1.00
C275   C     0.50997   0.61129   0.24010   0.00000  Uiso   1.00
C276   C     0.42255   0.53936   0.49035   0.00000  Uiso   1.00
C277   C     0.51903   0.48152   0.12940   0.00000  Uiso   1.00
C278   C     0.48285   0.51879   0.37084   0.00000  Uiso   1.00
C279   C     0.57831   0.45942   0.00903   0.00000  Uiso   1.00
C280   C     0.52866   0.47478   0.08089   0.00000  Uiso   1.00
C281   C     0.43542   0.53949   0.44406   0.00000  Uiso   1.00
C282   C     0.59021   0.43491   0.07868   0.00000  Uiso   1.00
C283   C     0.61760   0.44149   0.48205   0.00000  Uiso   1.00
C284   C     0.61407   0.40726   0.45104   0.00000  Uiso   1.00
C285   C     0.65085   0.39022   0.42571   0.00000  Uiso   1.00
C286   C     0.35799   0.40705   0.43131   0.00000  Uiso   1.00
C287   C     0.44759   0.52404   0.01350   0.00000  Uiso   1.00
C288   C     0.36175   0.44098   0.46222   0.00000  Uiso   1.00
C289   C     0.65841   0.45834   0.48742   0.00000  Uiso   1.00
C290   C     0.48793   0.51068   0.49084   0.00000  Uiso   1.00
C291   C     0.50238   0.51394   0.44379   0.00000  Uiso   1.00
C292   C     0.51416   0.49373   0.01314   0.00000  Uiso   1.00
C293   C     0.55372   0.47971   0.48807   0.00000  Uiso   1.00
C294   C     0.56908   0.48813   0.44290   0.00000  Uiso   1.00
C295   C     0.54455   0.50609   0.42169   0.00000  Uiso   1.00
H296   H     0.65226   0.47371   0.29109   0.00000  Uiso   1.00
H297   H     0.34928   0.52703   0.20927   0.00000  Uiso   1.00
H298   H     0.61939   0.38423   0.07877   0.00000  Uiso   1.00
H299   H     0.58284   0.39385   0.44657   0.00000  Uiso   1.00
H300   H     0.64797   0.36389   0.40181   0.00000  Uiso   1.00
H301   H     0.38643   0.39375   0.41177   0.00000  Uiso   1.00
H302   H     0.39311   0.45369   0.46668   0.00000  Uiso   1.00
H303   H     0.66172   0.48472   0.01118   0.00000  Uiso   1.00
H304   H     0.53995   0.33704   0.21049   0.00000  Uiso   1.00
H305   H     0.45919   0.66474   0.29005   0.00000  Uiso   1.00
H306   H     0.60075   0.48169   0.42351   0.00000  Uiso   1.00
H307   H     0.47510   0.50415   0.08116   0.00000  Uiso   1.00
H308   H     0.41379   0.54897   0.42685   0.00000  Uiso   1.00
H309   H     0.43404   0.52284   0.04901   0.00000  Uiso   1.00
H310   H     0.39191   0.54950   0.00834   0.00000  Uiso   1.00
H311   H     0.55964   0.51416   0.38776   0.00000  Uiso   1.00
O312   O     0.50000   0.50000   0.25000   0.00000  Uiso   1.00
O313   O     0.48784   0.45970   0.15458   0.00000  Uiso   1.00
O314   O     0.46274   0.53724   0.34968   0.00000  Uiso   1.00
O315   O     0.54157   0.51092   0.14606   0.00000  Uiso   1.00
O316   O     0.50785   0.49213   0.34968   0.00000  Uiso   1.00
O317   O     0.59959   0.45058   0.11291   0.00000  Uiso   1.00
O318   O     0.60270   0.39602   0.06064   0.00000  Uiso   1.00
O319   O     0.51264   0.41352   0.28213   0.00000  Uiso   1.00
O320   O     0.47965   0.59418   0.27013   0.00000  Uiso   1.00
O321   O     0.40745   0.46625   0.23413   0.00000  Uiso   1.00
O322   O     0.60026   0.52605   0.21360   0.00000  Uiso   1.00
O323   O     0.40405   0.52211   0.28213   0.00000  Uiso   1.00
O324   O     0.58824   0.48559   0.27013   0.00000  Uiso   1.00
O325   O     0.47093   0.40277   0.23413   0.00000  Uiso   1.00
O326   O     0.53678   0.58953   0.21360   0.00000  Uiso   1.00
Zn327  Zn    0.52672   0.47327   0.28734   0.00000  Uiso   1.00
Zn328  Zn    0.46713   0.45791   0.21875   0.00000  Uiso   1.00
Zn329  Zn    0.54389   0.53109   0.20657   0.00000  Uiso   1.00
Zn330  Zn    0.46226   0.53773   0.28733   0.00000  Uiso   1.00
C331   C     0.71943   0.49306   0.26007   0.00000  Uiso   1.00
C332   C     0.83614   0.49130   0.05972   0.00000  Uiso   1.00
C333   C     0.89895   0.45697   0.05599   0.00000  Uiso   1.00
C334   C     0.94751   0.50715   0.23995   0.00000  Uiso   1.00
C335   C     0.80781   0.52548   0.42009   0.00000  Uiso   1.00
C336   C     0.99344   0.50973   0.23569   0.00000  Uiso   1.00
C337   C     0.67411   0.49081   0.26417   0.00000  Uiso   1.00
C338   C     0.84718   0.65585   0.23621   0.00000  Uiso   1.00
C339   C     0.81887   0.34513   0.26407   0.00000  Uiso   1.00
C340   C     0.82296   0.38922   0.26018   0.00000  Uiso   1.00
C341   C     0.84330   0.61129   0.24010   0.00000  Uiso   1.00
C342   C     0.75588   0.53936   0.49035   0.00000  Uiso   1.00
C343   C     0.85237   0.48152   0.12940   0.00000  Uiso   1.00
C344   C     0.81618   0.51879   0.37084   0.00000  Uiso   1.00
C345   C     0.91164   0.45942   0.00903   0.00000  Uiso   1.00
C346   C     0.86199   0.47478   0.08089   0.00000  Uiso   1.00
C347   C     0.76875   0.53949   0.44406   0.00000  Uiso   1.00
C348   C     0.92355   0.43491   0.07868   0.00000  Uiso   1.00
C349   C     0.95093   0.44149   0.48205   0.00000  Uiso   1.00
C350   C     0.94740   0.40726   0.45104   0.00000  Uiso   1.00
C351   C     0.98419   0.39022   0.42571   0.00000  Uiso   1.00
C352   C     0.69132   0.40705   0.43131   0.00000  Uiso   1.00
C353   C     0.78092   0.52404   0.01350   0.00000  Uiso   1.00
C354   C     0.69509   0.44098   0.46222   0.00000  Uiso   1.00
C355   C     0.99175   0.45834   0.48742   0.00000  Uiso   1.00
C356   C     0.82126   0.51068   0.49084   0.00000  Uiso   1.00
C357   C     0.83572   0.51394   0.44379   0.00000  Uiso   1.00
C358   C     0.84749   0.49373   0.01314   0.00000  Uiso   1.00
C359   C     0.88706   0.47971   0.48807   0.00000  Uiso   1.00
C360   C     0.90242   0.48813   0.44290   0.00000  Uiso   1.00
C361   C     0.87789   0.50609   0.42169   0.00000  Uiso   1.00
H362   H     0.98559   0.47371   0.29109   0.00000  Uiso   1.00
H363   H     0.68261   0.52703   0.20927   0.00000  Uiso   1.00
H364   H     0.95272   0.38423   0.07877   0.00000  Uiso   1.00
H365   H     0.91617   0.39385   0.44657   0.00000  Uiso   1.00
H366   H     0.98131   0.36389   0.40181   0.00000  Uiso   1.00
H367   H     0.71977   0.39375   0.41177   0.00000  Uiso   1.00
H368   H     0.72644   0.45369   0.46668   0.00000  Uiso   1.00
H369   H     0.99505   0.48472   0.01118   0.00000  Uiso   1.00
H370   H     0.87328   0.33704   0.21049   0.00000  Uiso   1.00
H371   H     0.79253   0.66474   0.29005   0.00000  Uiso   1.00
H372   H     0.93408   0.48169   0.42351   0.00000  Uiso   1.00
H373   H     0.80843   0.50415   0.08116   0.00000  Uiso   1.00
H374   H     0.74712   0.54897   0.42685   0.00000  Uiso   1.00
H375   H     0.76738   0.52284   0.04901   0.00000  Uiso   1.00
H376   H     0.72524   0.54950   0.00834   0.00000  Uiso   1.00
H377   H     0.89297   0.51416   0.38776   0.00000  Uiso   1.00
O378   O     0.83333   0.50000   0.25000   0.00000  Uiso   1.00
O379   O     0.82118   0.45970   0.15458   0.00000  Uiso   1.00
O380   O     0.79607   0.53724   0.34968   0.00000  Uiso   1.00
O381   O     0.87491   0.51092   0.14606   0.00000  Uiso   1.00
O382   O     0.84118   0.49213   0.34968   0.00000  Uiso   1.00
O383   O     0.93292   0.45058   0.11291   0.00000  Uiso   1.00
O384   O     0.93604   0.39602   0.06064   0.00000  Uiso   1.00
O385   O     0.84597   0.41352   0.28213   0.00000  Uiso   1.00
O386   O     0.81298   0.59418   0.27013   0.00000  Uiso   1.00
O387   O     0.74078   0.46625   0.23413   0.00000  Uiso   1.00
O388   O     0.93360   0.52605   0.21360   0.00000  Uiso   1.00
O389   O     0.73738   0.52211   0.28213   0.00000  Uiso   1.00
O390   O     0.92158   0.48559   0.27013   0.00000  Uiso   1.00
O391   O     0.80426   0.40277   0.23413   0.00000  Uiso   1.00
O392   O     0.87012   0.58953   0.21360   0.00000  Uiso   1.00
Zn393  Zn    0.86005   0.47327   0.28734   0.00000  Uiso   1.00
Zn394  Zn    0.80046   0.45791   0.21875   0.00000  Uiso   1.00
Zn395  Zn    0.87723   0.53109   0.20657   0.00000  Uiso   1.00
Zn396  Zn    0.79560   0.53773   0.28733   0.00000  Uiso   1.00
C397   C     0.05277   0.82639   0.26007   0.00000  Uiso   1.00
C398   C     0.16948   0.82464   0.05972   0.00000  Uiso   1.00
C399   C     0.23229   0.79030   0.05599   0.00000  Uiso   1.00
C400   C     0.28085   0.84049   0.23995   0.00000  Uiso   1.00
C401   C     0.14114   0.85882   0.42009   0.00000  Uiso   1.00
C402   C     0.32677   0.84307   0.23569   0.00000  Uiso   1.00
C403   C     0.00744   0.82414   0.26417   0.00000  Uiso   1.00
C404   C     0.18051   0.98918   0.23621   0.00000  Uiso   1.00
C405   C     0.15220   0.67847   0.26407   0.00000  Uiso   1.00
C406   C     0.15630   0.72256   0.26018   0.00000  Uiso   1.00
C407   C     0.17664   0.94462   0.24010   0.00000  Uiso   1.00
C408   C     0.08922   0.87269   0.49035   0.00000  Uiso   1.00
C409   C     0.18570   0.81485   0.12940   0.00000  Uiso   1.00
C410   C     0.14952   0.85213   0.37084   0.00000  Uiso   1.00
C411   C     0.24497   0.79275   0.00903   0.00000  Uiso   1.00
C412   C     0.19533   0.80812   0.08089   0.00000  Uiso   1.00
C413   C     0.10209   0.87282   0.44406   0.00000  Uiso   1.00
C414   C     0.25688   0.76824   0.07868   0.00000  Uiso   1.00
C415   C     0.28427   0.77482   0.48205   0.00000  Uiso   1.00
C416   C     0.28073   0.74059   0.45104   0.00000  Uiso   1.00
C417   C     0.31752   0.72355   0.42571   0.00000  Uiso   1.00
C418   C     0.02466   0.74039   0.43131   0.00000  Uiso   1.00
C419   C     0.11426   0.85737   0.01350   0.00000  Uiso   1.00
C420   C     0.02842   0.77431   0.46222   0.00000  Uiso   1.00
C421   C     0.32508   0.79167   0.48742   0.00000  Uiso   1.00
C422   C     0.15460   0.84401   0.49084   0.00000  Uiso   1.00
C423   C     0.16905   0.84727   0.44379   0.00000  Uiso   1.00
C424   C     0.18083   0.82707   0.01314   0.00000  Uiso   1.00
C425   C     0.22039   0.81304   0.48807   0.00000  Uiso   1.00
C426   C     0.23575   0.82146   0.44290   0.00000  Uiso   1.00
C427   C     0.21122   0.83942   0.42169   0.00000  Uiso   1.00
H428   H     0.31892   0.80705   0.29109   0.00000  Uiso   1.00
H429   H     0.01595   0.86036   0.20927   0.00000  Uiso   1.00
H430   H     0.28606   0.71756   0.07877   0.00000  Uiso   1.00
H431   H     0.24951   0.72718   0.44657   0.00000  Uiso   1.00
H432   H     0.31464   0.69723   0.40181   0.00000  Uiso   1.00
H433   H     0.05310   0.72709   0.41177   0.00000  Uiso   1.00
H434   H     0.05978   0.78702   0.46668   0.00000  Uiso   1.00
H435   H     0.32839   0.81805   0.01118   0.00000  Uiso   1.00
H436   H     0.20662   0.67037   0.21049   0.00000  Uiso   1.00
H437   H     0.12586   0.99807   0.29005   0.00000  Uiso   1.00
H438   H     0.26742   0.81502   0.42351   0.00000  Uiso   1.00
H439   H     0.14176   0.83748   0.08116   0.00000  Uiso   1.00
H440   H     0.08046   0.88230   0.42685   0.00000  Uiso   1.00
H441   H     0.10071   0.85618   0.04901   0.00000  Uiso   1.00
H442   H     0.05858   0.88283   0.00834   0.00000  Uiso   1.00
H443   H     0.22631   0.84749   0.38776   0.00000  Uiso   1.00
O444   O     0.16667   0.83333   0.25000   0.00000  Uiso   1.00
O445   O     0.15451   0.79304   0.15458   0.00000  Uiso   1.00
O446   O     0.12940   0.87058   0.34968   0.00000  Uiso   1.00
O447   O     0.20824   0.84425   0.14606   0.00000  Uiso   1.00
O448   O     0.17451   0.82546   0.34968   0.00000  Uiso   1.00
O449   O     0.26625   0.78391   0.11291   0.00000  Uiso   1.00
O450   O     0.26937   0.72936   0.06064   0.00000  Uiso   1.00
O451   O     0.17930   0.74686   0.28213   0.00000  Uiso   1.00
O452   O     0.14632   0.92751   0.27013   0.00000  Uiso   1.00
O453   O     0.07412   0.79958   0.23413   0.00000  Uiso   1.00
O454   O     0.26693   0.85939   0.21360   0.00000  Uiso   1.00
O455   O     0.07071   0.85544   0.28213   0.00000  Uiso   1.00
O456   O     0.25491   0.81892   0.27013   0.00000  Uiso   1.00
O457   O     0.13760   0.73610   0.23413   0.00000  Uiso   1.00
O458   O     0.20345   0.92286   0.21360   0.00000  Uiso   1.00
Zn459  Zn    0.19338   0.80661   0.28734   0.00000  Uiso   1.00
Zn460  Zn    0.13379   0.79124   0.21875   0.00000  Uiso   1.00
Zn461  Zn    0.21056   0.86442   0.20657   0.00000  Uiso   1.00
Zn462  Zn    0.12893   0.87106   0.28733   0.00000  Uiso   1.00
C463   C     0.38610   0.82639   0.26007   0.00000  Uiso   1.00
C464   C     0.50281   0.82464   0.05972   0.00000  Uiso   1.00
C465   C     0.56562   0.79030   0.05599   0.00000  Uiso   1.00
C466   C     0.61418   0.84049   0.23995   0.00000  Uiso   1.00
C467   C     0.47447   0.85882   0.42009   0.00000  Uiso   1.00
C468   C     0.66011   0.84307   0.23569   0.00000  Uiso   1.00
C469   C     0.34077   0.82414   0.26417   0.00000  Uiso   1.00
C470   C     0.51384   0.98918   0.23621   0.00000  Uiso   1.00
C471   C     0.48554   0.67847   0.26407   0.00000  Uiso   1.00
C472   C     0.48963   0.72256   0.26018   0.00000  Uiso   1.00
C473   C     0.50997   0.94462   0.24010   0.00000  Uiso   1.00
C474   C     0.42255   0.87269   0.49035   0.00000  Uiso   1.00
C475   C     0.51903   0.81485   0.12940   0.00000  Uiso   1.00
C476   C     0.48285   0.85213   0.37084   0.00000  Uiso   1.00
C477   C     0.57831   0.79275   0.00903   0.00000  Uiso   1.00
C478   C     0.52866   0.80812   0.08089   0.00000  Uiso   1.00
C479   C     0.43542   0.87282   0.44406   0.00000  Uiso   1.00
C480   C     0.59021   0.76824   0.07868   0.00000  Uiso   1.00
C481   C     0.61760   0.77482   0.48205   0.00000  Uiso   1.00
C482   C     0.61407   0.74059   0.45104   0.00000  Uiso   1.00
C483   C     0.65085   0.72355   0.42571   0.00000  Uiso   1.00
C484   C     0.35799   0.74039   0.43131   0.00000  Uiso   1.00
C485   C     0.44759   0.85737   0.01350   0.00000  Uiso   1.00
C486   C     0.36175   0.77431   0.46222   0.00000  Uiso   1.00
C487   C     0.65841   0.79167   0.48742   0.00000  Uiso   1.00
C488   C     0.48793   0.84401   0.49084   0.00000  Uiso   1.00
C489   C     0.50238   0.84727   0.44379   0.00000  Uiso   1.00
C490   C     0.51416   0.82707   0.01314   0.00000  Uiso   1.00
C491   C     0.55372   0.81304   0.48807   0.00000  Uiso   1.00
C492   C     0.56908   0.82146   0.44290   0.00000  Uiso   1.00
C493   C     0.54455   0.83942   0.42169   0.00000  Uiso   1.00
H494   H     0.65226   0.80705   0.29109   0.00000  Uiso   1.00
H495   H     0.34928   0.86036   0.20927   0.00000  Uiso   1.00
H496   H     0.61939   0.71756   0.07877   0.00000  Uiso   1.00
H497   H     0.58284   0.72718   0.44657   0.00000  Uiso   1.00
H498   H     0.64797   0.69723   0.40181   0.00000  Uiso   1.00
H499   H     0.38643   0.72709   0.41177   0.00000  Uiso   1.00
H500   H     0.39311   0.78702   0.46668   0.00000  Uiso   1.00
H501   H     0.66172   0.81805   0.01118   0.00000  Uiso   1.00
H502   H     0.53995   0.67037   0.21049   0.00000  Uiso   1.00
H503   H     0.45919   0.99807   0.29005   0.00000  Uiso   1.00
H504   H     0.60075   0.81502   0.42351   0.00000  Uiso   1.00
H505   H     0.47510   0.83748   0.08116   0.00000  Uiso   1.00
H506   H     0.41379   0.88230   0.42685   0.00000  Uiso   1.00
H507   H     0.43404   0.85618   0.04901   0.00000  Uiso   1.00
H508   H     0.39191   0.88283   0.00834   0.00000  Uiso   1.00
H509   H     0.55964   0.84749   0.38776   0.00000  Uiso   1.00
O510   O     0.50000   0.83333   0.25000   0.00000  Uiso   1.00
O511   O     0.48784   0.79304   0.15458   0.00000  Uiso   1.00
O512   O     0.46274   0.87058   0.34968   0.00000  Uiso   1.00
O513   O     0.54157   0.84425   0.14606   0.00000  Uiso   1.00
O514   O     0.50785   0.82546   0.34968   0.00000  Uiso   1.00
O515   O     0.59959   0.78391   0.11291   0.00000  Uiso   1.00
O516   O     0.60270   0.72936   0.06064   0.00000  Uiso   1.00
O517   O     0.51264   0.74686   0.28213   0.00000  Uiso   1.00
O518   O     0.47965   0.92751   0.27013   0.00000  Uiso   1.00
O519   O     0.40745   0.79958   0.23413   0.00000  Uiso   1.00
O520   O     0.60026   0.85939   0.21360   0.00000  Uiso   1.00
O521   O     0.40405   0.85544   0.28213   0.00000  Uiso   1.00
O522   O     0.58824   0.81892   0.27013   0.00000  Uiso   1.00
O523   O     0.47093   0.73610   0.23413   0.00000  Uiso   1.00
O524   O     0.53678   0.92286   0.21360   0.00000  Uiso   1.00
Zn525  Zn    0.52672   0.80661   0.28734   0.00000  Uiso   1.00
Zn526  Zn    0.46713   0.79124   0.21875   0.00000  Uiso   1.00
Zn527  Zn    0.54389   0.86442   0.20657   0.00000  Uiso   1.00
Zn528  Zn    0.46226   0.87106   0.28733   0.00000  Uiso   1.00
C529   C     0.71943   0.82639   0.26007   0.00000  Uiso   1.00
C530   C     0.83614   0.82464   0.05972   0.00000  Uiso   1.00
C531   C     0.89895   0.79030   0.05599   0.00000  Uiso   1.00
C532   C     0.94751   0.84049   0.23995   0.00000  Uiso   1.00
C533   C     0.80781   0.85882   0.42009   0.00000  Uiso   1.00
C534   C     0.99344   0.84307   0.23569   0.00000  Uiso   1.00
C535   C     0.67411   0.82414   0.26417   0.00000  Uiso   1.00
C536   C     0.84718   0.98918   0.23621   0.00000  Uiso   1.00
C537   C     0.81887   0.67847   0.26407   0.00000  Uiso   1.00
C538   C     0.82296   0.72256   0.26018   0.00000  Uiso   1.00
C539   C     0.84330   0.94462   0.24010   0.00000  Uiso   1.00
C540   C     0.75588   0.87269   0.49035   0.00000  Uiso   1.00
C541   C     0.85237   0.81485   0.12940   0.00000  Uiso   1.00
C542   C     0.81618   0.85213   0.37084   0.00000  Uiso   1.00
C543   C     0.91164   0.79275   0.00903   0.00000  Uiso   1.00
C544   C     0.86199   0.80812   0.08089   0.00000  Uiso   1.00
C545   C     0.76875   0.87282   0.44406   0.00000  Uiso   1.00
C546   C     0.92355   0.76824   0.07868   0.00000  Uiso   1.00
C547   C     0.95093   0.77482   0.48205   0.00000  Uiso   1.00
C548   C     0.94740   0.74059   0.45104   0.00000  Uiso   1.00
C549   C     0.98419   0.72355   0.42571   0.00000  Uiso   1.00
C550   C     0.69132   0.74039   0.43131   0.00000  Uiso   1.00
C551   C     0.78092   0.85737   0.01350   0.00000  Uiso   1.00
C552   C     0.69509   0.77431   0.46222   0.00000  Uiso   1.00
C553   C     0.99175   0.79167   0.48742   0.00000  Uiso   1.00
C554   C     0.82126   0.84401   0.49084   0.00000  Uiso   1.00
C555   C     0.83572   0.84727   0.44379   0.00000  Uiso   1.00
C556   C     0.84749   0.82707   0.01314   0.00000  Uiso   1.00
C557   C     0.88706   0.81304   0.48807   0.00000  Uiso   1.00
C558   C     0.90242   0.82146   0.44290   0.00000  Uiso   1.00
C559   C     0.87789   0.83942   0.42169   0.00000  Uiso   1.00
H560   H     0.98559   0.80705   0.29109   0.00000  Uiso   1.00
H561   H     0.68261   0.86036   0.20927   0.00000  Uiso   1.00
H562   H     0.95272   0.71756   0.07877   0.00000  Uiso   1.00
H563   H     0.91617   0.72718   0.44657   0.00000  Uiso   1.00
H564   H     0.98131   0.69723   0.40181   0.00000  Uiso   1.00
H565   H     0.71977   0.72709   0.41177   0.00000  Uiso   1.00
H566   H     0.72644   0.78702   0.46668   0.00000  Uiso   1.00
H567   H     0.99505   0.81805   0.01118   0.00000  Uiso   1.00
H568   H     0.87328   0.67037   0.21049   0.00000  Uiso   1.00
H569   H     0.79253   0.99807   0.29005   0.00000  Uiso   1.00
H570   H     0.93408   0.81502   0.42351   0.00000  Uiso   1.00
H571   H     0.80843   0.83748   0.08116   0.00000  Uiso   1.00
H572   H     0.74712   0.88230   0.42685   0.00000  Uiso   1.00
H573   H     0.76738   0.85618   0.04901   0.00000  Uiso   1.00
H574   H     0.72524   0.88283   0.00834   0.00000  Uiso   1.00
H575   H     0.89297   0.84749   0.38776   0.00000  Uiso   1.00
O576   O     0.83333   0.83333   0.25000   0.00000  Uiso   1.00
O577   O     0.82118   0.79304   0.15458   0.00000  Uiso   1.00
O578   O     0.79607   0.87058   0.34968   0.00000  Uiso   1.00
O579   O     0.87491   0.84425   0.14606   0.00000  Uiso   1.00
O580   O     0.84118   0.82546   0.34968   0.00000  Uiso   1.00
O581   O     0.93292   0.78391   0.11291   0.00000  Uiso   1.00
O582   O     0.93604   0.72936   0.06064   0.00000  Uiso   1.00
O583   O     0.84597   0.74686   0.28213   0.00000  Uiso   1.00
O584   O     0.81298   0.92751   0.27013   0.00000  Uiso   1.00
O585   O     0.74078   0.79958   0.23413   0.00000  Uiso   1.00
O586   O     0.93360   0.85939   0.21360   0.00000  Uiso   1.00
O587   O     0.73738   0.85544   0.28213   0.00000  Uiso   1.00
O588   O     0.92158   0.81892   0.27013   0.00000  Uiso   1.00
O589   O     0.80426   0.73610   0.23413   0.00000  Uiso   1.00
O590   O     0.87012   0.92286   0.21360   0.00000  Uiso   1.00
Zn591  Zn    0.86005   0.80661   0.28734   0.00000  Uiso   1.00
Zn592  Zn    0.80046   0.79124   0.21875   0.00000  Uiso   1.00
Zn593  Zn    0.87723   0.86442   0.20657   0.00000  Uiso   1.00
Zn594  Zn    0.79560   0.87106   0.28733   0.00000  Uiso   1.00
C595   C     0.05277   0.15972   0.76007   0.00000  Uiso   1.00
C596   C     0.16948   0.15797   0.55972   0.00000  Uiso   1.00
C597   C     0.23229   0.12363   0.55599   0.00000  Uiso   1.00
C598   C     0.28085   0.17382   0.73995   0.00000  Uiso   1.00
C599   C     0.14114   0.19215   0.92009   0.00000  Uiso   1.00
C600   C     0.32677   0.17640   0.73569   0.00000  Uiso   1.00
C601   C     0.00744   0.15748   0.76417   0.00000  Uiso   1.00
C602   C     0.18051   0.32252   0.73621   0.00000  Uiso   1.00
C603   C     0.15220   0.01180   0.76407   0.00000  Uiso   1.00
C604   C     0.15630   0.05589   0.76018   0.00000  Uiso   1.00
C605   C     0.17664   0.27795   0.74010   0.00000  Uiso   1.00
C606   C     0.08922   0.20603   0.99035   0.00000  Uiso   1.00
C607   C     0.18570   0.14819   0.62940   0.00000  Uiso   1.00
C608   C     0.14952   0.18546   0.87084   0.00000  Uiso   1.00
C609   C     0.24497   0.12609   0.50903   0.00000  Uiso   1.00
C610   C     0.19533   0.14145   0.58089   0.00000  Uiso   1.00
C611   C     0.10209   0.20616   0.94406   0.00000  Uiso   1.00
C612   C     0.25688   0.10157   0.57868   0.00000  Uiso   1.00
C613   C     0.28427   0.10816   0.98205   0.00000  Uiso   1.00
C614   C     0.28073   0.07393   0.95104   0.00000  Uiso   1.00
C615   C     0.31752   0.05689   0.92571   0.00000  Uiso   1.00
C616   C     0.02466   0.07372   0.93131   0.00000  Uiso   1.00
C617   C     0.11426   0.19070   0.51350   0.00000  Uiso   1.00
C618   C     0.02842   0.10765   0.96222   0.00000  Uiso   1.00
C619   C     0.32508   0.12501   0.98742   0.00000  Uiso   1.00
C620   C     0.15460   0.17734   0.99084   0.00000  Uiso   1.00
C621   C     0.16905   0.18060   0.94379   0.00000  Uiso   1.00
C622   C     0.18083   0.16040   0.51314   0.00000  Uiso   1.00
C623   C     0.22039   0.14638   0.98807   0.00000  Uiso   1.00
C624   C     0.23575   0.15479   0.94290   0.00000  Uiso   1.00
C625   C     0.21122   0.17275   0.92169   0.00000  Uiso   1.00
H626   H     0.31892   0.14038   0.79109   0.00000  Uiso   1.00
H627   H     0.01595   0.19370   0.70927   0.00000  Uiso   1.00
H628   H     0.28606   0.05090   0.57877   0.00000  Uiso   1.00
H629   H     0.24951   0.06051   0.94657   0.00000  Uiso   1.00
H630   H     0.31464   0.03056   0.90181   0.00000  Uiso   1.00
H631   H     0.05310   0.06042   0.91177   0.00000  Uiso   1.00
H632   H     0.05978   0.12036   0.96668   0.00000  Uiso   1.00
H633   H     0.32839   0.15139   0.51118   0.00000  Uiso   1.00
H634   H     0.20662   0.00370   0.71049   0.00000  Uiso   1.00
H635   H     0.12586   0.33141   0.79005   0.00000  Uiso   1.00
H636   H     0.26742   0.14835   0.92351   0.00000  Uiso   1.00
H637   H     0.14176   0.17081   0.58116   0.00000  Uiso   1.00
H638   H     0.08046   0.21563   0.92685   0.00000  Uiso   1.00
H639   H     0.10071   0.18951   0.54901   0.00000  Uiso   1.00
H640   H     0.05858   0.21617   0.50834   0.00000  Uiso   1.00
H641   H     0.22631   0.18082   0.88776   0.00000  Uiso   1.00
O642   O     0.16667   0.16667   0.75000   0.00000  Uiso   1.00
O643   O     0.15451   0.12637   0.65458   0.00000  Uiso   1.00
O644   O     0.12940   0.20391   0.84968   0.00000  Uiso   1.00
O645   O     0.20824   0.17759   0.64606   0.00000  Uiso   1.00
O646   O     0.17451   0.15880   0.84968   0.00000  Uiso   1.00
O647   O     0.26625   0.11724   0.61291   0.00000  Uiso   1.00
O648   O     0.26937   0.06269   0.56064   0.00000  Uiso   1.00
O649   O     0.17930   0.08019   0.78213   0.00000  Uiso   1.00
O650   O     0.14632   0.26085   0.77013   0.00000  Uiso   1.00
O651   O     0.07412   0.13291   0.73413   0.00000  Uiso   1.00
O652   O     0.26693   0.19272   0.71360   0.00000  Uiso   1.00
O653   O     0.07071   0.18878   0.78213   0.00000  Uiso   1.00
O654   O     0.25491   0.15226   0.77013   0.00000  Uiso   1.00
O655   O     0.13760   0.06944   0.73413   0.00000  Uiso   1.00
O656   O     0.20345   0.25620   0.71360   0.00000  Uiso   1.00
Zn657  Zn    0.19338   0.13994   0.78734   0.00000  Uiso   1.00
Zn658  Zn    0.13379   0.12458   0.71875   0.00000  Uiso   1.00
Zn659  Zn    0.21056   0.19775   0.70657   0.00000  Uiso   1.00
Zn660  Zn    0.12893   0.20439   0.78733   0.00000  Uiso   1.00
C661   C     0.38610   0.15972   0.76007   0.00000  Uiso   1.00
C662   C     0.50281   0.15797   0.55972   0.00000  Uiso   1.00
C663   C     0.56562   0.12363   0.55599   0.00000  Uiso   1.00
C664   C     0.61418   0.17382   0.73995   0.00000  Uiso   1.00
C665   C     0.47447   0.19215   0.92009   0.00000  Uiso   1.00
C666   C     0.66011   0.17640   0.73569   0.00000  Uiso   1.00
C667   C     0.34077   0.15748   0.76417   0.00000  Uiso   1.00
C668   C     0.51384   0.32252   0.73621   0.00000  Uiso   1.00
C669   C     0.48554   0.01180   0.76407   0.00000  Uiso   1.00
C670   C     0.48963   0.05589   0.76018   0.00000  Uiso   1.00
C671   C     0.50997   0.27795   0.74010   0.00000  Uiso   1.00
C672   C     0.42255   0.20603   0.99035   0.00000  Uiso   1.00
C673   C     0.51903   0.14819   0.62940   0.00000  Uiso   1.00
C674   C     0.48285   0.18546   0.87084   0.00000  Uiso   1.00
C675   C     0.57831   0.12609   0.50903   0.00000  Uiso   1.00
C676   C     0.52866   0.14145   0.58089   0.00000  Uiso   1.00
C677   C     0.43542   0.20616   0.94406   0.00000  Uiso   1.00
C678   C     0.59021   0.10157   0.57868   0.00000  Uiso   1.00
C679   C     0.61760   0.10816   0.98205   0.00000  Uiso   1.00
C680   C     0.61407   0.07393   0.95104   0.00000  Uiso   1.00
C681   C     0.65085   0.05689   0.92571   0.00000  Uiso   1.00
C682   C     0.35799   0.07372   0.93131   0.00000  Uiso   1.00
C683   C     0.44759   0.19070   0.51350   0.00000  Uiso   1.00
C684   C     0.36175   0.10765   0.96222   0.00000  Uiso   1.00
C685   C     0.65841   0.12501   0.98742   0.00000  Uiso   1.00
C686   C     0.48793   0.17734   0.99084   0.00000  Uiso   1.00
C687   C     0.50238   0.18060   0.94379   0.00000  Uiso   1.00
C688   C     0.51416   0.16040   0.51314   0.00000  Uiso   1.00
C689   C     0.55372   0.14638   0.98807   0.00000  Uiso   1.00
C690   C     0.56908   0.15479   0.94290   0.00000  Uiso   1.00
C691   C     0.54455   0.17275   0.92169   0.00000  Uiso   1.00
H692   H     0.65226   0.14038   0.79109   0.00000  Uiso   1.00
H693   H     0.34928   0.19370   0.70927   0.00000  Uiso   1.00
H694   H     0.61939   0.05090   0.57877   0.00000  Uiso   1.00
H695   H     0.58284   0.06051   0.94657   0.00000  Uiso   1.00
H696   H     0.64797   0.03056   0.90181   0.00000  Uiso   1.00
H697   H     0.38643   0.06042   0.91177   0.00000  Uiso   1.00
H698   H     0.39311   0.12036   0.96668   0.00000  Uiso   1.00
H699   H     0.66172   0.15139   0.51118   0.00000  Uiso   1.00
H700   H     0.53995   0.00370   0.71049   0.00000  Uiso   1.00
H701   H     0.45919   0.33141   0.79005   0.00000  Uiso   1.00
H702   H     0.60075   0.14835   0.92351   0.00000  Uiso   1.00
H703   H     0.47510   0.17081   0.58116   0.00000  Uiso   1.00
H704   H     0.41379   0.21563   0.92685   0.00000  Uiso   1.00
H705   H     0.43404   0.18951   0.54901   0.00000  Uiso   1.00
H706   H     0.39191   0.21617   0.50834   0.00000  Uiso   1.00
H707   H     0.55964   0.18082   0.88776   0.00000  Uiso   1.00
O708   O     0.50000   0.16667   0.75000   0.00000  Uiso   1.00
O709   O     0.48784   0.12637   0.65458   0.00000  Uiso   1.00
O710   O     0.46274   0.20391   0.84968   0.00000  Uiso   1.00
O711   O     0.54157   0.17759   0.64606   0.00000  Uiso   1.00
O712   O     0.50785   0.15880   0.84968   0.00000  Uiso   1.00
O713   O     0.59959   0.11724   0.61291   0.00000  Uiso   1.00
O714   O     0.60270   0.06269   0.56064   0.00000  Uiso   1.00
O715   O     0.51264   0.08019   0.78213   0.00000  Uiso   1.00
O716   O     0.47965   0.26085   0.77013   0.00000  Uiso   1.00
O717   O     0.40745   0.13291   0.73413   0.00000  Uiso   1.00
O718   O     0.60026   0.19272   0.71360   0.00000  Uiso   1.00
O719   O     0.40405   0.18878   0.78213   0.00000  Uiso   1.00
O720   O     0.58824   0.15226   0.77013   0.00000  Uiso   1.00
O721   O     0.47093   0.06944   0.73413   0.00000  Uiso   1.00
O722   O     0.53678   0.25620   0.71360   0.00000  Uiso   1.00
Zn723  Zn    0.52672   0.13994   0.78734   0.00000  Uiso   1.00
Zn724  Zn    0.46713   0.12458   0.71875   0.00000  Uiso   1.00
Zn725  Zn    0.54389   0.19775   0.70657   0.00000  Uiso   1.00
Zn726  Zn    0.46226   0.20439   0.78733   0.00000  Uiso   1.00
C727   C     0.71943   0.15972   0.76007   0.00000  Uiso   1.00
C728   C     0.83614   0.15797   0.55972   0.00000  Uiso   1.00
C729   C     0.89895   0.12363   0.55599   0.00000  Uiso   1.00
C730   C     0.94751   0.17382   0.73995   0.00000  Uiso   1.00
C731   C     0.80781   0.19215   0.92009   0.00000  Uiso   1.00
C732   C     0.99344   0.17640   0.73569   0.00000  Uiso   1.00
C733   C     0.67411   0.15748   0.76417   0.00000  Uiso   1.00
C734   C     0.84718   0.32252   0.73621   0.00000  Uiso   1.00
C735   C     0.81887   0.01180   0.76407   0.00000  Uiso   1.00
C736   C     0.82296   0.05589   0.76018   0.00000  Uiso   1.00
C737   C     0.84330   0.27795   0.74010   0.00000  Uiso   1.00
C738   C     0.75588   0.20603   0.99035   0.00000  Uiso   1.00
C739   C     0.85237   0.14819   0.62940   0.00000  Uiso   1.00
C740   C     0.81618   0.18546   0.87084   0.00000  Uiso   1.00
C741   C     0.91164   0.12609   0.50903   0.00000  Uiso   1.00
C742   C     0.86199   0.14145   0.58089   0.00000  Uiso   1.00
C743   C     0.76875   0.20616   0.94406   0.00000  Uiso   1.00
C744   C     0.92355   0.10157   0.57868   0.00000  Uiso   1.00
C745   C     0.95093   0.10816   0.98205   0.00000  Uiso   1.00
C746   C     0.94740   0.07393   0.95104   0.00000  Uiso   1.00
C747   C     0.98419   0.05689   0.92571   0.00000  Uiso   1.00
C748   C     0.69132   0.07372   0.93131   0.00000  Uiso   1.00
C749   C     0.78092   0.19070   0.51350   0.00000  Uiso   1.00
C750   C     0.69509   0.10765   0.96222   0.00000  Uiso   1.00
C751   C     0.99175   0.12501   0.98742   0.00000  Uiso   1.00
C752   C     0.82126   0.17734   0.99084   0.00000  Uiso   1.00
C753   C     0.83572   0.18060   0.94379   0.00000  Uiso   1.00
C754   C     0.84749   0.16040   0.51314   0.00000  Uiso   1.00
C755   C     0.88706   0.14638   0.98807   0.00000  Uiso   1.00
C756   C     0.90242   0.15479   0.94290   0.00000  Uiso   1.00
C757   C     0.87789   0.17275   0.92169   0.00000  Uiso   1.00
H758   H     0.98559   0.14038   0.79109   0.00000  Uiso   1.00
H759   H     0.68261   0.19370   0.70927   0.00000  Uiso   1.00
H760   H     0.95272   0.05090   0.57877   0.00000  Uiso   1.00
H761   H     0.91617   0.06051   0.94657   0.00000  Uiso   1.00
H762   H     0.98131   0.03056   0.90181   0.00000  Uiso   1.00
H763   H     0.71977   0.06042   0.91177   0.00000  Uiso   1.00
H764   H     0.72644   0.12036   0.96668   0.00000  Uiso   1.00
H765   H     0.99505   0.15139   0.51118   0.00000  Uiso   1.00
H766   H     0.87328   0.00370   0.71049   0.00000  Uiso   1.00
H767   H     0.79253   0.33141   0.79005   0.00000  Uiso   1.00
H768   H     0.93408   0.14835   0.92351   0.00000  Uiso   1.00
H769   H     0.80843   0.17081   0.58116   0.00000  Uiso   1.00
H770   H     0.74712   0.21563   0.92685   0.00000  Uiso   1.00
H771   H     0.76738   0.18951   0.54901   0.00000  Uiso   1.00
H772   H     0.72524   0.21617   0.50834   0.00000  Uiso   1.00
H773   H     0.89297   0.18082   0.88776   0.00000  Uiso   1.00
O774   O     0.83333   0.16667   0.75000   0.00000  Uiso   1.00
O775   O     0.82118   0.12637   0.65458   0.00000  Uiso   1.00
O776   O     0.79607   0.20391   0.84968   0.00000  Uiso   1.00
O777   O     0.87491   0.17759   0.64606   0.00000  Uiso   1.00
O778   O     0.84118   0.15880   0.84968   0.00000  Uiso   1.00
O779   O     0.93292   0.11724   0.61291   0.00000  Uiso   1.00
O780   O     0.93604   0.06269   0.56064   0.00000  Uiso   1.00
O781   O     0.84597   0.08019   0.78213   0.00000  Uiso   1.00
O782   O     0.81298   0.26085   0.77013   0.00000  Uiso   1.00
O783   O     0.74078   0.13291   0.73413   0.00000  Uiso   1.00
O784   O     0.93360   0.19272   0.71360   0.00000  Uiso   1.00
O785   O     0.73738   0.18878   0.78213   0.00000  Uiso   1.00
O786   O     0.92158   0.15226   0.77013   0.00000  Uiso   1.00
O787   O     0.80426   0.06944   0.73413   0.00000  Uiso   1.00
O788   O     0.87012   0.25620   0.71360   0.00000  Uiso   1.00
Zn789  Zn    0.86005   0.13994   0.78734   0.00000  Uiso   1.00
Zn790  Zn    0.80046   0.12458   0.71875   0.00000  Uiso   1.00
Zn791  Zn    0.87723   0.19775   0.70657   0.00000  Uiso   1.00
Zn792  Zn    0.79560   0.20439   0.78733   0.00000  Uiso   1.00
C793   C     0.05277   0.49306   0.76007   0.00000  Uiso   1.00
C794   C     0.16948   0.49130   0.55972   0.00000  Uiso   1.00
C795   C     0.23229   0.45697   0.55599   0.00000  Uiso   1.00
C796   C     0.28085   0.50715   0.73995   0.00000  Uiso   1.00
C797   C     0.14114   0.52548   0.92009   0.00000  Uiso   1.00
C798   C     0.32677   0.50973   0.73569   0.00000  Uiso   1.00
C799   C     0.00744   0.49081   0.76417   0.00000  Uiso   1.00
C800   C     0.18051   0.65585   0.73621   0.00000  Uiso   1.00
C801   C     0.15220   0.34513   0.76407   0.00000  Uiso   1.00
C802   C     0.15630   0.38922   0.76018   0.00000  Uiso   1.00
C803   C     0.17664   0.61129   0.74010   0.00000  Uiso   1.00
C804   C     0.08922   0.53936   0.99035   0.00000  Uiso   1.00
C805   C     0.18570   0.48152   0.62940   0.00000  Uiso   1.00
C806   C     0.14952   0.51879   0.87084   0.00000  Uiso   1.00
C807   C     0.24497   0.45942   0.50903   0.00000  Uiso   1.00
C808   C     0.19533   0.47478   0.58089   0.00000  Uiso   1.00
C809   C     0.10209   0.53949   0.94406   0.00000  Uiso   1.00
C810   C     0.25688   0.43491   0.57868   0.00000  Uiso   1.00
C811   C     0.28427   0.44149   0.98205   0.00000  Uiso   1.00
C812   C     0.28073   0.40726   0.95104   0.00000  Uiso   1.00
C813   C     0.31752   0.39022   0.92571   0.00000  Uiso   1.00
C814   C     0.02466   0.40705   0.93131   0.00000  Uiso   1.00
C815   C     0.11426   0.52404   0.51350   0.00000  Uiso   1.00
C816   C     0.02842   0.44098   0.96222   0.00000  Uiso   1.00
C817   C     0.32508   0.45834   0.98742   0.00000  Uiso   1.00
C818   C     0.15460   0.51068   0.99084   0.00000  Uiso   1.00
C819   C     0.16905   0.51394   0.94379   0.00000  Uiso   1.00
C820   C     0.18083   0.49373   0.51314   0.00000  Uiso   1.00
C821   C     0.22039   0.47971   0.98807   0.00000  Uiso   1.00
C822   C     0.23575   0.48813   0.94290   0.00000  Uiso   1.00
C823   C     0.21122   0.50609   0.92169   0.00000  Uiso   1.00
H824   H     0.31892   0.47371   0.79109   0.00000  Uiso   1.00
H825   H     0.01595   0.52703   0.70927   0.00000  Uiso   1.00
H826   H     0.28606   0.38423   0.57877   0.00000  Uiso   1.00
H827   H     0.24951   0.39385   0.94657   0.00000  Uiso   1.00
H828   H     0.31464   0.36389   0.90181   0.00000  Uiso   1.00
H829   H     0.05310   0.39375   0.91177   0.00000  Uiso   1.00
H830   H     0.05978   0.45369   0.96668   0.00000  Uiso   1.00
H831   H     0.32839   0.48472   0.51118   0.00000  Uiso   1.00
H832   H     0.20662   0.33704   0.71049   0.00000  Uiso   1.00
H833   H     0.12586   0.66474   0.79005   0.00000  Uiso   1.00
H834   H     0.26742   0.48169   0.92351   0.00000  Uiso   1.00
H835   H     0.14176   0.50415   0.58116   0.00000  Uiso   1.00
H836   H     0.08046   0.54897   0.92685   0.00000  Uiso   1.00
H837   H     0.10071   0.52284   0.54901   0.00000  Uiso   1.00
H838   H     0.05858   0.54950   0.50834   0.00000  Uiso   1.00
H839   H     0.22631   0.51416   0.88776   0.00000  Uiso   1.00
O840   O     0.16667   0.50000   0.75000   0.00000  Uiso   1.00
O841   O     0.15451   0.45970   0.65458   0.00000  Uiso   1.00
O842   O     0.12940   0.53724   0.84968   0.00000  Uiso   1.00
O843   O     0.20824   0.51092   0.64606   0.00000  Uiso   1.00
O844   O     0.17451   0.49213   0.84968   0.00000  Uiso   1.00
O845   O     0.26625   0.45058   0.61291   0.00000  Uiso   1.00
O846   O     0.26937   0.39602   0.56064   0.00000  Uiso   1.00
O847   O     0.17930   0.41352   0.78213   0.00000  Uiso   1.00
O848   O     0.14632   0.59418   0.77013   0.00000  Uiso   1.00
O849   O     0.07412   0.46625   0.73413   0.00000  Uiso   1.00
O850   O     0.26693   0.52605   0.71360   0.00000  Uiso   1.00
O851   O     0.07071   0.52211   0.78213   0.00000  Uiso   1.00
O852   O     0.25491   0.48559   0.77013   0.00000  Uiso   1.00
O853   O     0.13760   0.40277   0.73413   0.00000  Uiso   1.00
O854   O     0.20345   0.58953   0.71360   0.00000  Uiso   1.00
Zn855  Zn    0.19338   0.47327   0.78734   0.00000  Uiso   1.00
Zn856  Zn    0.13379   0.45791   0.71875   0.00000  Uiso   1.00
Zn857  Zn    0.21056   0.53109   0.70657   0.00000  Uiso   1.00
Zn858  Zn    0.12893   0.53773   0.78733   0.00000  Uiso   1.00
C859   C     0.38610   0.49306   0.76007   0.00000  Uiso   1.00
C860   C     0.50281   0.49130   0.55972   0.00000  Uiso   1.00
C861   C     0.56562   0.45697   0.55599   0.00000  Uiso   1.00
C862   C     0.61418   0.50715   0.73995   0.00000  Uiso   1.00
C863   C     0.47447   0.52548   0.92009   0.00000  Uiso   1.00
C864   C     0.66011   0.50973   0.73569   0.00000  Uiso   1.00
C865   C     0.34077   0.49081   0.76417   0.00000  Uiso   1.00
C866   C     0.51384   0.65585   0.73621   0.00000  Uiso   1.00
C867   C     0.48554   0.34513   0.76407   0.00000  Uiso   1.00
C868   C     0.48963   0.38922   0.76018   0.00000  Uiso   1.00
C869   C     0.50997   0.61129   0.74010   0.00000  Uiso   1.00
C870   C     0.42255   0.53936   0.99035   0.00000  Uiso   1.00
C871   C     0.51903   0.48152   0.62940   0.00000  Uiso   1.00
C872   C     0.48285   0.51879   0.87084   0.00000  Uiso   1.00
C873   C     0.57831   0.45942   0.50903   0.00000  Uiso   1.00
C874   C     0.52866   0.47478   0.58089   0.00000  Uiso   1.00
C875   C     0.43542   0.53949   0.94406   0.00000  Uiso   1.00
C876   C     0.59021   0.43491   0.57868   0.00000  Uiso   1.00
C877   C     0.61760   0.44149   0.98205   0.00000  Uiso   1.00
C878   C     0.61407   0.40726   0.95104   0.00000  Uiso   1.00
C879   C     0.65085   0.39022   0.92571   0.00000  Uiso   1.00
C880   C     0.35799   0.40705   0.93131   0.00000  Uiso   1.00
C881   C     0.44759   0.52404   0.51350   0.00000  Uiso   1.00
C882   C     0.36175   0.44098   0.96222   0.00000  Uiso   1.00
C883   C     0.65841   0.45834   0.98742   0.00000  Uiso   1.00
C884   C     0.48793   0.51068   0.99084   0.00000  Uiso   1.00
C885   C     0.50238   0.51394   0.94379   0.00000  Uiso   1.00
C886   C     0.51416   0.49373   0.51314   0.00000  Uiso   1.00
C887   C     0.55372   0.47971   0.98807   0.00000  Uiso   1.00
C888   C     0.56908   0.48813   0.94290   0.00000  Uiso   1.00
C889   C     0.54455   0.50609   0.92169   0.00000  Uiso   1.00
H890   H     0.65226   0.47371   0.79109   0.00000  Uiso   1.00
H891   H     0.34928   0.52703   0.70927   0.00000  Uiso   1.00
H892   H     0.61939   0.38423   0.57877   0.00000  Uiso   1.00
H893   H     0.58284   0.39385   0.94657   0.00000  Uiso   1.00
H894   H     0.64797   0.36389   0.90181   0.00000  Uiso   1.00
H895   H     0.38643   0.39375   0.91177   0.00000  Uiso   1.00
H896   H     0.39311   0.45369   0.96668   0.00000  Uiso   1.00
H897   H     0.66172   0.48472   0.51118   0.00000  Uiso   1.00
H898   H     0.53995   0.33704   0.71049   0.00000  Uiso   1.00
H899   H     0.45919   0.66474   0.79005   0.00000  Uiso   1.00
H900   H     0.60075   0.48169   0.92351   0.00000  Uiso   1.00
H901   H     0.47510   0.50415   0.58116   0.00000  Uiso   1.00
H902   H     0.41379   0.54897   0.92685   0.00000  Uiso   1.00
H903   H     0.43404   0.52284   0.54901   0.00000  Uiso   1.00
H904   H     0.39191   0.54950   0.50834   0.00000  Uiso   1.00
H905   H     0.55964   0.51416   0.88776   0.00000  Uiso   1.00
O906   O     0.50000   0.50000   0.75000   0.00000  Uiso   1.00
O907   O     0.48784   0.45970   0.65458   0.00000  Uiso   1.00
O908   O     0.46274   0.53724   0.84968   0.00000  Uiso   1.00
O909   O     0.54157   0.51092   0.64606   0.00000  Uiso   1.00
O910   O     0.50785   0.49213   0.84968   0.00000  Uiso   1.00
O911   O     0.59959   0.45058   0.61291   0.00000  Uiso   1.00
O912   O     0.60270   0.39602   0.56064   0.00000  Uiso   1.00
O913   O     0.51264   0.41352   0.78213   0.00000  Uiso   1.00
O914   O     0.47965   0.59418   0.77013   0.00000  Uiso   1.00
O915   O     0.40745   0.46625   0.73413   0.00000  Uiso   1.00
O916   O     0.60026   0.52605   0.71360   0.00000  Uiso   1.00
O917   O     0.40405   0.52211   0.78213   0.00000  Uiso   1.00
O918   O     0.58824   0.48559   0.77013   0.00000  Uiso   1.00
O919   O     0.47093   0.40277   0.73413   0.00000  Uiso   1.00
O920   O     0.53678   0.58953   0.71360   0.00000  Uiso   1.00
Zn921  Zn    0.52672   0.47327   0.78734   0.00000  Uiso   1.00
Zn922  Zn    0.46713   0.45791   0.71875   0.00000  Uiso   1.00
Zn923  Zn    0.54389   0.53109   0.70657   0.00000  Uiso   1.00
Zn924  Zn    0.46226   0.53773   0.78733   0.00000  Uiso   1.00
C925   C     0.71943   0.49306   0.76007   0.00000  Uiso   1.00
C926   C     0.83614   0.49130   0.55972   0.00000  Uiso   1.00
C927   C     0.89895   0.45697   0.55599   0.00000  Uiso   1.00
C928   C     0.94751   0.50715   0.73995   0.00000  Uiso   1.00
C929   C     0.80781   0.52548   0.92009   0.00000  Uiso   1.00
C930   C     0.99344   0.50973   0.73569   0.00000  Uiso   1.00
C931   C     0.67411   0.49081   0.76417   0.00000  Uiso   1.00
C932   C     0.84718   0.65585   0.73621   0.00000  Uiso   1.00
C933   C     0.81887   0.34513   0.76407   0.00000  Uiso   1.00
C934   C     0.82296   0.38922   0.76018   0.00000  Uiso   1.00
C935   C     0.84330   0.61129   0.74010   0.00000  Uiso   1.00
C936   C     0.75588   0.53936   0.99035   0.00000  Uiso   1.00
C937   C     0.85237   0.48152   0.62940   0.00000  Uiso   1.00
C938   C     0.81618   0.51879   0.87084   0.00000  Uiso   1.00
C939   C     0.91164   0.45942   0.50903   0.00000  Uiso   1.00
C940   C     0.86199   0.47478   0.58089   0.00000  Uiso   1.00
C941   C     0.76875   0.53949   0.94406   0.00000  Uiso   1.00
C942   C     0.92355   0.43491   0.57868   0.00000  Uiso   1.00
C943   C     0.95093   0.44149   0.98205   0.00000  Uiso   1.00
C944   C     0.94740   0.40726   0.95104   0.00000  Uiso   1.00
C945   C     0.98419   0.39022   0.92571   0.00000  Uiso   1.00
C946   C     0.69132   0.40705   0.93131   0.00000  Uiso   1.00
C947   C     0.78092   0.52404   0.51350   0.00000  Uiso   1.00
C948   C     0.69509   0.44098   0.96222   0.00000  Uiso   1.00
C949   C     0.99175   0.45834   0.98742   0.00000  Uiso   1.00
C950   C     0.82126   0.51068   0.99084   0.00000  Uiso   1.00
C951   C     0.83572   0.51394   0.94379   0.00000  Uiso   1.00
C952   C     0.84749   0.49373   0.51314   0.00000  Uiso   1.00
C953   C     0.88706   0.47971   0.98807   0.00000  Uiso   1.00
C954   C     0.90242   0.48813   0.94290   0.00000  Uiso   1.00
C955   C     0.87789   0.50609   0.92169   0.00000  Uiso   1.00
H956   H     0.98559   0.47371   0.79109   0.00000  Uiso   1.00
H957   H     0.68261   0.52703   0.70927   0.00000  Uiso   1.00
H958   H     0.95272   0.38423   0.57877   0.00000  Uiso   1.00
H959   H     0.91617   0.39385   0.94657   0.00000  Uiso   1.00
H960   H     0.98131   0.36389   0.90181   0.00000  Uiso   1.00
H961   H     0.71977   0.39375   0.91177   0.00000  Uiso   1.00
H962   H     0.72644   0.45369   0.96668   0.00000  Uiso   1.00
H963   H     0.99505   0.48472   0.51118   0.00000  Uiso   1.00
H964   H     0.87328   0.33704   0.71049   0.00000  Uiso   1.00
H965   H     0.79253   0.66474   0.79005   0.00000  Uiso   1.00
H966   H     0.93408   0.48169   0.92351   0.00000  Uiso   1.00
H967   H     0.80843   0.50415   0.58116   0.00000  Uiso   1.00
H968   H     0.74712   0.54897   0.92685   0.00000  Uiso   1.00
H969   H     0.76738   0.52284   0.54901   0.00000  Uiso   1.00
H970   H     0.72524   0.54950   0.50834   0.00000  Uiso   1.00
H971   H     0.89297   0.51416   0.88776   0.00000  Uiso   1.00
O972   O     0.83333   0.50000   0.75000   0.00000  Uiso   1.00
O973   O     0.82118   0.45970   0.65458   0.00000  Uiso   1.00
O974   O     0.79607   0.53724   0.84968   0.00000  Uiso   1.00
O975   O     0.87491   0.51092   0.64606   0.00000  Uiso   1.00
O976   O     0.84118   0.49213   0.84968   0.00000  Uiso   1.00
O977   O     0.93292   0.45058   0.61291   0.00000  Uiso   1.00
O978   O     0.93604   0.39602   0.56064   0.00000  Uiso   1.00
O979   O     0.84597   0.41352   0.78213   0.00000  Uiso   1.00
O980   O     0.81298   0.59418   0.77013   0.00000  Uiso   1.00
O981   O     0.74078   0.46625   0.73413   0.00000  Uiso   1.00
O982   O     0.93360   0.52605   0.71360   0.00000  Uiso   1.00
O983   O     0.73738   0.52211   0.78213   0.00000  Uiso   1.00
O984   O     0.92158   0.48559   0.77013   0.00000  Uiso   1.00
O985   O     0.80426   0.40277   0.73413   0.00000  Uiso   1.00
O986   O     0.87012   0.58953   0.71360   0.00000  Uiso   1.00
Zn987  Zn    0.86005   0.47327   0.78734   0.00000  Uiso   1.00
Zn988  Zn    0.80046   0.45791   0.71875   0.00000  Uiso   1.00
Zn989  Zn    0.87723   0.53109   0.70657   0.00000  Uiso   1.00
Zn990  Zn    0.79560   0.53773   0.78733   0.00000  Uiso   1.00
C991   C     0.05277   0.82639   0.76007   0.00000  Uiso   1.00
C992   C     0.16948   0.82464   0.55972   0.00000  Uiso   1.00
C993   C     0.23229   0.79030   0.55599   0.00000  Uiso   1.00
C994   C     0.28085   0.84049   0.73995   0.00000  Uiso   1.00
C995   C     0.14114   0.85882   0.92009   0.00000  Uiso   1.00
C996   C     0.32677   0.84307   0.73569   0.00000  Uiso   1.00
C997   C     0.00744   0.82414   0.76417   0.00000  Uiso   1.00
C998   C     0.18051   0.98918   0.73621   0.00000  Uiso   1.00
C999   C     0.15220   0.67847   0.76407   0.00000  Uiso   1.00
C1000  C     0.15630   0.72256   0.76018   0.00000  Uiso   1.00
C1001  C     0.17664   0.94462   0.74010   0.00000  Uiso   1.00
C1002  C     0.08922   0.87269   0.99035   0.00000  Uiso   1.00
C1003  C     0.18570   0.81485   0.62940   0.00000  Uiso   1.00
C1004  C     0.14952   0.85213   0.87084   0.00000  Uiso   1.00
C1005  C     0.24497   0.79275   0.50903   0.00000  Uiso   1.00
C1006  C     0.19533   0.80812   0.58089   0.00000  Uiso   1.00
C1007  C     0.10209   0.87282   0.94406   0.00000  Uiso   1.00
C1008  C     0.25688   0.76824   0.57868   0.00000  Uiso   1.00
C1009  C     0.28427   0.77482   0.98205   0.00000  Uiso   1.00
C1010  C     0.28073   0.74059   0.95104   0.00000  Uiso   1.00
C1011  C     0.31752   0.72355   0.92571   0.00000  Uiso   1.00
C1012  C     0.02466   0.74039   0.93131   0.00000  Uiso   1.00
C1013  C     0.11426   0.85737   0.51350   0.00000  Uiso   1.00
C1014  C     0.02842   0.77431   0.96222   0.00000  Uiso   1.00
C1015  C     0.32508   0.79167   0.98742   0.00000  Uiso   1.00
C1016  C     0.15460   0.84401   0.99084   0.00000  Uiso   1.00
C1017  C     0.16905   0.84727   0.94379   0.00000  Uiso   1.00
C1018  C     0.18083   0.82707   0.51314   0.00000  Uiso   1.00
C1019  C     0.22039   0.81304   0.98807   0.00000  Uiso   1.00
C1020  C     0.23575   0.82146   0.94290   0.00000  Uiso   1.00
C1021  C     0.21122   0.83942   0.92169   0.00000  Uiso   1.00
H1022  H     0.31892   0.80705   0.79109   0.00000  Uiso   1.00
H1023  H     0.01595   0.86036   0.70927   0.00000  Uiso   1.00
H1024  H     0.28606   0.71756   0.57877   0.00000  Uiso   1.00
H1025  H     0.24951   0.72718   0.94657   0.00000  Uiso   1.00
H1026  H     0.31464   0.69723   0.90181   0.00000  Uiso   1.00
H1027  H     0.05310   0.72709   0.91177   0.00000  Uiso   1.00
H1028  H     0.05978   0.78702   0.96668   0.00000  Uiso   1.00
H1029  H     0.32839   0.81805   0.51118   0.00000  Uiso   1.00
H1030  H     0.20662   0.67037   0.71049   0.00000  Uiso   1.00
H1031  H     0.12586   0.99807   0.79005   0.00000  Uiso   1.00
H1032  H     0.26742   0.81502   0.92351   0.00000  Uiso   1.00
H1033  H     0.14176   0.83748   0.58116   0.00000  Uiso   1.00
H1034  H     0.08046   0.88230   0.92685   0.00000  Uiso   1.00
H1035  H     0.10071   0.85618   0.54901   0.00000  Uiso   1.00
H1036  H     0.05858   0.88283   0.50834   0.00000  Uiso   1.00
H1037  H     0.22631   0.84749   0.88776   0.00000  Uiso   1.00
O1038  O     0.16667   0.83333   0.75000   0.00000  Uiso   1.00
O1039  O     0.15451   0.79304   0.65458   0.00000  Uiso   1.00
O1040  O     0.12940   0.87058   0.84968   0.00000  Uiso   1.00
O1041  O     0.20824   0.84425   0.64606   0.00000  Uiso   1.00
O1042  O     0.17451   0.82546   0.84968   0.00000  Uiso   1.00
O1043  O     0.26625   0.78391   0.61291   0.00000  Uiso   1.00
O1044  O     0.26937   0.72936   0.56064   0.00000  Uiso   1.00
O1045  O     0.17930   0.74686   0.78213   0.00000  Uiso   1.00
O1046  O     0.14632   0.92751   0.77013   0.00000  Uiso   1.00
O1047  O     0.07412   0.79958   0.73413   0.00000  Uiso   1.00
O1048  O     0.26693   0.85939   0.71360   0.00000  Uiso   1.00
O1049  O     0.07071   0.85544   0.78213   0.00000  Uiso   1.00
O1050  O     0.25491   0.81892   0.77013   0.00000  Uiso   1.00
O1051  O     0.13760   0.73610   0.73413   0.00000  Uiso   1.00
O1052  O     0.20345   0.92286   0.71360   0.00000  Uiso   1.00
Zn1053 Zn    0.19338   0.80661   0.78734   0.00000  Uiso   1.00
Zn1054 Zn    0.13379   0.79124   0.71875   0.00000  Uiso   1.00
Zn1055 Zn    0.21056   0.86442   0.70657   0.00000  Uiso   1.00
Zn1056 Zn    0.12893   0.87106   0.78733   0.00000  Uiso   1.00
C1057  C     0.38610   0.82639   0.76007   0.00000  Uiso   1.00
C1058  C     0.50281   0.82464   0.55972   0.00000  Uiso   1.00
C1059  C     0.56562   0.79030   0.55599   0.00000  Uiso   1.00
C1060  C     0.61418   0.84049   0.73995   0.00000  Uiso   1.00
C1061  C     0.47447   0.85882   0.92009   0.00000  Uiso   1.00
C1062  C     0.66011   0.84307   0.73569   0.00000  Uiso   1.00
C1063  C     0.34077   0.82414   0.76417   0.00000  Uiso   1.00
C1064  C     0.51384   0.98918   0.73621   0.00000  Uiso   1.00
C1065  C     0.48554   0.67847   0.76407   0.00000  Uiso   1.00
C1066  C     0.48963   0.72256   0.76018   0.00000  Uiso   1.00
C1067  C     0.50997   0.94462   0.74010   0.00000  Uiso   1.00
C1068  C     0.42255   0.87269   0.99035   0.00000  Uiso   1.00
C1069  C     0.51903   0.81485   0.62940   0.00000  Uiso   1.00
C1070  C     0.48285   0.85213   0.87084   0.00000  Uiso   1.00
C1071  C     0.57831   0.79275   0.50903   0.00000  Uiso   1.00
C1072  C     0.52866   0.80812   0.58089   0.00000  Uiso   1.00
C1073  C     0.43542   0.87282   0.94406   0.00000  Uiso   1.00
C1074  C     0.59021   0.76824   0.57868   0.00000  Uiso   1.00
C1075  C     0.61760   0.77482   0.98205   0.00000  Uiso   1.00
C1076  C     0.61407   0.74059   0.95104   0.00000  Uiso   1.00
C1077  C     0.65085   0.72355   0.92571   0.00000  Uiso   1.00
C1078  C     0.35799   0.74039   0.93131   0.00000  Uiso   1.00
C1079  C     0.44759   0.85737   0.51350   0.00000  Uiso   1.00
C1080  C     0.36175   0.77431   0.96222   0.00000  Uiso   1.00
C1081  C     0.65841   0.79167   0.98742   0.00000  Uiso   1.00
C1082  C     0.48793   0.84401   0.99084   0.00000  Uiso   1.00
C1083  C     0.50238   0.84727   0.94379   0.00000  Uiso   1.00
C1084  C     0.51416   0.82707   0.51314   0.00000  Uiso   1.00
C1085  C     0.55372   0.81304   0.98807   0.00000  Uiso   1.00
C1086  C     0.56908   0.82146   0.94290   0.00000  Uiso   1.00
C1087  C     0.54455   0.83942   0.92169   0.00000  Uiso   1.00
H1088  H     0.65226   0.80705   0.79109   0.00000  Uiso   1.00
H1089  H     0.34928   0.86036   0.70927   0.00000  Uiso   1.00
H1090  H     0.61939   0.71756   0.57877   0.00000  Uiso   1.00
H1091  H     0.58284   0.72718   0.94657   0.00000  Uiso   1.00
H1092  H     0.64797   0.69723   0.90181   0.00000  Uiso   1.00
H1093  H     0.38643   0.72709   0.91177   0.00000  Uiso   1.00
H1094  H     0.39311   0.78702   0.96668   0.00000  Uiso   1.00
H1095  H     0.66172   0.81805   0.51118   0.00000  Uiso   1.00
H1096  H     0.53995   0.67037   0.71049   0.00000  Uiso   1.00
H1097  H     0.45919   0.99807   0.79005   0.00000  Uiso   1.00
H1098  H     0.60075   0.81502   0.92351   0.00000  Uiso   1.00
H1099  H     0.47510   0.83748   0.58116   0.00000  Uiso   1.00
H1100  H     0.41379   0.88230   0.92685   0.00000  Uiso   1.00
H1101  H     0.43404   0.85618   0.54901   0.00000  Uiso   1.00
H1102  H     0.39191   0.88283   0.50834   0.00000  Uiso   1.00
H1103  H     0.55964   0.84749   0.88776   0.00000  Uiso   1.00
O1104  O     0.50000   0.83333   0.75000   0.00000  Uiso   1.00
O1105  O     0.48784   0.79304   0.65458   0.00000  Uiso   1.00
O1106  O     0.46274   0.87058   0.84968   0.00000  Uiso   1.00
O1107  O     0.54157   0.84425   0.64606   0.00000  Uiso   1.00
O1108  O     0.50785   0.82546   0.84968   0.00000  Uiso   1.00
O1109  O     0.59959   0.78391   0.61291   0.00000  Uiso   1.00
O1110  O     0.60270   0.72936   0.56064   0.00000  Uiso   1.00
O1111  O     0.51264   0.74686   0.78213   0.00000  Uiso   1.00
O1112  O     0.47965   0.92751   0.77013   0.00000  Uiso   1.00
O1113  O     0.40745   0.79958   0.73413   0.00000  Uiso   1.00
O1114  O     0.60026   0.85939   0.71360   0.00000  Uiso   1.00
O1115  O     0.40405   0.85544   0.78213   0.00000  Uiso   1.00
O1116  O     0.58824   0.81892   0.77013   0.00000  Uiso   1.00
O1117  O     0.47093   0.73610   0.73413   0.00000  Uiso   1.00
O1118  O     0.53678   0.92286   0.71360   0.00000  Uiso   1.00
Zn1119 Zn    0.52672   0.80661   0.78734   0.00000  Uiso   1.00
Zn1120 Zn    0.46713   0.79124   0.71875   0.00000  Uiso   1.00
Zn1121 Zn    0.54389   0.86442   0.70657   0.00000  Uiso   1.00
Zn1122 Zn    0.46226   0.87106   0.78733   0.00000  Uiso   1.00
C1123  C     0.71943   0.82639   0.76007   0.00000  Uiso   1.00
C1124  C     0.83614   0.82464   0.55972   0.00000  Uiso   1.00
C1125  C     0.89895   0.79030   0.55599   0.00000  Uiso   1.00
C1126  C     0.94751   0.84049   0.73995   0.00000  Uiso   1.00
C1127  C     0.80781   0.85882   0.92009   0.00000  Uiso   1.00
C1128  C     0.99344   0.84307   0.73569   0.00000  Uiso   1.00
C1129  C     0.67411   0.82414   0.76417   0.00000  Uiso   1.00
C1130  C     0.84718   0.98918   0.73621   0.00000  Uiso   1.00
C1131  C     0.81887   0.67847   0.76407   0.00000  Uiso   1.00
C1132  C     0.82296   0.72256   0.76018   0.00000  Uiso   1.00
C1133  C     0.84330   0.94462   0.74010   0.00000  Uiso   1.00
C1134  C     0.75588   0.87269   0.99035   0.00000  Uiso   1.00
C1135  C     0.85237   0.81485   0.62940   0.00000  Uiso   1.00
C1136  C     0.81618   0.85213   0.87084   0.00000  Uiso   1.00
C1137  C     0.91164   0.79275   0.50903   0.00000  Uiso   1.00
C1138  C     0.86199   0.80812   0.58089   0.00000  Uiso   1.00
C1139  C     0.76875   0.87282   0.94406   0.00000  Uiso   1.00
C1140  C     0.92355   0.76824   0.57868   0.00000  Uiso   1.00
C1141  C     0.95093   0.77482   0.98205   0.00000  Uiso   1.00
C1142  C     0.94740   0.74059   0.95104   0.00000  Uiso   1.00
C1143  C     0.98419   0.72355   0.92571   0.00000  Uiso   1.00
C1144  C     0.69132   0.74039   0.93131   0.00000  Uiso   1.00
C1145  C     0.78092   0.85737   0.51350   0.00000  Uiso   1.00
C1146  C     0.69509   0.77431   0.96222   0.00000  Uiso   1.00
C1147  C     0.99175   0.79167   0.98742   0.00000  Uiso   1.00
C1148  C     0.82126   0.84401   0.99084   0.00000  Uiso   1.00
C1149  C     0.83572   0.84727   0.94379   0.00000  Uiso   1.00
C1150  C     0.84749   0.82707   0.51314   0.00000  Uiso   1.00
C1151  C     0.88706   0.81304   0.98807   0.00000  Uiso   1.00
C1152  C     0.90242   0.82146   0.94290   0.00000  Uiso   1.00
C1153  C     0.87789   0.83942   0.92169   0.00000  Uiso   1.00
H1154  H     0.98559   0.80705   0.79109   0.00000  Uiso   1.00
H1155  H     0.68261   0.86036   0.70927   0.00000  Uiso   1.00
H1156  H     0.95272   0.71756   0.57877   0.00000  Uiso   1.00
H1157  H     0.91617   0.72718   0.94657   0.00000  Uiso   1.00
H1158  H     0.98131   0.69723   0.90181   0.00000  Uiso   1.00
H1159  H     0.71977   0.72709   0.91177   0.00000  Uiso   1.00
H1160  H     0.72644   0.78702   0.96668   0.00000  Uiso   1.00
H1161  H     0.99505   0.81805   0.51118   0.00000  Uiso   1.00
H1162  H     0.87328   0.67037   0.71049   0.00000  Uiso   1.00
H1163  H     0.79253   0.99807   0.79005   0.00000  Uiso   1.00
H1164  H     0.93408   0.81502   0.92351   0.00000  Uiso   1.00
H1165  H     0.80843   0.83748   0.58116   0.00000  Uiso   1.00
H1166  H     0.74712   0.88230   0.92685   0.00000  Uiso   1.00
H1167  H     0.76738   0.85618   0.54901   0.00000  Uiso   1.00
H1168  H     0.72524   0.88283   0.50834   0.00000  Uiso   1.00
H1169  H     0.89297   0.84749   0.88776   0.00000  Uiso   1.00
O1170  O     0.83333   0.83333   0.75000   0.00000  Uiso   1.00
O1171  O     0.82118   0.79304   0.65458   0.00000  Uiso   1.00
O1172  O     0.79607   0.87058   0.84968   0.00000  Uiso   1.00
O1173  O     0.87491   0.84425   0.64606   0.00000  Uiso   1.00
O1174  O     0.84118   0.82546   0.84968   0.00000  Uiso   1.00
O1175  O     0.93292   0.78391   0.61291   0.00000  Uiso   1.00
O1176  O     0.93604   0.72936   0.56064   0.00000  Uiso   1.00
O1177  O     0.84597   0.74686   0.78213   0.00000  Uiso   1.00
O1178  O     0.81298   0.92751   0.77013   0.00000  Uiso   1.00
O1179  O     0.74078   0.79958   0.73413   0.00000  Uiso   1.00
O1180  O     0.93360   0.85939   0.71360   0.00000  Uiso   1.00
O1181  O     0.73738   0.85544   0.78213   0.00000  Uiso   1.00
O1182  O     0.92158   0.81892   0.77013   0.00000  Uiso   1.00
O1183  O     0.80426   0.73610   0.73413   0.00000  Uiso   1.00
O1184  O     0.87012   0.92286   0.71360   0.00000  Uiso   1.00
Zn1185 Zn    0.86005   0.80661   0.78734   0.00000  Uiso   1.00
Zn1186 Zn    0.80046   0.79124   0.71875   0.00000  Uiso   1.00
Zn1187 Zn    0.87723   0.86442   0.70657   0.00000  Uiso   1.00
Zn1188 Zn    0.79560   0.87106   0.78733   0.00000  Uiso   1.00
loop_
_geom_bond_atom_site_label_1
_geom_bond_atom_site_label_2
_geom_bond_distance
_geom_bond_site_symmetry_2
_ccdc_geom_bond_type
C1     O57     1.273   .     A
C1     O59     1.272   .     A
C1     C7      1.436   .     S
C2     C16     1.389   .     A
C2     H43     1.077   .     S
C2     C28     1.402   .     A
C3     C16     1.410   .     A
C3     C15     1.414   .     A
C3     C18     1.492   .     S
C4     O60     1.276   .     A
C4     C6      1.454   .     S
C4     O58     1.280   .     A
C5     C27     1.421   .     A
C5     C14     1.478   .     S
C5     C17     1.402   .     A
C6     C73     1.334   .     S
C6     H99     1.088   .     S
C7     C138    1.334   1_455 S
C7     H164    1.086   1_455 S
C8     C11     1.452   .     S
C8     C207    1.332   .     S
C8     H238    1.088   .     S
C9     C10     1.436   .     S
C9     C404    1.332   1_545 S
C9     H437    1.086   1_545 S
C10    O55     1.278   .     A
C10    O61     1.278   .     A
C11    O62     1.269   .     A
C11    O56     1.269   .     A
C12    C17     1.387   .     A
C12    C617    1.391   .     S
C12    H640    1.083   .     S
C13    C16     1.454   .     S
C13    O51     1.270   .     A
C13    O49     1.276   .     A
C14    O50     1.283   .     A
C14    O52     1.282   .     A
C15    C613    1.489   1_554 S
C15    C623    1.421   1_554 S
C17    H44     1.083   .     S
C18    O54     1.398   .     S
C18    O53     1.223   .     D
C19    C20     1.405   .     A
C19    C25     1.405   .     A
C19    C609    1.489   .     S
C20    C21     1.398   .     A
C20    H35     1.083   .     S
C21    H36     1.082   .     S
C21    C88     1.397   .     S
C22    C24     1.397   .     A
C22    H37     1.082   .     S
C22    C153    1.397   1_455 S
C23    H45     1.076   .     S
C23    C606    1.391   1_554 S
C23    C620    1.419   1_554 S
C24    H38     1.081   .     S
C24    C157    1.399   1_455 S
C25    C90     1.399   .     S
C25    H633    1.083   .     S
C26    C27     1.421   .     A
C26    C617    1.419   .     S
C26    C622    1.430   .     S
C27    C31     1.407   .     A
C28    C620    1.430   1_554 S
C28    C623    1.425   1_554 S
C29    C30     1.400   .     A
C29    C609    1.421   .     S
C29    C622    1.425   .     S
C30    C31     1.381   .     A
C30    H42     1.082   .     S
C31    H47     1.080   .     S
H32    C73     1.086   .     S
H33    C138    1.088   1_455 S
H34    O54     1.014   .     S
H39    C619    1.083   1_554 S
H40    C404    1.088   1_545 S
H41    C207    1.086   .     S
H46    C606    1.083   1_554 S
O48    Zn65    1.929   .     S
O48    Zn64    1.950   .     S
O48    Zn63    1.956   .     S
O48    Zn66    1.932   .     S
O49    Zn64    1.930   .     S
O50    Zn66    1.942   .     S
O51    Zn65    1.941   .     S
O52    Zn63    1.930   .     S
O55    Zn63    1.930   .     S
O56    Zn66    1.929   .     S
O57    Zn64    1.923   .     S
O58    Zn65    1.934   .     S
O59    Zn66    1.932   .     S
O60    Zn63    1.921   .     S
O61    Zn64    1.933   .     S
O62    Zn65    1.931   .     S
C67    O123    1.273   .     A
C67    O125    1.272   .     A
C67    C73     1.436   .     S
C68    C82     1.389   .     A
C68    H109    1.077   .     S
C68    C94     1.402   .     A
C69    C82     1.410   .     A
C69    C81     1.414   .     A
C69    C84     1.492   .     S
C70    O126    1.276   .     A
C70    C72     1.454   .     S
C70    O124    1.280   .     A
C71    C93     1.421   .     A
C71    C80     1.478   .     S
C71    C83     1.402   .     A
C72    C139    1.334   .     S
C72    H165    1.088   .     S
C74    C77     1.452   .     S
C74    C273    1.332   .     S
C74    H304    1.088   .     S
C75    C76     1.436   .     S
C75    C470    1.332   1_545 S
C75    H503    1.086   1_545 S
C76    O121    1.278   .     A
C76    O127    1.278   .     A
C77    O128    1.269   .     A
C77    O122    1.269   .     A
C78    C83     1.387   .     A
C78    C683    1.391   .     S
C78    H706    1.083   .     S
C79    C82     1.454   .     S
C79    O117    1.270   .     A
C79    O115    1.276   .     A
C80    O116    1.283   .     A
C80    O118    1.282   .     A
C81    C679    1.489   1_554 S
C81    C689    1.421   1_554 S
C83    H110    1.083   .     S
C84    O120    1.398   .     S
C84    O119    1.223   .     D
C85    C86     1.405   .     A
C85    C91     1.405   .     A
C85    C675    1.489   .     S
C86    C87     1.398   .     A
C86    H101    1.083   .     S
C87    H102    1.082   .     S
C87    C154    1.397   .     S
C88    C90     1.397   .     A
C88    H103    1.082   .     S
C89    H111    1.076   .     S
C89    C672    1.391   1_554 S
C89    C686    1.419   1_554 S
C90    H104    1.081   .     S
C91    C156    1.399   .     S
C91    H699    1.083   .     S
C92    C93     1.421   .     A
C92    C683    1.419   .     S
C92    C688    1.430   .     S
C93    C97     1.407   .     A
C94    C686    1.430   1_554 S
C94    C689    1.425   1_554 S
C95    C96     1.400   .     A
C95    C675    1.421   .     S
C95    C688    1.425   .     S
C96    C97     1.381   .     A
C96    H108    1.082   .     S
C97    H113    1.080   .     S
H98    C139    1.086   .     S
H100   O120    1.014   .     S
H105   C685    1.083   1_554 S
H106   C470    1.088   1_545 S
H107   C273    1.086   .     S
H112   C672    1.083   1_554 S
O114   Zn131   1.929   .     S
O114   Zn130   1.950   .     S
O114   Zn129   1.956   .     S
O114   Zn132   1.932   .     S
O115   Zn130   1.930   .     S
O116   Zn132   1.942   .     S
O117   Zn131   1.941   .     S
O118   Zn129   1.930   .     S
O121   Zn129   1.930   .     S
O122   Zn132   1.929   .     S
O123   Zn130   1.923   .     S
O124   Zn131   1.934   .     S
O125   Zn132   1.932   .     S
O126   Zn129   1.921   .     S
O127   Zn130   1.933   .     S
O128   Zn131   1.931   .     S
C133   O189    1.273   .     A
C133   O191    1.272   .     A
C133   C139    1.436   .     S
C134   C148    1.389   .     A
C134   H175    1.077   .     S
C134   C160    1.402   .     A
C135   C148    1.410   .     A
C135   C147    1.414   .     A
C135   C150    1.492   .     S
C136   O192    1.276   .     A
C136   C138    1.454   .     S
C136   O190    1.280   .     A
C137   C159    1.421   .     A
C137   C146    1.478   .     S
C137   C149    1.402   .     A
C138   C7      1.334   1_655 S
C138   H33     1.088   1_655 S
C140   C143    1.452   .     S
C140   C339    1.332   .     S
C140   H370    1.088   .     S
C141   C142    1.436   .     S
C141   C536    1.332   1_545 S
C141   H569    1.086   1_545 S
C142   O187    1.278   .     A
C142   O193    1.278   .     A
C143   O194    1.269   .     A
C143   O188    1.269   .     A
C144   C149    1.387   .     A
C144   C749    1.391   .     S
C144   H772    1.083   .     S
C145   C148    1.454   .     S
C145   O183    1.270   .     A
C145   O181    1.276   .     A
C146   O182    1.283   .     A
C146   O184    1.282   .     A
C147   C745    1.489   1_554 S
C147   C755    1.421   1_554 S
C149   H176    1.083   .     S
C150   O186    1.398   .     S
C150   O185    1.223   .     D
C151   C152    1.405   .     A
C151   C157    1.405   .     A
C151   C741    1.489   .     S
C152   C153    1.398   .     A
C152   H167    1.083   .     S
C153   H168    1.082   .     S
C153   C22     1.397   1_655 S
C154   C156    1.397   .     A
C154   H169    1.082   .     S
C155   H177    1.076   .     S
C155   C738    1.391   1_554 S
C155   C752    1.419   1_554 S
C156   H170    1.081   .     S
C157   C24     1.399   1_655 S
C157   H765    1.083   .     S
C158   C159    1.421   .     A
C158   C749    1.419   .     S
C158   C754    1.430   .     S
C159   C163    1.407   .     A
C160   C752    1.430   1_554 S
C160   C755    1.425   1_554 S
C161   C162    1.400   .     A
C161   C741    1.421   .     S
C161   C754    1.425   .     S
C162   C163    1.381   .     A
C162   H174    1.082   .     S
C163   H179    1.080   .     S
H164   C7      1.086   1_655 S
H166   O186    1.014   .     S
H171   C751    1.083   1_554 S
H172   C536    1.088   1_545 S
H173   C339    1.086   .     S
H178   C738    1.083   1_554 S
O180   Zn197   1.929   .     S
O180   Zn196   1.950   .     S
O180   Zn195   1.956   .     S
O180   Zn198   1.932   .     S
O181   Zn196   1.930   .     S
O182   Zn198   1.942   .     S
O183   Zn197   1.941   .     S
O184   Zn195   1.930   .     S
O187   Zn195   1.930   .     S
O188   Zn198   1.929   .     S
O189   Zn196   1.923   .     S
O190   Zn197   1.934   .     S
O191   Zn198   1.932   .     S
O192   Zn195   1.921   .     S
O193   Zn196   1.933   .     S
O194   Zn197   1.931   .     S
C199   O255    1.273   .     A
C199   O257    1.272   .     A
C199   C205    1.436   .     S
C200   C214    1.389   .     A
C200   H241    1.077   .     S
C200   C226    1.402   .     A
C201   C214    1.410   .     A
C201   C213    1.414   .     A
C201   C216    1.492   .     S
C202   O258    1.276   .     A
C202   C204    1.454   .     S
C202   O256    1.280   .     A
C203   C225    1.421   .     A
C203   C212    1.478   .     S
C203   C215    1.402   .     A
C204   C271    1.334   .     S
C204   H297    1.088   .     S
C205   C336    1.334   1_455 S
C205   H362    1.086   1_455 S
C206   C209    1.452   .     S
C206   C405    1.332   .     S
C206   H436    1.088   .     S
C207   C208    1.436   .     S
C208   O253    1.278   .     A
C208   O259    1.278   .     A
C209   O260    1.269   .     A
C209   O254    1.269   .     A
C210   C215    1.387   .     A
C210   C815    1.391   .     S
C210   H838    1.083   .     S
C211   C214    1.454   .     S
C211   O249    1.270   .     A
C211   O247    1.276   .     A
C212   O248    1.283   .     A
C212   O250    1.282   .     A
C213   C811    1.489   1_554 S
C213   C821    1.421   1_554 S
C215   H242    1.083   .     S
C216   O252    1.398   .     S
C216   O251    1.223   .     D
C217   C218    1.405   .     A
C217   C223    1.405   .     A
C217   C807    1.489   .     S
C218   C219    1.398   .     A
C218   H233    1.083   .     S
C219   H234    1.082   .     S
C219   C286    1.397   .     S
C220   C222    1.397   .     A
C220   H235    1.082   .     S
C220   C351    1.397   1_455 S
C221   H243    1.076   .     S
C221   C804    1.391   1_554 S
C221   C818    1.419   1_554 S
C222   H236    1.081   .     S
C222   C355    1.399   1_455 S
C223   C288    1.399   .     S
C223   H831    1.083   .     S
C224   C225    1.421   .     A
C224   C815    1.419   .     S
C224   C820    1.430   .     S
C225   C229    1.407   .     A
C226   C818    1.430   1_554 S
C226   C821    1.425   1_554 S
C227   C228    1.400   .     A
C227   C807    1.421   .     S
C227   C820    1.425   .     S
C228   C229    1.381   .     A
C228   H240    1.082   .     S
C229   H245    1.080   .     S
H230   C271    1.086   .     S
H231   C336    1.088   1_455 S
H232   O252    1.014   .     S
H237   C817    1.083   1_554 S
H239   C405    1.086   .     S
H244   C804    1.083   1_554 S
O246   Zn263   1.929   .     S
O246   Zn262   1.950   .     S
O246   Zn261   1.956   .     S
O246   Zn264   1.932   .     S
O247   Zn262   1.930   .     S
O248   Zn264   1.942   .     S
O249   Zn263   1.941   .     S
O250   Zn261   1.930   .     S
O253   Zn261   1.930   .     S
O254   Zn264   1.929   .     S
O255   Zn262   1.923   .     S
O256   Zn263   1.934   .     S
O257   Zn264   1.932   .     S
O258   Zn261   1.921   .     S
O259   Zn262   1.933   .     S
O260   Zn263   1.931   .     S
C265   O321    1.273   .     A
C265   O323    1.272   .     A
C265   C271    1.436   .     S
C266   C280    1.389   .     A
C266   H307    1.077   .     S
C266   C292    1.402   .     A
C267   C280    1.410   .     A
C267   C279    1.414   .     A
C267   C282    1.492   .     S
C268   O324    1.276   .     A
C268   C270    1.454   .     S
C268   O322    1.280   .     A
C269   C291    1.421   .     A
C269   C278    1.478   .     S
C269   C281    1.402   .     A
C270   C337    1.334   .     S
C270   H363    1.088   .     S
C272   C275    1.452   .     S
C272   C471    1.332   .     S
C272   H502    1.088   .     S
C273   C274    1.436   .     S
C274   O319    1.278   .     A
C274   O325    1.278   .     A
C275   O326    1.269   .     A
C275   O320    1.269   .     A
C276   C281    1.387   .     A
C276   C881    1.391   .     S
C276   H904    1.083   .     S
C277   C280    1.454   .     S
C277   O315    1.270   .     A
C277   O313    1.276   .     A
C278   O314    1.283   .     A
C278   O316    1.282   .     A
C279   C877    1.489   1_554 S
C279   C887    1.421   1_554 S
C281   H308    1.083   .     S
C282   O318    1.398   .     S
C282   O317    1.223   .     D
C283   C284    1.405   .     A
C283   C289    1.405   .     A
C283   C873    1.489   .     S
C284   C285    1.398   .     A
C284   H299    1.083   .     S
C285   H300    1.082   .     S
C285   C352    1.397   .     S
C286   C288    1.397   .     A
C286   H301    1.082   .     S
C287   H309    1.076   .     S
C287   C870    1.391   1_554 S
C287   C884    1.419   1_554 S
C288   H302    1.081   .     S
C289   C354    1.399   .     S
C289   H897    1.083   .     S
C290   C291    1.421   .     A
C290   C881    1.419   .     S
C290   C886    1.430   .     S
C291   C295    1.407   .     A
C292   C884    1.430   1_554 S
C292   C887    1.425   1_554 S
C293   C294    1.400   .     A
C293   C873    1.421   .     S
C293   C886    1.425   .     S
C294   C295    1.381   .     A
C294   H306    1.082   .     S
C295   H311    1.080   .     S
H296   C337    1.086   .     S
H298   O318    1.014   .     S
H303   C883    1.083   1_554 S
H305   C471    1.086   .     S
H310   C870    1.083   1_554 S
O312   Zn329   1.929   .     S
O312   Zn328   1.950   .     S
O312   Zn327   1.956   .     S
O312   Zn330   1.932   .     S
O313   Zn328   1.930   .     S
O314   Zn330   1.942   .     S
O315   Zn329   1.941   .     S
O316   Zn327   1.930   .     S
O319   Zn327   1.930   .     S
O320   Zn330   1.929   .     S
O321   Zn328   1.923   .     S
O322   Zn329   1.934   .     S
O323   Zn330   1.932   .     S
O324   Zn327   1.921   .     S
O325   Zn328   1.933   .     S
O326   Zn329   1.931   .     S
C331   O387    1.273   .     A
C331   O389    1.272   .     A
C331   C337    1.436   .     S
C332   C346    1.389   .     A
C332   H373    1.077   .     S
C332   C358    1.402   .     A
C333   C346    1.410   .     A
C333   C345    1.414   .     A
C333   C348    1.492   .     S
C334   O390    1.276   .     A
C334   C336    1.454   .     S
C334   O388    1.280   .     A
C335   C357    1.421   .     A
C335   C344    1.478   .     S
C335   C347    1.402   .     A
C336   C205    1.334   1_655 S
C336   H231    1.088   1_655 S
C338   C341    1.452   .     S
C338   C537    1.332   .     S
C338   H568    1.088   .     S
C339   C340    1.436   .     S
C340   O385    1.278   .     A
C340   O391    1.278   .     A
C341   O392    1.269   .     A
C341   O386    1.269   .     A
C342   C347    1.387   .     A
C342   C947    1.391   .     S
C342   H970    1.083   .     S
C343   C346    1.454   .     S
C343   O381    1.270   .     A
C343   O379    1.276   .     A
C344   O380    1.283   .     A
C344   O382    1.282   .     A
C345   C943    1.489   1_554 S
C345   C953    1.421   1_554 S
C347   H374    1.083   .     S
C348   O384    1.398   .     S
C348   O383    1.223   .     D
C349   C350    1.405   .     A
C349   C355    1.405   .     A
C349   C939    1.489   .     S
C350   C351    1.398   .     A
C350   H365    1.083   .     S
C351   H366    1.082   .     S
C351   C220    1.397   1_655 S
C352   C354    1.397   .     A
C352   H367    1.082   .     S
C353   H375    1.076   .     S
C353   C936    1.391   1_554 S
C353   C950    1.419   1_554 S
C354   H368    1.081   .     S
C355   C222    1.399   1_655 S
C355   H963    1.083   .     S
C356   C357    1.421   .     A
C356   C947    1.419   .     S
C356   C952    1.430   .     S
C357   C361    1.407   .     A
C358   C950    1.430   1_554 S
C358   C953    1.425   1_554 S
C359   C360    1.400   .     A
C359   C939    1.421   .     S
C359   C952    1.425   .     S
C360   C361    1.381   .     A
C360   H372    1.082   .     S
C361   H377    1.080   .     S
H362   C205    1.086   1_655 S
H364   O384    1.014   .     S
H369   C949    1.083   1_554 S
H371   C537    1.086   .     S
H376   C936    1.083   1_554 S
O378   Zn395   1.929   .     S
O378   Zn394   1.950   .     S
O378   Zn393   1.956   .     S
O378   Zn396   1.932   .     S
O379   Zn394   1.930   .     S
O380   Zn396   1.942   .     S
O381   Zn395   1.941   .     S
O382   Zn393   1.930   .     S
O385   Zn393   1.930   .     S
O386   Zn396   1.929   .     S
O387   Zn394   1.923   .     S
O388   Zn395   1.934   .     S
O389   Zn396   1.932   .     S
O390   Zn393   1.921   .     S
O391   Zn394   1.933   .     S
O392   Zn395   1.931   .     S
C397   O453    1.273   .     A
C397   O455    1.272   .     A
C397   C403    1.436   .     S
C398   C412    1.389   .     A
C398   H439    1.077   .     S
C398   C424    1.402   .     A
C399   C412    1.410   .     A
C399   C411    1.414   .     A
C399   C414    1.492   .     S
C400   O456    1.276   .     A
C400   C402    1.454   .     S
C400   O454    1.280   .     A
C401   C423    1.421   .     A
C401   C410    1.478   .     S
C401   C413    1.402   .     A
C402   C469    1.334   .     S
C402   H495    1.088   .     S
C403   C534    1.334   1_455 S
C403   H560    1.086   1_455 S
C404   C407    1.452   .     S
C404   C9      1.332   1_565 S
C404   H40     1.088   1_565 S
C405   C406    1.436   .     S
C406   O451    1.278   .     A
C406   O457    1.278   .     A
C407   O458    1.269   .     A
C407   O452    1.269   .     A
C408   C413    1.387   .     A
C408   C1013   1.391   .     S
C408   H1036   1.083   .     S
C409   C412    1.454   .     S
C409   O447    1.270   .     A
C409   O445    1.276   .     A
C410   O446    1.283   .     A
C410   O448    1.282   .     A
C411   C1009   1.489   1_554 S
C411   C1019   1.421   1_554 S
C413   H440    1.083   .     S
C414   O450    1.398   .     S
C414   O449    1.223   .     D
C415   C416    1.405   .     A
C415   C421    1.405   .     A
C415   C1005   1.489   .     S
C416   C417    1.398   .     A
C416   H431    1.083   .     S
C417   H432    1.082   .     S
C417   C484    1.397   .     S
C418   C420    1.397   .     A
C418   H433    1.082   .     S
C418   C549    1.397   1_455 S
C419   H441    1.076   .     S
C419   C1002   1.391   1_554 S
C419   C1016   1.419   1_554 S
C420   H434    1.081   .     S
C420   C553    1.399   1_455 S
C421   C486    1.399   .     S
C421   H1029   1.083   .     S
C422   C423    1.421   .     A
C422   C1013   1.419   .     S
C422   C1018   1.430   .     S
C423   C427    1.407   .     A
C424   C1016   1.430   1_554 S
C424   C1019   1.425   1_554 S
C425   C426    1.400   .     A
C425   C1005   1.421   .     S
C425   C1018   1.425   .     S
C426   C427    1.381   .     A
C426   H438    1.082   .     S
C427   H443    1.080   .     S
H428   C469    1.086   .     S
H429   C534    1.088   1_455 S
H430   O450    1.014   .     S
H435   C1015   1.083   1_554 S
H437   C9      1.086   1_565 S
H442   C1002   1.083   1_554 S
O444   Zn461   1.929   .     S
O444   Zn460   1.950   .     S
O444   Zn459   1.956   .     S
O444   Zn462   1.932   .     S
O445   Zn460   1.930   .     S
O446   Zn462   1.942   .     S
O447   Zn461   1.941   .     S
O448   Zn459   1.930   .     S
O451   Zn459   1.930   .     S
O452   Zn462   1.929   .     S
O453   Zn460   1.923   .     S
O454   Zn461   1.934   .     S
O455   Zn462   1.932   .     S
O456   Zn459   1.921   .     S
O457   Zn460   1.933   .     S
O458   Zn461   1.931   .     S
C463   O519    1.273   .     A
C463   O521    1.272   .     A
C463   C469    1.436   .     S
C464   C478    1.389   .     A
C464   H505    1.077   .     S
C464   C490    1.402   .     A
C465   C478    1.410   .     A
C465   C477    1.414   .     A
C465   C480    1.492   .     S
C466   O522    1.276   .     A
C466   C468    1.454   .     S
C466   O520    1.280   .     A
C467   C489    1.421   .     A
C467   C476    1.478   .     S
C467   C479    1.402   .     A
C468   C535    1.334   .     S
C468   H561    1.088   .     S
C470   C473    1.452   .     S
C470   C75     1.332   1_565 S
C470   H106    1.088   1_565 S
C471   C472    1.436   .     S
C472   O517    1.278   .     A
C472   O523    1.278   .     A
C473   O524    1.269   .     A
C473   O518    1.269   .     A
C474   C479    1.387   .     A
C474   C1079   1.391   .     S
C474   H1102   1.083   .     S
C475   C478    1.454   .     S
C475   O513    1.270   .     A
C475   O511    1.276   .     A
C476   O512    1.283   .     A
C476   O514    1.282   .     A
C477   C1075   1.489   1_554 S
C477   C1085   1.421   1_554 S
C479   H506    1.083   .     S
C480   O516    1.398   .     S
C480   O515    1.223   .     D
C481   C482    1.405   .     A
C481   C487    1.405   .     A
C481   C1071   1.489   .     S
C482   C483    1.398   .     A
C482   H497    1.083   .     S
C483   H498    1.082   .     S
C483   C550    1.397   .     S
C484   C486    1.397   .     A
C484   H499    1.082   .     S
C485   H507    1.076   .     S
C485   C1068   1.391   1_554 S
C485   C1082   1.419   1_554 S
C486   H500    1.081   .     S
C487   C552    1.399   .     S
C487   H1095   1.083   .     S
C488   C489    1.421   .     A
C488   C1079   1.419   .     S
C488   C1084   1.430   .     S
C489   C493    1.407   .     A
C490   C1082   1.430   1_554 S
C490   C1085   1.425   1_554 S
C491   C492    1.400   .     A
C491   C1071   1.421   .     S
C491   C1084   1.425   .     S
C492   C493    1.381   .     A
C492   H504    1.082   .     S
C493   H509    1.080   .     S
H494   C535    1.086   .     S
H496   O516    1.014   .     S
H501   C1081   1.083   1_554 S
H503   C75     1.086   1_565 S
H508   C1068   1.083   1_554 S
O510   Zn527   1.929   .     S
O510   Zn526   1.950   .     S
O510   Zn525   1.956   .     S
O510   Zn528   1.932   .     S
O511   Zn526   1.930   .     S
O512   Zn528   1.942   .     S
O513   Zn527   1.941   .     S
O514   Zn525   1.930   .     S
O517   Zn525   1.930   .     S
O518   Zn528   1.929   .     S
O519   Zn526   1.923   .     S
O520   Zn527   1.934   .     S
O521   Zn528   1.932   .     S
O522   Zn525   1.921   .     S
O523   Zn526   1.933   .     S
O524   Zn527   1.931   .     S
C529   O585    1.273   .     A
C529   O587    1.272   .     A
C529   C535    1.436   .     S
C530   C544    1.389   .     A
C530   H571    1.077   .     S
C530   C556    1.402   .     A
C531   C544    1.410   .     A
C531   C543    1.414   .     A
C531   C546    1.492   .     S
C532   O588    1.276   .     A
C532   C534    1.454   .     S
C532   O586    1.280   .     A
C533   C555    1.421   .     A
C533   C542    1.478   .     S
C533   C545    1.402   .     A
C534   C403    1.334   1_655 S
C534   H429    1.088   1_655 S
C536   C539    1.452   .     S
C536   C141    1.332   1_565 S
C536   H172    1.088   1_565 S
C537   C538    1.436   .     S
C538   O583    1.278   .     A
C538   O589    1.278   .     A
C539   O590    1.269   .     A
C539   O584    1.269   .     A
C540   C545    1.387   .     A
C540   C1145   1.391   .     S
C540   H1168   1.083   .     S
C541   C544    1.454   .     S
C541   O579    1.270   .     A
C541   O577    1.276   .     A
C542   O578    1.283   .     A
C542   O580    1.282   .     A
C543   C1141   1.489   1_554 S
C543   C1151   1.421   1_554 S
C545   H572    1.083   .     S
C546   O582    1.398   .     S
C546   O581    1.223   .     D
C547   C548    1.405   .     A
C547   C553    1.405   .     A
C547   C1137   1.489   .     S
C548   C549    1.398   .     A
C548   H563    1.083   .     S
C549   H564    1.082   .     S
C549   C418    1.397   1_655 S
C550   C552    1.397   .     A
C550   H565    1.082   .     S
C551   H573    1.076   .     S
C551   C1134   1.391   1_554 S
C551   C1148   1.419   1_554 S
C552   H566    1.081   .     S
C553   C420    1.399   1_655 S
C553   H1161   1.083   .     S
C554   C555    1.421   .     A
C554   C1145   1.419   .     S
C554   C1150   1.430   .     S
C555   C559    1.407   .     A
C556   C1148   1.430   1_554 S
C556   C1151   1.425   1_554 S
C557   C558    1.400   .     A
C557   C1137   1.421   .     S
C557   C1150   1.425   .     S
C558   C559    1.381   .     A
C558   H570    1.082   .     S
C559   H575    1.080   .     S
H560   C403    1.086   1_655 S
H562   O582    1.014   .     S
H567   C1147   1.083   1_554 S
H569   C141    1.086   1_565 S
H574   C1134   1.083   1_554 S
O576   Zn593   1.929   .     S
O576   Zn592   1.950   .     S
O576   Zn591   1.956   .     S
O576   Zn594   1.932   .     S
O577   Zn592   1.930   .     S
O578   Zn594   1.942   .     S
O579   Zn593   1.941   .     S
O580   Zn591   1.930   .     S
O583   Zn591   1.930   .     S
O584   Zn594   1.929   .     S
O585   Zn592   1.923   .     S
O586   Zn593   1.934   .     S
O587   Zn594   1.932   .     S
O588   Zn591   1.921   .     S
O589   Zn592   1.933   .     S
O590   Zn593   1.931   .     S
C595   O651    1.273   .     A
C595   O653    1.272   .     A
C595   C601    1.436   .     S
C596   C610    1.389   .     A
C596   H637    1.077   .     S
C596   C622    1.402   .     A
C597   C610    1.410   .     A
C597   C609    1.414   .     A
C597   C612    1.492   .     S
C598   O654    1.276   .     A
C598   C600    1.454   .     S
C598   O652    1.280   .     A
C599   C621    1.421   .     A
C599   C608    1.478   .     S
C599   C611    1.402   .     A
C600   C667    1.334   .     S
C600   H693    1.088   .     S
C601   C732    1.334   1_455 S
C601   H758    1.086   1_455 S
C602   C605    1.452   .     S
C602   C801    1.332   .     S
C602   H832    1.088   .     S
C603   C604    1.436   .     S
C603   C998    1.332   1_545 S
C603   H1031   1.086   1_545 S
C604   O649    1.278   .     A
C604   O655    1.278   .     A
C605   O656    1.269   .     A
C605   O650    1.269   .     A
C606   C611    1.387   .     A
C606   C23     1.391   1_556 S
C606   H46     1.083   1_556 S
C607   C610    1.454   .     S
C607   O645    1.270   .     A
C607   O643    1.276   .     A
C608   O644    1.283   .     A
C608   O646    1.282   .     A
C611   H638    1.083   .     S
C612   O648    1.398   .     S
C612   O647    1.223   .     D
C613   C614    1.405   .     A
C613   C619    1.405   .     A
C613   C15     1.489   1_556 S
C614   C615    1.398   .     A
C614   H629    1.083   .     S
C615   H630    1.082   .     S
C615   C682    1.397   .     S
C616   C618    1.397   .     A
C616   H631    1.082   .     S
C616   C747    1.397   1_455 S
C617   H639    1.076   .     S
C618   H632    1.081   .     S
C618   C751    1.399   1_455 S
C619   C684    1.399   .     S
C619   H39     1.083   1_556 S
C620   C621    1.421   .     A
C620   C23     1.419   1_556 S
C620   C28     1.430   1_556 S
C621   C625    1.407   .     A
C623   C624    1.400   .     A
C623   C15     1.421   1_556 S
C623   C28     1.425   1_556 S
C624   C625    1.381   .     A
C624   H636    1.082   .     S
C625   H641    1.080   .     S
H626   C667    1.086   .     S
H627   C732    1.088   1_455 S
H628   O648    1.014   .     S
H634   C998    1.088   1_545 S
H635   C801    1.086   .     S
O642   Zn659   1.929   .     S
O642   Zn658   1.950   .     S
O642   Zn657   1.956   .     S
O642   Zn660   1.932   .     S
O643   Zn658   1.930   .     S
O644   Zn660   1.942   .     S
O645   Zn659   1.941   .     S
O646   Zn657   1.930   .     S
O649   Zn657   1.930   .     S
O650   Zn660   1.929   .     S
O651   Zn658   1.923   .     S
O652   Zn659   1.934   .     S
O653   Zn660   1.932   .     S
O654   Zn657   1.921   .     S
O655   Zn658   1.933   .     S
O656   Zn659   1.931   .     S
C661   O717    1.273   .     A
C661   O719    1.272   .     A
C661   C667    1.436   .     S
C662   C676    1.389   .     A
C662   H703    1.077   .     S
C662   C688    1.402   .     A
C663   C676    1.410   .     A
C663   C675    1.414   .     A
C663   C678    1.492   .     S
C664   O720    1.276   .     A
C664   C666    1.454   .     S
C664   O718    1.280   .     A
C665   C687    1.421   .     A
C665   C674    1.478   .     S
C665   C677    1.402   .     A
C666   C733    1.334   .     S
C666   H759    1.088   .     S
C668   C671    1.452   .     S
C668   C867    1.332   .     S
C668   H898    1.088   .     S
C669   C670    1.436   .     S
C669   C1064   1.332   1_545 S
C669   H1097   1.086   1_545 S
C670   O715    1.278   .     A
C670   O721    1.278   .     A
C671   O722    1.269   .     A
C671   O716    1.269   .     A
C672   C677    1.387   .     A
C672   C89     1.391   1_556 S
C672   H112    1.083   1_556 S
C673   C676    1.454   .     S
C673   O711    1.270   .     A
C673   O709    1.276   .     A
C674   O710    1.283   .     A
C674   O712    1.282   .     A
C677   H704    1.083   .     S
C678   O714    1.398   .     S
C678   O713    1.223   .     D
C679   C680    1.405   .     A
C679   C685    1.405   .     A
C679   C81     1.489   1_556 S
C680   C681    1.398   .     A
C680   H695    1.083   .     S
C681   H696    1.082   .     S
C681   C748    1.397   .     S
C682   C684    1.397   .     A
C682   H697    1.082   .     S
C683   H705    1.076   .     S
C684   H698    1.081   .     S
C685   C750    1.399   .     S
C685   H105    1.083   1_556 S
C686   C687    1.421   .     A
C686   C89     1.419   1_556 S
C686   C94     1.430   1_556 S
C687   C691    1.407   .     A
C689   C690    1.400   .     A
C689   C81     1.421   1_556 S
C689   C94     1.425   1_556 S
C690   C691    1.381   .     A
C690   H702    1.082   .     S
C691   H707    1.080   .     S
H692   C733    1.086   .     S
H694   O714    1.014   .     S
H700   C1064   1.088   1_545 S
H701   C867    1.086   .     S
O708   Zn725   1.929   .     S
O708   Zn724   1.950   .     S
O708   Zn723   1.956   .     S
O708   Zn726   1.932   .     S
O709   Zn724   1.930   .     S
O710   Zn726   1.942   .     S
O711   Zn725   1.941   .     S
O712   Zn723   1.930   .     S
O715   Zn723   1.930   .     S
O716   Zn726   1.929   .     S
O717   Zn724   1.923   .     S
O718   Zn725   1.934   .     S
O719   Zn726   1.932   .     S
O720   Zn723   1.921   .     S
O721   Zn724   1.933   .     S
O722   Zn725   1.931   .     S
C727   O783    1.273   .     A
C727   O785    1.272   .     A
C727   C733    1.436   .     S
C728   C742    1.389   .     A
C728   H769    1.077   .     S
C728   C754    1.402   .     A
C729   C742    1.410   .     A
C729   C741    1.414   .     A
C729   C744    1.492   .     S
C730   O786    1.276   .     A
C730   C732    1.454   .     S
C730   O784    1.280   .     A
C731   C753    1.421   .     A
C731   C740    1.478   .     S
C731   C743    1.402   .     A
C732   C601    1.334   1_655 S
C732   H627    1.088   1_655 S
C734   C737    1.452   .     S
C734   C933    1.332   .     S
C734   H964    1.088   .     S
C735   C736    1.436   .     S
C735   C1130   1.332   1_545 S
C735   H1163   1.086   1_545 S
C736   O781    1.278   .     A
C736   O787    1.278   .     A
C737   O788    1.269   .     A
C737   O782    1.269   .     A
C738   C743    1.387   .     A
C738   C155    1.391   1_556 S
C738   H178    1.083   1_556 S
C739   C742    1.454   .     S
C739   O777    1.270   .     A
C739   O775    1.276   .     A
C740   O776    1.283   .     A
C740   O778    1.282   .     A
C743   H770    1.083   .     S
C744   O780    1.398   .     S
C744   O779    1.223   .     D
C745   C746    1.405   .     A
C745   C751    1.405   .     A
C745   C147    1.489   1_556 S
C746   C747    1.398   .     A
C746   H761    1.083   .     S
C747   H762    1.082   .     S
C747   C616    1.397   1_655 S
C748   C750    1.397   .     A
C748   H763    1.082   .     S
C749   H771    1.076   .     S
C750   H764    1.081   .     S
C751   C618    1.399   1_655 S
C751   H171    1.083   1_556 S
C752   C753    1.421   .     A
C752   C155    1.419   1_556 S
C752   C160    1.430   1_556 S
C753   C757    1.407   .     A
C755   C756    1.400   .     A
C755   C147    1.421   1_556 S
C755   C160    1.425   1_556 S
C756   C757    1.381   .     A
C756   H768    1.082   .     S
C757   H773    1.080   .     S
H758   C601    1.086   1_655 S
H760   O780    1.014   .     S
H766   C1130   1.088   1_545 S
H767   C933    1.086   .     S
O774   Zn791   1.929   .     S
O774   Zn790   1.950   .     S
O774   Zn789   1.956   .     S
O774   Zn792   1.932   .     S
O775   Zn790   1.930   .     S
O776   Zn792   1.942   .     S
O777   Zn791   1.941   .     S
O778   Zn789   1.930   .     S
O781   Zn789   1.930   .     S
O782   Zn792   1.929   .     S
O783   Zn790   1.923   .     S
O784   Zn791   1.934   .     S
O785   Zn792   1.932   .     S
O786   Zn789   1.921   .     S
O787   Zn790   1.933   .     S
O788   Zn791   1.931   .     S
C793   O849    1.273   .     A
C793   O851    1.272   .     A
C793   C799    1.436   .     S
C794   C808    1.389   .     A
C794   H835    1.077   .     S
C794   C820    1.402   .     A
C795   C808    1.410   .     A
C795   C807    1.414   .     A
C795   C810    1.492   .     S
C796   O852    1.276   .     A
C796   C798    1.454   .     S
C796   O850    1.280   .     A
C797   C819    1.421   .     A
C797   C806    1.478   .     S
C797   C809    1.402   .     A
C798   C865    1.334   .     S
C798   H891    1.088   .     S
C799   C930    1.334   1_455 S
C799   H956    1.086   1_455 S
C800   C803    1.452   .     S
C800   C999    1.332   .     S
C800   H1030   1.088   .     S
C801   C802    1.436   .     S
C802   O847    1.278   .     A
C802   O853    1.278   .     A
C803   O854    1.269   .     A
C803   O848    1.269   .     A
C804   C809    1.387   .     A
C804   C221    1.391   1_556 S
C804   H244    1.083   1_556 S
C805   C808    1.454   .     S
C805   O843    1.270   .     A
C805   O841    1.276   .     A
C806   O842    1.283   .     A
C806   O844    1.282   .     A
C809   H836    1.083   .     S
C810   O846    1.398   .     S
C810   O845    1.223   .     D
C811   C812    1.405   .     A
C811   C817    1.405   .     A
C811   C213    1.489   1_556 S
C812   C813    1.398   .     A
C812   H827    1.083   .     S
C813   H828    1.082   .     S
C813   C880    1.397   .     S
C814   C816    1.397   .     A
C814   H829    1.082   .     S
C814   C945    1.397   1_455 S
C815   H837    1.076   .     S
C816   H830    1.081   .     S
C816   C949    1.399   1_455 S
C817   C882    1.399   .     S
C817   H237    1.083   1_556 S
C818   C819    1.421   .     A
C818   C221    1.419   1_556 S
C818   C226    1.430   1_556 S
C819   C823    1.407   .     A
C821   C822    1.400   .     A
C821   C213    1.421   1_556 S
C821   C226    1.425   1_556 S
C822   C823    1.381   .     A
C822   H834    1.082   .     S
C823   H839    1.080   .     S
H824   C865    1.086   .     S
H825   C930    1.088   1_455 S
H826   O846    1.014   .     S
H833   C999    1.086   .     S
O840   Zn857   1.929   .     S
O840   Zn856   1.950   .     S
O840   Zn855   1.956   .     S
O840   Zn858   1.932   .     S
O841   Zn856   1.930   .     S
O842   Zn858   1.942   .     S
O843   Zn857   1.941   .     S
O844   Zn855   1.930   .     S
O847   Zn855   1.930   .     S
O848   Zn858   1.929   .     S
O849   Zn856   1.923   .     S
O850   Zn857   1.934   .     S
O851   Zn858   1.932   .     S
O852   Zn855   1.921   .     S
O853   Zn856   1.933   .     S
O854   Zn857   1.931   .     S
C859   O915    1.273   .     A
C859   O917    1.272   .     A
C859   C865    1.436   .     S
C860   C874    1.389   .     A
C860   H901    1.077   .     S
C860   C886    1.402   .     A
C861   C874    1.410   .     A
C861   C873    1.414   .     A
C861   C876    1.492   .     S
C862   O918    1.276   .     A
C862   C864    1.454   .     S
C862   O916    1.280   .     A
C863   C885    1.421   .     A
C863   C872    1.478   .     S
C863   C875    1.402   .     A
C864   C931    1.334   .     S
C864   H957    1.088   .     S
C866   C869    1.452   .     S
C866   C1065   1.332   .     S
C866   H1096   1.088   .     S
C867   C868    1.436   .     S
C868   O913    1.278   .     A
C868   O919    1.278   .     A
C869   O920    1.269   .     A
C869   O914    1.269   .     A
C870   C875    1.387   .     A
C870   C287    1.391   1_556 S
C870   H310    1.083   1_556 S
C871   C874    1.454   .     S
C871   O909    1.270   .     A
C871   O907    1.276   .     A
C872   O908    1.283   .     A
C872   O910    1.282   .     A
C875   H902    1.083   .     S
C876   O912    1.398   .     S
C876   O911    1.223   .     D
C877   C878    1.405   .     A
C877   C883    1.405   .     A
C877   C279    1.489   1_556 S
C878   C879    1.398   .     A
C878   H893    1.083   .     S
C879   H894    1.082   .     S
C879   C946    1.397   .     S
C880   C882    1.397   .     A
C880   H895    1.082   .     S
C881   H903    1.076   .     S
C882   H896    1.081   .     S
C883   C948    1.399   .     S
C883   H303    1.083   1_556 S
C884   C885    1.421   .     A
C884   C287    1.419   1_556 S
C884   C292    1.430   1_556 S
C885   C889    1.407   .     A
C887   C888    1.400   .     A
C887   C279    1.421   1_556 S
C887   C292    1.425   1_556 S
C888   C889    1.381   .     A
C888   H900    1.082   .     S
C889   H905    1.080   .     S
H890   C931    1.086   .     S
H892   O912    1.014   .     S
H899   C1065   1.086   .     S
O906   Zn923   1.929   .     S
O906   Zn922   1.950   .     S
O906   Zn921   1.956   .     S
O906   Zn924   1.932   .     S
O907   Zn922   1.930   .     S
O908   Zn924   1.942   .     S
O909   Zn923   1.941   .     S
O910   Zn921   1.930   .     S
O913   Zn921   1.930   .     S
O914   Zn924   1.929   .     S
O915   Zn922   1.923   .     S
O916   Zn923   1.934   .     S
O917   Zn924   1.932   .     S
O918   Zn921   1.921   .     S
O919   Zn922   1.933   .     S
O920   Zn923   1.931   .     S
C925   O981    1.273   .     A
C925   O983    1.272   .     A
C925   C931    1.436   .     S
C926   C940    1.389   .     A
C926   H967    1.077   .     S
C926   C952    1.402   .     A
C927   C940    1.410   .     A
C927   C939    1.414   .     A
C927   C942    1.492   .     S
C928   O984    1.276   .     A
C928   C930    1.454   .     S
C928   O982    1.280   .     A
C929   C951    1.421   .     A
C929   C938    1.478   .     S
C929   C941    1.402   .     A
C930   C799    1.334   1_655 S
C930   H825    1.088   1_655 S
C932   C935    1.452   .     S
C932   C1131   1.332   .     S
C932   H1162   1.088   .     S
C933   C934    1.436   .     S
C934   O979    1.278   .     A
C934   O985    1.278   .     A
C935   O986    1.269   .     A
C935   O980    1.269   .     A
C936   C941    1.387   .     A
C936   C353    1.391   1_556 S
C936   H376    1.083   1_556 S
C937   C940    1.454   .     S
C937   O975    1.270   .     A
C937   O973    1.276   .     A
C938   O974    1.283   .     A
C938   O976    1.282   .     A
C941   H968    1.083   .     S
C942   O978    1.398   .     S
C942   O977    1.223   .     D
C943   C944    1.405   .     A
C943   C949    1.405   .     A
C943   C345    1.489   1_556 S
C944   C945    1.398   .     A
C944   H959    1.083   .     S
C945   H960    1.082   .     S
C945   C814    1.397   1_655 S
C946   C948    1.397   .     A
C946   H961    1.082   .     S
C947   H969    1.076   .     S
C948   H962    1.081   .     S
C949   C816    1.399   1_655 S
C949   H369    1.083   1_556 S
C950   C951    1.421   .     A
C950   C353    1.419   1_556 S
C950   C358    1.430   1_556 S
C951   C955    1.407   .     A
C953   C954    1.400   .     A
C953   C345    1.421   1_556 S
C953   C358    1.425   1_556 S
C954   C955    1.381   .     A
C954   H966    1.082   .     S
C955   H971    1.080   .     S
H956   C799    1.086   1_655 S
H958   O978    1.014   .     S
H965   C1131   1.086   .     S
O972   Zn989   1.929   .     S
O972   Zn988   1.950   .     S
O972   Zn987   1.956   .     S
O972   Zn990   1.932   .     S
O973   Zn988   1.930   .     S
O974   Zn990   1.942   .     S
O975   Zn989   1.941   .     S
O976   Zn987   1.930   .     S
O979   Zn987   1.930   .     S
O980   Zn990   1.929   .     S
O981   Zn988   1.923   .     S
O982   Zn989   1.934   .     S
O983   Zn990   1.932   .     S
O984   Zn987   1.921   .     S
O985   Zn988   1.933   .     S
O986   Zn989   1.931   .     S
C991   O1047   1.273   .     A
C991   O1049   1.272   .     A
C991   C997    1.436   .     S
C992   C1006   1.389   .     A
C992   H1033   1.077   .     S
C992   C1018   1.402   .     A
C993   C1006   1.410   .     A
C993   C1005   1.414   .     A
C993   C1008   1.492   .     S
C994   O1050   1.276   .     A
C994   C996    1.454   .     S
C994   O1048   1.280   .     A
C995   C1017   1.421   .     A
C995   C1004   1.478   .     S
C995   C1007   1.402   .     A
C996   C1063   1.334   .     S
C996   H1089   1.088   .     S
C997   C1128   1.334   1_455 S
C997   H1154   1.086   1_455 S
C998   C1001   1.452   .     S
C998   C603    1.332   1_565 S
C998   H634    1.088   1_565 S
C999   C1000   1.436   .     S
C1000  O1045   1.278   .     A
C1000  O1051   1.278   .     A
C1001  O1052   1.269   .     A
C1001  O1046   1.269   .     A
C1002  C1007   1.387   .     A
C1002  C419    1.391   1_556 S
C1002  H442    1.083   1_556 S
C1003  C1006   1.454   .     S
C1003  O1041   1.270   .     A
C1003  O1039   1.276   .     A
C1004  O1040   1.283   .     A
C1004  O1042   1.282   .     A
C1007  H1034   1.083   .     S
C1008  O1044   1.398   .     S
C1008  O1043   1.223   .     D
C1009  C1010   1.405   .     A
C1009  C1015   1.405   .     A
C1009  C411    1.489   1_556 S
C1010  C1011   1.398   .     A
C1010  H1025   1.083   .     S
C1011  H1026   1.082   .     S
C1011  C1078   1.397   .     S
C1012  C1014   1.397   .     A
C1012  H1027   1.082   .     S
C1012  C1143   1.397   1_455 S
C1013  H1035   1.076   .     S
C1014  H1028   1.081   .     S
C1014  C1147   1.399   1_455 S
C1015  C1080   1.399   .     S
C1015  H435    1.083   1_556 S
C1016  C1017   1.421   .     A
C1016  C419    1.419   1_556 S
C1016  C424    1.430   1_556 S
C1017  C1021   1.407   .     A
C1019  C1020   1.400   .     A
C1019  C411    1.421   1_556 S
C1019  C424    1.425   1_556 S
C1020  C1021   1.381   .     A
C1020  H1032   1.082   .     S
C1021  H1037   1.080   .     S
H1022  C1063   1.086   .     S
H1023  C1128   1.088   1_455 S
H1024  O1044   1.014   .     S
H1031  C603    1.086   1_565 S
O1038  Zn1055  1.929   .     S
O1038  Zn1054  1.950   .     S
O1038  Zn1053  1.956   .     S
O1038  Zn1056  1.932   .     S
O1039  Zn1054  1.930   .     S
O1040  Zn1056  1.942   .     S
O1041  Zn1055  1.941   .     S
O1042  Zn1053  1.930   .     S
O1045  Zn1053  1.930   .     S
O1046  Zn1056  1.929   .     S
O1047  Zn1054  1.923   .     S
O1048  Zn1055  1.934   .     S
O1049  Zn1056  1.932   .     S
O1050  Zn1053  1.921   .     S
O1051  Zn1054  1.933   .     S
O1052  Zn1055  1.931   .     S
C1057  O1113   1.273   .     A
C1057  O1115   1.272   .     A
C1057  C1063   1.436   .     S
C1058  C1072   1.389   .     A
C1058  H1099   1.077   .     S
C1058  C1084   1.402   .     A
C1059  C1072   1.410   .     A
C1059  C1071   1.414   .     A
C1059  C1074   1.492   .     S
C1060  O1116   1.276   .     A
C1060  C1062   1.454   .     S
C1060  O1114   1.280   .     A
C1061  C1083   1.421   .     A
C1061  C1070   1.478   .     S
C1061  C1073   1.402   .     A
C1062  C1129   1.334   .     S
C1062  H1155   1.088   .     S
C1064  C1067   1.452   .     S
C1064  C669    1.332   1_565 S
C1064  H700    1.088   1_565 S
C1065  C1066   1.436   .     S
C1066  O1111   1.278   .     A
C1066  O1117   1.278   .     A
C1067  O1118   1.269   .     A
C1067  O1112   1.269   .     A
C1068  C1073   1.387   .     A
C1068  C485    1.391   1_556 S
C1068  H508    1.083   1_556 S
C1069  C1072   1.454   .     S
C1069  O1107   1.270   .     A
C1069  O1105   1.276   .     A
C1070  O1106   1.283   .     A
C1070  O1108   1.282   .     A
C1073  H1100   1.083   .     S
C1074  O1110   1.398   .     S
C1074  O1109   1.223   .     D
C1075  C1076   1.405   .     A
C1075  C1081   1.405   .     A
C1075  C477    1.489   1_556 S
C1076  C1077   1.398   .     A
C1076  H1091   1.083   .     S
C1077  H1092   1.082   .     S
C1077  C1144   1.397   .     S
C1078  C1080   1.397   .     A
C1078  H1093   1.082   .     S
C1079  H1101   1.076   .     S
C1080  H1094   1.081   .     S
C1081  C1146   1.399   .     S
C1081  H501    1.083   1_556 S
C1082  C1083   1.421   .     A
C1082  C485    1.419   1_556 S
C1082  C490    1.430   1_556 S
C1083  C1087   1.407   .     A
C1085  C1086   1.400   .     A
C1085  C477    1.421   1_556 S
C1085  C490    1.425   1_556 S
C1086  C1087   1.381   .     A
C1086  H1098   1.082   .     S
C1087  H1103   1.080   .     S
H1088  C1129   1.086   .     S
H1090  O1110   1.014   .     S
H1097  C669    1.086   1_565 S
O1104  Zn1121  1.929   .     S
O1104  Zn1120  1.950   .     S
O1104  Zn1119  1.956   .     S
O1104  Zn1122  1.932   .     S
O1105  Zn1120  1.930   .     S
O1106  Zn1122  1.942   .     S
O1107  Zn1121  1.941   .     S
O1108  Zn1119  1.930   .     S
O1111  Zn1119  1.930   .     S
O1112  Zn1122  1.929   .     S
O1113  Zn1120  1.923   .     S
O1114  Zn1121  1.934   .     S
O1115  Zn1122  1.932   .     S
O1116  Zn1119  1.921   .     S
O1117  Zn1120  1.933   .     S
O1118  Zn1121  1.931   .     S
C1123  O1179   1.273   .     A
C1123  O1181   1.272   .     A
C1123  C1129   1.436   .     S
C1124  C1138   1.389   .     A
C1124  H1165   1.077   .     S
C1124  C1150   1.402   .     A
C1125  C1138   1.410   .     A
C1125  C1137   1.414   .     A
C1125  C1140   1.492   .     S
C1126  O1182   1.276   .     A
C1126  C1128   1.454   .     S
C1126  O1180   1.280   .     A
C1127  C1149   1.421   .     A
C1127  C1136   1.478   .     S
C1127  C1139   1.402   .     A
C1128  C997    1.334   1_655 S
C1128  H1023   1.088   1_655 S
C1130  C1133   1.452   .     S
C1130  C735    1.332   1_565 S
C1130  H766    1.088   1_565 S
C1131  C1132   1.436   .     S
C1132  O1177   1.278   .     A
C1132  O1183   1.278   .     A
C1133  O1184   1.269   .     A
C1133  O1178   1.269   .     A
C1134  C1139   1.387   .     A
C1134  C551    1.391   1_556 S
C1134  H574    1.083   1_556 S
C1135  C1138   1.454   .     S
C1135  O1173   1.270   .     A
C1135  O1171   1.276   .     A
C1136  O1172   1.283   .     A
C1136  O1174   1.282   .     A
C1139  H1166   1.083   .     S
C1140  O1176   1.398   .     S
C1140  O1175   1.223   .     D
C1141  C1142   1.405   .     A
C1141  C1147   1.405   .     A
C1141  C543    1.489   1_556 S
C1142  C1143   1.398   .     A
C1142  H1157   1.083   .     S
C1143  H1158   1.082   .     S
C1143  C1012   1.397   1_655 S
C1144  C1146   1.397   .     A
C1144  H1159   1.082   .     S
C1145  H1167   1.076   .     S
C1146  H1160   1.081   .     S
C1147  C1014   1.399   1_655 S
C1147  H567    1.083   1_556 S
C1148  C1149   1.421   .     A
C1148  C551    1.419   1_556 S
C1148  C556    1.430   1_556 S
C1149  C1153   1.407   .     A
C1151  C1152   1.400   .     A
C1151  C543    1.421   1_556 S
C1151  C556    1.425   1_556 S
C1152  C1153   1.381   .     A
C1152  H1164   1.082   .     S
C1153  H1169   1.080   .     S
H1154  C997    1.086   1_655 S
H1156  O1176   1.014   .     S
H1163  C735    1.086   1_565 S
O1170  Zn1187  1.929   .     S
O1170  Zn1186  1.950   .     S
O1170  Zn1185  1.956   .     S
O1170  Zn1188  1.932   .     S
O1171  Zn1186  1.930   .     S
O1172  Zn1188  1.942   .     S
O1173  Zn1187  1.941   .     S
O1174  Zn1185  1.930   .     S
O1177  Zn1185  1.930   .     S
O1178  Zn1188  1.929   .     S
O1179  Zn1186  1.923   .     S
O1180  Zn1187  1.934   .     S
O1181  Zn1188  1.932   .     S
O1182  Zn1185  1.921   .     S
O1183  Zn1186  1.933   .     S
O1184  Zn1187  1.931   .     S
