data_str_m2_o1_o18_pcu_sym.204
_audit_creation_date              2020-01-03
_audit_creation_method            'Materials Studio'
_symmetry_space_group_name_H-M    'P1'
_symmetry_Int_Tables_number       1
_symmetry_cell_setting            triclinic
loop_
_symmetry_equiv_pos_as_xyz
  x,y,z
_cell_length_a                    28.5902
_cell_length_b                    32.3861
_cell_length_c                    30.9957
_cell_angle_alpha                 89.8134
_cell_angle_beta                  74.4598
_cell_angle_gamma                 89.7033
loop_
_atom_site_label
_atom_site_type_symbol
_atom_site_fract_x
_atom_site_fract_y
_atom_site_fract_z
_atom_site_U_iso_or_equiv
_atom_site_adp_type
_atom_site_occupancy
C1     C     0.33316   0.08743   0.25104   0.00000  Uiso   1.00
C2     C     0.00018   0.24590   0.24895   0.00000  Uiso   1.00
C3     C     0.19181   0.19188   0.04456   0.00000  Uiso   1.00
C4     C     0.13824   0.15990   0.45266   0.00000  Uiso   1.00
C5     C     0.24021   0.19735   0.02180   0.00000  Uiso   1.00
C6     C     0.08969   0.15520   0.47526   0.00000  Uiso   1.00
C7     C     0.30983   0.02241   0.22333   0.00000  Uiso   1.00
C8     C     0.02350   0.31091   0.27666   0.00000  Uiso   1.00
C9     C     0.30993   0.31298   0.22163   0.00000  Uiso   1.00
C10    C     0.02342   0.02034   0.27835   0.00000  Uiso   1.00
C11    C     0.00004   0.29050   0.24873   0.00000  Uiso   1.00
C12    C     0.33329   0.04283   0.25126   0.00000  Uiso   1.00
C13    C     0.18215   0.14589   0.28226   0.00000  Uiso   1.00
C14    C     0.15118   0.18746   0.21774   0.00000  Uiso   1.00
C15    C     0.13258   0.14600   0.28231   0.00000  Uiso   1.00
C16    C     0.20075   0.18734   0.21769   0.00000  Uiso   1.00
C17    C     0.30609   0.16715   0.33603   0.00000  Uiso   1.00
C18    C     0.02724   0.16662   0.16394   0.00000  Uiso   1.00
C19    C     0.29092   0.17127   0.38490   0.00000  Uiso   1.00
C20    C     0.04220   0.16595   0.11481   0.00000  Uiso   1.00
C21    C     0.30582   0.19399   0.45413   0.00000  Uiso   1.00
C22    C     0.02510   0.15368   0.04375   0.00000  Uiso   1.00
C23    C     0.32287   0.18568   0.40856   0.00000  Uiso   1.00
C24    C     0.00909   0.15708   0.09013   0.00000  Uiso   1.00
C25    C     0.24228   0.16424   0.40734   0.00000  Uiso   1.00
C26    C     0.09100   0.17281   0.09262   0.00000  Uiso   1.00
C27    C     0.22365   0.17398   0.45289   0.00000  Uiso   1.00
C28    C     0.10795   0.17062   0.04573   0.00000  Uiso   1.00
C29    C     0.25662   0.18832   0.47641   0.00000  Uiso   1.00
C30    C     0.07418   0.15994   0.02146   0.00000  Uiso   1.00
C31    C     0.17339   0.17003   0.47555   0.00000  Uiso   1.00
C32    C     0.15760   0.17740   0.02252   0.00000  Uiso   1.00
Cu33   Cu    0.04689   0.16667   0.25000   0.00000  Uiso   1.00
Cu34   Cu    0.28645   0.16666   0.25000   0.00000  Uiso   1.00
H35    H     0.26503   0.20877   0.03998   0.00000  Uiso   1.00
H36    H     0.06416   0.14723   0.45635   0.00000  Uiso   1.00
H37    H     0.11535   0.17855   0.11298   0.00000  Uiso   1.00
H38    H     0.21978   0.15107   0.38820   0.00000  Uiso   1.00
H39    H     0.30451   0.15160   0.10670   0.00000  Uiso   1.00
H40    H     0.02729   0.19153   0.39168   0.00000  Uiso   1.00
H41    H     0.33092   0.20571   0.47180   0.00000  Uiso   1.00
H42    H     0.33255   0.14545   0.02535   0.00000  Uiso   1.00
H43    H     0.18230   0.20055   0.07933   0.00000  Uiso   1.00
H44    H     0.14662   0.15627   0.41690   0.00000  Uiso   1.00
H45    H     0.29234   0.03982   0.20203   0.00000  Uiso   1.00
H46    H     0.04100   0.29351   0.29796   0.00000  Uiso   1.00
H47    H     0.19329   0.12906   0.30807   0.00000  Uiso   1.00
H48    H     0.14004   0.20429   0.19195   0.00000  Uiso   1.00
H49    H     0.10651   0.12951   0.30827   0.00000  Uiso   1.00
H50    H     0.22682   0.20384   0.19174   0.00000  Uiso   1.00
N51    N     0.11736   0.16668   0.24999   0.00000  Uiso   1.00
N52    N     0.21597   0.16666   0.25001   0.00000  Uiso   1.00
O53    O     0.03958   0.10655   0.25000   0.00000  Uiso   1.00
O54    O     0.29375   0.22678   0.25000   0.00000  Uiso   1.00
O55    O     0.29372   0.10654   0.25000   0.00000  Uiso   1.00
O56    O     0.03961   0.22679   0.24999   0.00000  Uiso   1.00
O57    O     0.01852   0.16668   0.31491   0.00000  Uiso   1.00
O58    O     0.31481   0.16666   0.18508   0.00000  Uiso   1.00
O59    O     0.27267   0.16667   0.31492   0.00000  Uiso   1.00
O60    O     0.06067   0.16667   0.18508   0.00000  Uiso   1.00
Br61   Br    0.28058   0.28738   0.17956   0.00000  Uiso   1.00
Br62   Br    0.05283   0.04593   0.32037   0.00000  Uiso   1.00
C63    C     0.66649   0.08743   0.25104   0.00000  Uiso   1.00
C64    C     0.33351   0.24590   0.24895   0.00000  Uiso   1.00
C65    C     0.52514   0.19188   0.04456   0.00000  Uiso   1.00
C66    C     0.47157   0.15990   0.45266   0.00000  Uiso   1.00
C67    C     0.57354   0.19735   0.02180   0.00000  Uiso   1.00
C68    C     0.42302   0.15520   0.47526   0.00000  Uiso   1.00
C69    C     0.64317   0.02241   0.22333   0.00000  Uiso   1.00
C70    C     0.35683   0.31091   0.27666   0.00000  Uiso   1.00
C71    C     0.64326   0.31298   0.22163   0.00000  Uiso   1.00
C72    C     0.35676   0.02034   0.27835   0.00000  Uiso   1.00
C73    C     0.33338   0.29050   0.24873   0.00000  Uiso   1.00
C74    C     0.66663   0.04283   0.25126   0.00000  Uiso   1.00
C75    C     0.51549   0.14589   0.28226   0.00000  Uiso   1.00
C76    C     0.48451   0.18746   0.21774   0.00000  Uiso   1.00
C77    C     0.46592   0.14600   0.28231   0.00000  Uiso   1.00
C78    C     0.53408   0.18734   0.21769   0.00000  Uiso   1.00
C79    C     0.63942   0.16715   0.33603   0.00000  Uiso   1.00
C80    C     0.36057   0.16662   0.16394   0.00000  Uiso   1.00
C81    C     0.62426   0.17127   0.38490   0.00000  Uiso   1.00
C82    C     0.37554   0.16595   0.11481   0.00000  Uiso   1.00
C83    C     0.63915   0.19399   0.45413   0.00000  Uiso   1.00
C84    C     0.35844   0.15368   0.04375   0.00000  Uiso   1.00
C85    C     0.65621   0.18568   0.40856   0.00000  Uiso   1.00
C86    C     0.34242   0.15708   0.09013   0.00000  Uiso   1.00
C87    C     0.57562   0.16424   0.40734   0.00000  Uiso   1.00
C88    C     0.42434   0.17281   0.09262   0.00000  Uiso   1.00
C89    C     0.55698   0.17398   0.45289   0.00000  Uiso   1.00
C90    C     0.44128   0.17062   0.04573   0.00000  Uiso   1.00
C91    C     0.58996   0.18832   0.47641   0.00000  Uiso   1.00
C92    C     0.40752   0.15994   0.02146   0.00000  Uiso   1.00
C93    C     0.50672   0.17003   0.47555   0.00000  Uiso   1.00
C94    C     0.49094   0.17740   0.02252   0.00000  Uiso   1.00
Cu95   Cu    0.38022   0.16667   0.25000   0.00000  Uiso   1.00
Cu96   Cu    0.61978   0.16666   0.25000   0.00000  Uiso   1.00
H97    H     0.59836   0.20877   0.03998   0.00000  Uiso   1.00
H98    H     0.39749   0.14723   0.45635   0.00000  Uiso   1.00
H99    H     0.44869   0.17855   0.11298   0.00000  Uiso   1.00
H100   H     0.55312   0.15107   0.38820   0.00000  Uiso   1.00
H101   H     0.63784   0.15160   0.10670   0.00000  Uiso   1.00
H102   H     0.36062   0.19153   0.39168   0.00000  Uiso   1.00
H103   H     0.66425   0.20571   0.47180   0.00000  Uiso   1.00
H104   H     0.66588   0.14545   0.02535   0.00000  Uiso   1.00
H105   H     0.51564   0.20055   0.07933   0.00000  Uiso   1.00
H106   H     0.47995   0.15627   0.41690   0.00000  Uiso   1.00
H107   H     0.62567   0.03982   0.20203   0.00000  Uiso   1.00
H108   H     0.37433   0.29351   0.29796   0.00000  Uiso   1.00
H109   H     0.52662   0.12906   0.30807   0.00000  Uiso   1.00
H110   H     0.47337   0.20429   0.19195   0.00000  Uiso   1.00
H111   H     0.43985   0.12951   0.30827   0.00000  Uiso   1.00
H112   H     0.56015   0.20384   0.19174   0.00000  Uiso   1.00
N113   N     0.45069   0.16668   0.24999   0.00000  Uiso   1.00
N114   N     0.54931   0.16666   0.25001   0.00000  Uiso   1.00
O115   O     0.37291   0.10655   0.25000   0.00000  Uiso   1.00
O116   O     0.62709   0.22678   0.25000   0.00000  Uiso   1.00
O117   O     0.62706   0.10654   0.25000   0.00000  Uiso   1.00
O118   O     0.37294   0.22679   0.24999   0.00000  Uiso   1.00
O119   O     0.35186   0.16668   0.31491   0.00000  Uiso   1.00
O120   O     0.64814   0.16666   0.18508   0.00000  Uiso   1.00
O121   O     0.60600   0.16667   0.31492   0.00000  Uiso   1.00
O122   O     0.39400   0.16667   0.18508   0.00000  Uiso   1.00
Br123  Br    0.61392   0.28738   0.17956   0.00000  Uiso   1.00
Br124  Br    0.38616   0.04593   0.32037   0.00000  Uiso   1.00
C125   C     0.99982   0.08743   0.25104   0.00000  Uiso   1.00
C126   C     0.66684   0.24590   0.24895   0.00000  Uiso   1.00
C127   C     0.85848   0.19188   0.04456   0.00000  Uiso   1.00
C128   C     0.80491   0.15990   0.45266   0.00000  Uiso   1.00
C129   C     0.90687   0.19735   0.02180   0.00000  Uiso   1.00
C130   C     0.75636   0.15520   0.47526   0.00000  Uiso   1.00
C131   C     0.97650   0.02241   0.22333   0.00000  Uiso   1.00
C132   C     0.69017   0.31091   0.27666   0.00000  Uiso   1.00
C133   C     0.97659   0.31298   0.22163   0.00000  Uiso   1.00
C134   C     0.69009   0.02034   0.27835   0.00000  Uiso   1.00
C135   C     0.66671   0.29050   0.24873   0.00000  Uiso   1.00
C136   C     0.99996   0.04283   0.25126   0.00000  Uiso   1.00
C137   C     0.84882   0.14589   0.28226   0.00000  Uiso   1.00
C138   C     0.81784   0.18746   0.21774   0.00000  Uiso   1.00
C139   C     0.79925   0.14600   0.28231   0.00000  Uiso   1.00
C140   C     0.86741   0.18734   0.21769   0.00000  Uiso   1.00
C141   C     0.97276   0.16715   0.33603   0.00000  Uiso   1.00
C142   C     0.69391   0.16662   0.16394   0.00000  Uiso   1.00
C143   C     0.95759   0.17127   0.38490   0.00000  Uiso   1.00
C144   C     0.70887   0.16595   0.11481   0.00000  Uiso   1.00
C145   C     0.97249   0.19399   0.45413   0.00000  Uiso   1.00
C146   C     0.69177   0.15368   0.04375   0.00000  Uiso   1.00
C147   C     0.98954   0.18568   0.40856   0.00000  Uiso   1.00
C148   C     0.67575   0.15708   0.09013   0.00000  Uiso   1.00
C149   C     0.90895   0.16424   0.40734   0.00000  Uiso   1.00
C150   C     0.75767   0.17281   0.09262   0.00000  Uiso   1.00
C151   C     0.89031   0.17398   0.45289   0.00000  Uiso   1.00
C152   C     0.77462   0.17062   0.04573   0.00000  Uiso   1.00
C153   C     0.92329   0.18832   0.47641   0.00000  Uiso   1.00
C154   C     0.74085   0.15994   0.02146   0.00000  Uiso   1.00
C155   C     0.84005   0.17003   0.47555   0.00000  Uiso   1.00
C156   C     0.82427   0.17740   0.02252   0.00000  Uiso   1.00
Cu157  Cu    0.71355   0.16667   0.25000   0.00000  Uiso   1.00
Cu158  Cu    0.95311   0.16666   0.25000   0.00000  Uiso   1.00
H159   H     0.93169   0.20877   0.03998   0.00000  Uiso   1.00
H160   H     0.73082   0.14723   0.45635   0.00000  Uiso   1.00
H161   H     0.78202   0.17855   0.11298   0.00000  Uiso   1.00
H162   H     0.88645   0.15107   0.38820   0.00000  Uiso   1.00
H163   H     0.97117   0.15160   0.10670   0.00000  Uiso   1.00
H164   H     0.69396   0.19153   0.39168   0.00000  Uiso   1.00
H165   H     0.99759   0.20571   0.47180   0.00000  Uiso   1.00
H166   H     0.99921   0.14545   0.02535   0.00000  Uiso   1.00
H167   H     0.84897   0.20055   0.07933   0.00000  Uiso   1.00
H168   H     0.81328   0.15627   0.41690   0.00000  Uiso   1.00
H169   H     0.95900   0.03982   0.20203   0.00000  Uiso   1.00
H170   H     0.70766   0.29351   0.29796   0.00000  Uiso   1.00
H171   H     0.85995   0.12906   0.30807   0.00000  Uiso   1.00
H172   H     0.80671   0.20429   0.19195   0.00000  Uiso   1.00
H173   H     0.77318   0.12951   0.30827   0.00000  Uiso   1.00
H174   H     0.89349   0.20384   0.19174   0.00000  Uiso   1.00
N175   N     0.78403   0.16668   0.24999   0.00000  Uiso   1.00
N176   N     0.88264   0.16666   0.25001   0.00000  Uiso   1.00
O177   O     0.70625   0.10655   0.25000   0.00000  Uiso   1.00
O178   O     0.96042   0.22678   0.25000   0.00000  Uiso   1.00
O179   O     0.96039   0.10654   0.25000   0.00000  Uiso   1.00
O180   O     0.70628   0.22679   0.24999   0.00000  Uiso   1.00
O181   O     0.68519   0.16668   0.31491   0.00000  Uiso   1.00
O182   O     0.98148   0.16666   0.18508   0.00000  Uiso   1.00
O183   O     0.93933   0.16667   0.31492   0.00000  Uiso   1.00
O184   O     0.72733   0.16667   0.18508   0.00000  Uiso   1.00
Br185  Br    0.94725   0.28738   0.17956   0.00000  Uiso   1.00
Br186  Br    0.71950   0.04593   0.32037   0.00000  Uiso   1.00
C187   C     0.33316   0.42076   0.25104   0.00000  Uiso   1.00
C188   C     0.00018   0.57923   0.24895   0.00000  Uiso   1.00
C189   C     0.19181   0.52521   0.04456   0.00000  Uiso   1.00
C190   C     0.13824   0.49324   0.45266   0.00000  Uiso   1.00
C191   C     0.24021   0.53069   0.02180   0.00000  Uiso   1.00
C192   C     0.08969   0.48853   0.47526   0.00000  Uiso   1.00
C193   C     0.30983   0.35575   0.22333   0.00000  Uiso   1.00
C194   C     0.02350   0.64425   0.27666   0.00000  Uiso   1.00
C195   C     0.30993   0.64631   0.22163   0.00000  Uiso   1.00
C196   C     0.02342   0.35368   0.27835   0.00000  Uiso   1.00
C197   C     0.00004   0.62383   0.24873   0.00000  Uiso   1.00
C198   C     0.33329   0.37616   0.25126   0.00000  Uiso   1.00
C199   C     0.18215   0.47922   0.28226   0.00000  Uiso   1.00
C200   C     0.15118   0.52079   0.21774   0.00000  Uiso   1.00
C201   C     0.13258   0.47933   0.28231   0.00000  Uiso   1.00
C202   C     0.20075   0.52068   0.21769   0.00000  Uiso   1.00
C203   C     0.30609   0.50049   0.33603   0.00000  Uiso   1.00
C204   C     0.02724   0.49995   0.16394   0.00000  Uiso   1.00
C205   C     0.29092   0.50461   0.38490   0.00000  Uiso   1.00
C206   C     0.04220   0.49929   0.11481   0.00000  Uiso   1.00
C207   C     0.30582   0.52733   0.45413   0.00000  Uiso   1.00
C208   C     0.02510   0.48701   0.04375   0.00000  Uiso   1.00
C209   C     0.32287   0.51901   0.40856   0.00000  Uiso   1.00
C210   C     0.00909   0.49042   0.09013   0.00000  Uiso   1.00
C211   C     0.24228   0.49757   0.40734   0.00000  Uiso   1.00
C212   C     0.09100   0.50614   0.09262   0.00000  Uiso   1.00
C213   C     0.22365   0.50731   0.45289   0.00000  Uiso   1.00
C214   C     0.10795   0.50396   0.04573   0.00000  Uiso   1.00
C215   C     0.25662   0.52165   0.47641   0.00000  Uiso   1.00
C216   C     0.07418   0.49328   0.02146   0.00000  Uiso   1.00
C217   C     0.17339   0.50336   0.47555   0.00000  Uiso   1.00
C218   C     0.15760   0.51073   0.02252   0.00000  Uiso   1.00
Cu219  Cu    0.04689   0.50001   0.25000   0.00000  Uiso   1.00
Cu220  Cu    0.28645   0.49999   0.25000   0.00000  Uiso   1.00
H221   H     0.26503   0.54210   0.03998   0.00000  Uiso   1.00
H222   H     0.06416   0.48057   0.45635   0.00000  Uiso   1.00
H223   H     0.11535   0.51189   0.11298   0.00000  Uiso   1.00
H224   H     0.21978   0.48441   0.38820   0.00000  Uiso   1.00
H225   H     0.30451   0.48493   0.10670   0.00000  Uiso   1.00
H226   H     0.02729   0.52486   0.39168   0.00000  Uiso   1.00
H227   H     0.33092   0.53905   0.47180   0.00000  Uiso   1.00
H228   H     0.33255   0.47879   0.02535   0.00000  Uiso   1.00
H229   H     0.18230   0.53388   0.07933   0.00000  Uiso   1.00
H230   H     0.14662   0.48960   0.41690   0.00000  Uiso   1.00
H231   H     0.29234   0.37315   0.20203   0.00000  Uiso   1.00
H232   H     0.04100   0.62684   0.29796   0.00000  Uiso   1.00
H233   H     0.19329   0.46240   0.30807   0.00000  Uiso   1.00
H234   H     0.14004   0.53762   0.19195   0.00000  Uiso   1.00
H235   H     0.10651   0.46284   0.30827   0.00000  Uiso   1.00
H236   H     0.22682   0.53717   0.19174   0.00000  Uiso   1.00
N237   N     0.11736   0.50001   0.24999   0.00000  Uiso   1.00
N238   N     0.21597   0.49999   0.25001   0.00000  Uiso   1.00
O239   O     0.03958   0.43989   0.25000   0.00000  Uiso   1.00
O240   O     0.29375   0.56011   0.25000   0.00000  Uiso   1.00
O241   O     0.29372   0.43988   0.25000   0.00000  Uiso   1.00
O242   O     0.03961   0.56012   0.24999   0.00000  Uiso   1.00
O243   O     0.01852   0.50001   0.31491   0.00000  Uiso   1.00
O244   O     0.31481   0.49999   0.18508   0.00000  Uiso   1.00
O245   O     0.27267   0.50000   0.31492   0.00000  Uiso   1.00
O246   O     0.06067   0.50000   0.18508   0.00000  Uiso   1.00
Br247  Br    0.28058   0.62072   0.17956   0.00000  Uiso   1.00
Br248  Br    0.05283   0.37926   0.32037   0.00000  Uiso   1.00
C249   C     0.66649   0.42076   0.25104   0.00000  Uiso   1.00
C250   C     0.33351   0.57923   0.24895   0.00000  Uiso   1.00
C251   C     0.52514   0.52521   0.04456   0.00000  Uiso   1.00
C252   C     0.47157   0.49324   0.45266   0.00000  Uiso   1.00
C253   C     0.57354   0.53069   0.02180   0.00000  Uiso   1.00
C254   C     0.42302   0.48853   0.47526   0.00000  Uiso   1.00
C255   C     0.64317   0.35575   0.22333   0.00000  Uiso   1.00
C256   C     0.35683   0.64425   0.27666   0.00000  Uiso   1.00
C257   C     0.64326   0.64631   0.22163   0.00000  Uiso   1.00
C258   C     0.35676   0.35368   0.27835   0.00000  Uiso   1.00
C259   C     0.33338   0.62383   0.24873   0.00000  Uiso   1.00
C260   C     0.66663   0.37616   0.25126   0.00000  Uiso   1.00
C261   C     0.51549   0.47922   0.28226   0.00000  Uiso   1.00
C262   C     0.48451   0.52079   0.21774   0.00000  Uiso   1.00
C263   C     0.46592   0.47933   0.28231   0.00000  Uiso   1.00
C264   C     0.53408   0.52068   0.21769   0.00000  Uiso   1.00
C265   C     0.63942   0.50049   0.33603   0.00000  Uiso   1.00
C266   C     0.36057   0.49995   0.16394   0.00000  Uiso   1.00
C267   C     0.62426   0.50461   0.38490   0.00000  Uiso   1.00
C268   C     0.37554   0.49929   0.11481   0.00000  Uiso   1.00
C269   C     0.63915   0.52733   0.45413   0.00000  Uiso   1.00
C270   C     0.35844   0.48701   0.04375   0.00000  Uiso   1.00
C271   C     0.65621   0.51901   0.40856   0.00000  Uiso   1.00
C272   C     0.34242   0.49042   0.09013   0.00000  Uiso   1.00
C273   C     0.57562   0.49757   0.40734   0.00000  Uiso   1.00
C274   C     0.42434   0.50614   0.09262   0.00000  Uiso   1.00
C275   C     0.55698   0.50731   0.45289   0.00000  Uiso   1.00
C276   C     0.44128   0.50396   0.04573   0.00000  Uiso   1.00
C277   C     0.58996   0.52165   0.47641   0.00000  Uiso   1.00
C278   C     0.40752   0.49328   0.02146   0.00000  Uiso   1.00
C279   C     0.50672   0.50336   0.47555   0.00000  Uiso   1.00
C280   C     0.49094   0.51073   0.02252   0.00000  Uiso   1.00
Cu281  Cu    0.38022   0.50001   0.25000   0.00000  Uiso   1.00
Cu282  Cu    0.61978   0.49999   0.25000   0.00000  Uiso   1.00
H283   H     0.59836   0.54210   0.03998   0.00000  Uiso   1.00
H284   H     0.39749   0.48057   0.45635   0.00000  Uiso   1.00
H285   H     0.44869   0.51189   0.11298   0.00000  Uiso   1.00
H286   H     0.55312   0.48441   0.38820   0.00000  Uiso   1.00
H287   H     0.63784   0.48493   0.10670   0.00000  Uiso   1.00
H288   H     0.36062   0.52486   0.39168   0.00000  Uiso   1.00
H289   H     0.66425   0.53905   0.47180   0.00000  Uiso   1.00
H290   H     0.66588   0.47879   0.02535   0.00000  Uiso   1.00
H291   H     0.51564   0.53388   0.07933   0.00000  Uiso   1.00
H292   H     0.47995   0.48960   0.41690   0.00000  Uiso   1.00
H293   H     0.62567   0.37315   0.20203   0.00000  Uiso   1.00
H294   H     0.37433   0.62684   0.29796   0.00000  Uiso   1.00
H295   H     0.52662   0.46240   0.30807   0.00000  Uiso   1.00
H296   H     0.47337   0.53762   0.19195   0.00000  Uiso   1.00
H297   H     0.43985   0.46284   0.30827   0.00000  Uiso   1.00
H298   H     0.56015   0.53717   0.19174   0.00000  Uiso   1.00
N299   N     0.45069   0.50001   0.24999   0.00000  Uiso   1.00
N300   N     0.54931   0.49999   0.25001   0.00000  Uiso   1.00
O301   O     0.37291   0.43989   0.25000   0.00000  Uiso   1.00
O302   O     0.62709   0.56011   0.25000   0.00000  Uiso   1.00
O303   O     0.62706   0.43988   0.25000   0.00000  Uiso   1.00
O304   O     0.37294   0.56012   0.24999   0.00000  Uiso   1.00
O305   O     0.35186   0.50001   0.31491   0.00000  Uiso   1.00
O306   O     0.64814   0.49999   0.18508   0.00000  Uiso   1.00
O307   O     0.60600   0.50000   0.31492   0.00000  Uiso   1.00
O308   O     0.39400   0.50000   0.18508   0.00000  Uiso   1.00
Br309  Br    0.61392   0.62072   0.17956   0.00000  Uiso   1.00
Br310  Br    0.38616   0.37926   0.32037   0.00000  Uiso   1.00
C311   C     0.99982   0.42076   0.25104   0.00000  Uiso   1.00
C312   C     0.66684   0.57923   0.24895   0.00000  Uiso   1.00
C313   C     0.85848   0.52521   0.04456   0.00000  Uiso   1.00
C314   C     0.80491   0.49324   0.45266   0.00000  Uiso   1.00
C315   C     0.90687   0.53069   0.02180   0.00000  Uiso   1.00
C316   C     0.75636   0.48853   0.47526   0.00000  Uiso   1.00
C317   C     0.97650   0.35575   0.22333   0.00000  Uiso   1.00
C318   C     0.69017   0.64425   0.27666   0.00000  Uiso   1.00
C319   C     0.97659   0.64631   0.22163   0.00000  Uiso   1.00
C320   C     0.69009   0.35368   0.27835   0.00000  Uiso   1.00
C321   C     0.66671   0.62383   0.24873   0.00000  Uiso   1.00
C322   C     0.99996   0.37616   0.25126   0.00000  Uiso   1.00
C323   C     0.84882   0.47922   0.28226   0.00000  Uiso   1.00
C324   C     0.81784   0.52079   0.21774   0.00000  Uiso   1.00
C325   C     0.79925   0.47933   0.28231   0.00000  Uiso   1.00
C326   C     0.86741   0.52068   0.21769   0.00000  Uiso   1.00
C327   C     0.97276   0.50049   0.33603   0.00000  Uiso   1.00
C328   C     0.69391   0.49995   0.16394   0.00000  Uiso   1.00
C329   C     0.95759   0.50461   0.38490   0.00000  Uiso   1.00
C330   C     0.70887   0.49929   0.11481   0.00000  Uiso   1.00
C331   C     0.97249   0.52733   0.45413   0.00000  Uiso   1.00
C332   C     0.69177   0.48701   0.04375   0.00000  Uiso   1.00
C333   C     0.98954   0.51901   0.40856   0.00000  Uiso   1.00
C334   C     0.67575   0.49042   0.09013   0.00000  Uiso   1.00
C335   C     0.90895   0.49757   0.40734   0.00000  Uiso   1.00
C336   C     0.75767   0.50614   0.09262   0.00000  Uiso   1.00
C337   C     0.89031   0.50731   0.45289   0.00000  Uiso   1.00
C338   C     0.77462   0.50396   0.04573   0.00000  Uiso   1.00
C339   C     0.92329   0.52165   0.47641   0.00000  Uiso   1.00
C340   C     0.74085   0.49328   0.02146   0.00000  Uiso   1.00
C341   C     0.84005   0.50336   0.47555   0.00000  Uiso   1.00
C342   C     0.82427   0.51073   0.02252   0.00000  Uiso   1.00
Cu343  Cu    0.71355   0.50001   0.25000   0.00000  Uiso   1.00
Cu344  Cu    0.95311   0.49999   0.25000   0.00000  Uiso   1.00
H345   H     0.93169   0.54210   0.03998   0.00000  Uiso   1.00
H346   H     0.73082   0.48057   0.45635   0.00000  Uiso   1.00
H347   H     0.78202   0.51189   0.11298   0.00000  Uiso   1.00
H348   H     0.88645   0.48441   0.38820   0.00000  Uiso   1.00
H349   H     0.97117   0.48493   0.10670   0.00000  Uiso   1.00
H350   H     0.69396   0.52486   0.39168   0.00000  Uiso   1.00
H351   H     0.99759   0.53905   0.47180   0.00000  Uiso   1.00
H352   H     0.99921   0.47879   0.02535   0.00000  Uiso   1.00
H353   H     0.84897   0.53388   0.07933   0.00000  Uiso   1.00
H354   H     0.81328   0.48960   0.41690   0.00000  Uiso   1.00
H355   H     0.95900   0.37315   0.20203   0.00000  Uiso   1.00
H356   H     0.70766   0.62684   0.29796   0.00000  Uiso   1.00
H357   H     0.85995   0.46240   0.30807   0.00000  Uiso   1.00
H358   H     0.80671   0.53762   0.19195   0.00000  Uiso   1.00
H359   H     0.77318   0.46284   0.30827   0.00000  Uiso   1.00
H360   H     0.89349   0.53717   0.19174   0.00000  Uiso   1.00
N361   N     0.78403   0.50001   0.24999   0.00000  Uiso   1.00
N362   N     0.88264   0.49999   0.25001   0.00000  Uiso   1.00
O363   O     0.70625   0.43989   0.25000   0.00000  Uiso   1.00
O364   O     0.96042   0.56011   0.25000   0.00000  Uiso   1.00
O365   O     0.96039   0.43988   0.25000   0.00000  Uiso   1.00
O366   O     0.70628   0.56012   0.24999   0.00000  Uiso   1.00
O367   O     0.68519   0.50001   0.31491   0.00000  Uiso   1.00
O368   O     0.98148   0.49999   0.18508   0.00000  Uiso   1.00
O369   O     0.93933   0.50000   0.31492   0.00000  Uiso   1.00
O370   O     0.72733   0.50000   0.18508   0.00000  Uiso   1.00
Br371  Br    0.94725   0.62072   0.17956   0.00000  Uiso   1.00
Br372  Br    0.71950   0.37926   0.32037   0.00000  Uiso   1.00
C373   C     0.33316   0.75410   0.25104   0.00000  Uiso   1.00
C374   C     0.00018   0.91257   0.24895   0.00000  Uiso   1.00
C375   C     0.19181   0.85854   0.04456   0.00000  Uiso   1.00
C376   C     0.13824   0.82657   0.45266   0.00000  Uiso   1.00
C377   C     0.24021   0.86402   0.02180   0.00000  Uiso   1.00
C378   C     0.08969   0.82186   0.47526   0.00000  Uiso   1.00
C379   C     0.30983   0.68908   0.22333   0.00000  Uiso   1.00
C380   C     0.02350   0.97758   0.27666   0.00000  Uiso   1.00
C381   C     0.30993   0.97965   0.22163   0.00000  Uiso   1.00
C382   C     0.02342   0.68701   0.27835   0.00000  Uiso   1.00
C383   C     0.00004   0.95717   0.24873   0.00000  Uiso   1.00
C384   C     0.33329   0.70949   0.25126   0.00000  Uiso   1.00
C385   C     0.18215   0.81256   0.28226   0.00000  Uiso   1.00
C386   C     0.15118   0.85412   0.21774   0.00000  Uiso   1.00
C387   C     0.13258   0.81267   0.28231   0.00000  Uiso   1.00
C388   C     0.20075   0.85401   0.21769   0.00000  Uiso   1.00
C389   C     0.30609   0.83382   0.33603   0.00000  Uiso   1.00
C390   C     0.02724   0.83329   0.16394   0.00000  Uiso   1.00
C391   C     0.29092   0.83794   0.38490   0.00000  Uiso   1.00
C392   C     0.04220   0.83262   0.11481   0.00000  Uiso   1.00
C393   C     0.30582   0.86066   0.45413   0.00000  Uiso   1.00
C394   C     0.02510   0.82035   0.04375   0.00000  Uiso   1.00
C395   C     0.32287   0.85234   0.40856   0.00000  Uiso   1.00
C396   C     0.00909   0.82375   0.09013   0.00000  Uiso   1.00
C397   C     0.24228   0.83091   0.40734   0.00000  Uiso   1.00
C398   C     0.09100   0.83948   0.09262   0.00000  Uiso   1.00
C399   C     0.22365   0.84065   0.45289   0.00000  Uiso   1.00
C400   C     0.10795   0.83729   0.04573   0.00000  Uiso   1.00
C401   C     0.25662   0.85498   0.47641   0.00000  Uiso   1.00
C402   C     0.07418   0.82661   0.02146   0.00000  Uiso   1.00
C403   C     0.17339   0.83669   0.47555   0.00000  Uiso   1.00
C404   C     0.15760   0.84406   0.02252   0.00000  Uiso   1.00
Cu405  Cu    0.04689   0.83334   0.25000   0.00000  Uiso   1.00
Cu406  Cu    0.28645   0.83333   0.25000   0.00000  Uiso   1.00
H407   H     0.26503   0.87544   0.03998   0.00000  Uiso   1.00
H408   H     0.06416   0.81390   0.45635   0.00000  Uiso   1.00
H409   H     0.11535   0.84522   0.11298   0.00000  Uiso   1.00
H410   H     0.21978   0.81774   0.38820   0.00000  Uiso   1.00
H411   H     0.30451   0.81827   0.10670   0.00000  Uiso   1.00
H412   H     0.02729   0.85820   0.39168   0.00000  Uiso   1.00
H413   H     0.33092   0.87238   0.47180   0.00000  Uiso   1.00
H414   H     0.33255   0.81212   0.02535   0.00000  Uiso   1.00
H415   H     0.18230   0.86721   0.07933   0.00000  Uiso   1.00
H416   H     0.14662   0.82293   0.41690   0.00000  Uiso   1.00
H417   H     0.29234   0.70648   0.20203   0.00000  Uiso   1.00
H418   H     0.04100   0.96018   0.29796   0.00000  Uiso   1.00
H419   H     0.19329   0.79573   0.30807   0.00000  Uiso   1.00
H420   H     0.14004   0.87096   0.19195   0.00000  Uiso   1.00
H421   H     0.10651   0.79618   0.30827   0.00000  Uiso   1.00
H422   H     0.22682   0.87050   0.19174   0.00000  Uiso   1.00
N423   N     0.11736   0.83334   0.24999   0.00000  Uiso   1.00
N424   N     0.21597   0.83332   0.25001   0.00000  Uiso   1.00
O425   O     0.03958   0.77322   0.25000   0.00000  Uiso   1.00
O426   O     0.29375   0.89345   0.25000   0.00000  Uiso   1.00
O427   O     0.29372   0.77321   0.25000   0.00000  Uiso   1.00
O428   O     0.03961   0.89346   0.24999   0.00000  Uiso   1.00
O429   O     0.01852   0.83334   0.31491   0.00000  Uiso   1.00
O430   O     0.31481   0.83332   0.18508   0.00000  Uiso   1.00
O431   O     0.27267   0.83333   0.31492   0.00000  Uiso   1.00
O432   O     0.06067   0.83333   0.18508   0.00000  Uiso   1.00
Br433  Br    0.28058   0.95405   0.17956   0.00000  Uiso   1.00
Br434  Br    0.05283   0.71259   0.32037   0.00000  Uiso   1.00
C435   C     0.66649   0.75410   0.25104   0.00000  Uiso   1.00
C436   C     0.33351   0.91257   0.24895   0.00000  Uiso   1.00
C437   C     0.52514   0.85854   0.04456   0.00000  Uiso   1.00
C438   C     0.47157   0.82657   0.45266   0.00000  Uiso   1.00
C439   C     0.57354   0.86402   0.02180   0.00000  Uiso   1.00
C440   C     0.42302   0.82186   0.47526   0.00000  Uiso   1.00
C441   C     0.64317   0.68908   0.22333   0.00000  Uiso   1.00
C442   C     0.35683   0.97758   0.27666   0.00000  Uiso   1.00
C443   C     0.64326   0.97965   0.22163   0.00000  Uiso   1.00
C444   C     0.35676   0.68701   0.27835   0.00000  Uiso   1.00
C445   C     0.33338   0.95717   0.24873   0.00000  Uiso   1.00
C446   C     0.66663   0.70949   0.25126   0.00000  Uiso   1.00
C447   C     0.51549   0.81256   0.28226   0.00000  Uiso   1.00
C448   C     0.48451   0.85412   0.21774   0.00000  Uiso   1.00
C449   C     0.46592   0.81267   0.28231   0.00000  Uiso   1.00
C450   C     0.53408   0.85401   0.21769   0.00000  Uiso   1.00
C451   C     0.63942   0.83382   0.33603   0.00000  Uiso   1.00
C452   C     0.36057   0.83329   0.16394   0.00000  Uiso   1.00
C453   C     0.62426   0.83794   0.38490   0.00000  Uiso   1.00
C454   C     0.37554   0.83262   0.11481   0.00000  Uiso   1.00
C455   C     0.63915   0.86066   0.45413   0.00000  Uiso   1.00
C456   C     0.35844   0.82035   0.04375   0.00000  Uiso   1.00
C457   C     0.65621   0.85234   0.40856   0.00000  Uiso   1.00
C458   C     0.34242   0.82375   0.09013   0.00000  Uiso   1.00
C459   C     0.57562   0.83091   0.40734   0.00000  Uiso   1.00
C460   C     0.42434   0.83948   0.09262   0.00000  Uiso   1.00
C461   C     0.55698   0.84065   0.45289   0.00000  Uiso   1.00
C462   C     0.44128   0.83729   0.04573   0.00000  Uiso   1.00
C463   C     0.58996   0.85498   0.47641   0.00000  Uiso   1.00
C464   C     0.40752   0.82661   0.02146   0.00000  Uiso   1.00
C465   C     0.50672   0.83669   0.47555   0.00000  Uiso   1.00
C466   C     0.49094   0.84406   0.02252   0.00000  Uiso   1.00
Cu467  Cu    0.38022   0.83334   0.25000   0.00000  Uiso   1.00
Cu468  Cu    0.61978   0.83333   0.25000   0.00000  Uiso   1.00
H469   H     0.59836   0.87544   0.03998   0.00000  Uiso   1.00
H470   H     0.39749   0.81390   0.45635   0.00000  Uiso   1.00
H471   H     0.44869   0.84522   0.11298   0.00000  Uiso   1.00
H472   H     0.55312   0.81774   0.38820   0.00000  Uiso   1.00
H473   H     0.63784   0.81827   0.10670   0.00000  Uiso   1.00
H474   H     0.36062   0.85820   0.39168   0.00000  Uiso   1.00
H475   H     0.66425   0.87238   0.47180   0.00000  Uiso   1.00
H476   H     0.66588   0.81212   0.02535   0.00000  Uiso   1.00
H477   H     0.51564   0.86721   0.07933   0.00000  Uiso   1.00
H478   H     0.47995   0.82293   0.41690   0.00000  Uiso   1.00
H479   H     0.62567   0.70648   0.20203   0.00000  Uiso   1.00
H480   H     0.37433   0.96018   0.29796   0.00000  Uiso   1.00
H481   H     0.52662   0.79573   0.30807   0.00000  Uiso   1.00
H482   H     0.47337   0.87096   0.19195   0.00000  Uiso   1.00
H483   H     0.43985   0.79618   0.30827   0.00000  Uiso   1.00
H484   H     0.56015   0.87050   0.19174   0.00000  Uiso   1.00
N485   N     0.45069   0.83334   0.24999   0.00000  Uiso   1.00
N486   N     0.54931   0.83332   0.25001   0.00000  Uiso   1.00
O487   O     0.37291   0.77322   0.25000   0.00000  Uiso   1.00
O488   O     0.62709   0.89345   0.25000   0.00000  Uiso   1.00
O489   O     0.62706   0.77321   0.25000   0.00000  Uiso   1.00
O490   O     0.37294   0.89346   0.24999   0.00000  Uiso   1.00
O491   O     0.35186   0.83334   0.31491   0.00000  Uiso   1.00
O492   O     0.64814   0.83332   0.18508   0.00000  Uiso   1.00
O493   O     0.60600   0.83333   0.31492   0.00000  Uiso   1.00
O494   O     0.39400   0.83333   0.18508   0.00000  Uiso   1.00
Br495  Br    0.61392   0.95405   0.17956   0.00000  Uiso   1.00
Br496  Br    0.38616   0.71259   0.32037   0.00000  Uiso   1.00
C497   C     0.99982   0.75410   0.25104   0.00000  Uiso   1.00
C498   C     0.66684   0.91257   0.24895   0.00000  Uiso   1.00
C499   C     0.85848   0.85854   0.04456   0.00000  Uiso   1.00
C500   C     0.80491   0.82657   0.45266   0.00000  Uiso   1.00
C501   C     0.90687   0.86402   0.02180   0.00000  Uiso   1.00
C502   C     0.75636   0.82186   0.47526   0.00000  Uiso   1.00
C503   C     0.97650   0.68908   0.22333   0.00000  Uiso   1.00
C504   C     0.69017   0.97758   0.27666   0.00000  Uiso   1.00
C505   C     0.97659   0.97965   0.22163   0.00000  Uiso   1.00
C506   C     0.69009   0.68701   0.27835   0.00000  Uiso   1.00
C507   C     0.66671   0.95717   0.24873   0.00000  Uiso   1.00
C508   C     0.99996   0.70949   0.25126   0.00000  Uiso   1.00
C509   C     0.84882   0.81256   0.28226   0.00000  Uiso   1.00
C510   C     0.81784   0.85412   0.21774   0.00000  Uiso   1.00
C511   C     0.79925   0.81267   0.28231   0.00000  Uiso   1.00
C512   C     0.86741   0.85401   0.21769   0.00000  Uiso   1.00
C513   C     0.97276   0.83382   0.33603   0.00000  Uiso   1.00
C514   C     0.69391   0.83329   0.16394   0.00000  Uiso   1.00
C515   C     0.95759   0.83794   0.38490   0.00000  Uiso   1.00
C516   C     0.70887   0.83262   0.11481   0.00000  Uiso   1.00
C517   C     0.97249   0.86066   0.45413   0.00000  Uiso   1.00
C518   C     0.69177   0.82035   0.04375   0.00000  Uiso   1.00
C519   C     0.98954   0.85234   0.40856   0.00000  Uiso   1.00
C520   C     0.67575   0.82375   0.09013   0.00000  Uiso   1.00
C521   C     0.90895   0.83091   0.40734   0.00000  Uiso   1.00
C522   C     0.75767   0.83948   0.09262   0.00000  Uiso   1.00
C523   C     0.89031   0.84065   0.45289   0.00000  Uiso   1.00
C524   C     0.77462   0.83729   0.04573   0.00000  Uiso   1.00
C525   C     0.92329   0.85498   0.47641   0.00000  Uiso   1.00
C526   C     0.74085   0.82661   0.02146   0.00000  Uiso   1.00
C527   C     0.84005   0.83669   0.47555   0.00000  Uiso   1.00
C528   C     0.82427   0.84406   0.02252   0.00000  Uiso   1.00
Cu529  Cu    0.71355   0.83334   0.25000   0.00000  Uiso   1.00
Cu530  Cu    0.95311   0.83333   0.25000   0.00000  Uiso   1.00
H531   H     0.93169   0.87544   0.03998   0.00000  Uiso   1.00
H532   H     0.73082   0.81390   0.45635   0.00000  Uiso   1.00
H533   H     0.78202   0.84522   0.11298   0.00000  Uiso   1.00
H534   H     0.88645   0.81774   0.38820   0.00000  Uiso   1.00
H535   H     0.97117   0.81827   0.10670   0.00000  Uiso   1.00
H536   H     0.69396   0.85820   0.39168   0.00000  Uiso   1.00
H537   H     0.99759   0.87238   0.47180   0.00000  Uiso   1.00
H538   H     0.99921   0.81212   0.02535   0.00000  Uiso   1.00
H539   H     0.84897   0.86721   0.07933   0.00000  Uiso   1.00
H540   H     0.81328   0.82293   0.41690   0.00000  Uiso   1.00
H541   H     0.95900   0.70648   0.20203   0.00000  Uiso   1.00
H542   H     0.70766   0.96018   0.29796   0.00000  Uiso   1.00
H543   H     0.85995   0.79573   0.30807   0.00000  Uiso   1.00
H544   H     0.80671   0.87096   0.19195   0.00000  Uiso   1.00
H545   H     0.77318   0.79618   0.30827   0.00000  Uiso   1.00
H546   H     0.89349   0.87050   0.19174   0.00000  Uiso   1.00
N547   N     0.78403   0.83334   0.24999   0.00000  Uiso   1.00
N548   N     0.88264   0.83332   0.25001   0.00000  Uiso   1.00
O549   O     0.70625   0.77322   0.25000   0.00000  Uiso   1.00
O550   O     0.96042   0.89345   0.25000   0.00000  Uiso   1.00
O551   O     0.96039   0.77321   0.25000   0.00000  Uiso   1.00
O552   O     0.70628   0.89346   0.24999   0.00000  Uiso   1.00
O553   O     0.68519   0.83334   0.31491   0.00000  Uiso   1.00
O554   O     0.98148   0.83332   0.18508   0.00000  Uiso   1.00
O555   O     0.93933   0.83333   0.31492   0.00000  Uiso   1.00
O556   O     0.72733   0.83333   0.18508   0.00000  Uiso   1.00
Br557  Br    0.94725   0.95405   0.17956   0.00000  Uiso   1.00
Br558  Br    0.71950   0.71259   0.32037   0.00000  Uiso   1.00
C559   C     0.33316   0.08743   0.75104   0.00000  Uiso   1.00
C560   C     0.00018   0.24590   0.74895   0.00000  Uiso   1.00
C561   C     0.19181   0.19188   0.54456   0.00000  Uiso   1.00
C562   C     0.13824   0.15990   0.95266   0.00000  Uiso   1.00
C563   C     0.24021   0.19735   0.52180   0.00000  Uiso   1.00
C564   C     0.08969   0.15520   0.97526   0.00000  Uiso   1.00
C565   C     0.30983   0.02241   0.72333   0.00000  Uiso   1.00
C566   C     0.02350   0.31091   0.77666   0.00000  Uiso   1.00
C567   C     0.30993   0.31298   0.72163   0.00000  Uiso   1.00
C568   C     0.02342   0.02034   0.77835   0.00000  Uiso   1.00
C569   C     0.00004   0.29050   0.74873   0.00000  Uiso   1.00
C570   C     0.33329   0.04283   0.75126   0.00000  Uiso   1.00
C571   C     0.18215   0.14589   0.78226   0.00000  Uiso   1.00
C572   C     0.15118   0.18746   0.71774   0.00000  Uiso   1.00
C573   C     0.13258   0.14600   0.78231   0.00000  Uiso   1.00
C574   C     0.20075   0.18734   0.71769   0.00000  Uiso   1.00
C575   C     0.30609   0.16715   0.83603   0.00000  Uiso   1.00
C576   C     0.02724   0.16662   0.66394   0.00000  Uiso   1.00
C577   C     0.29092   0.17127   0.88490   0.00000  Uiso   1.00
C578   C     0.04220   0.16595   0.61481   0.00000  Uiso   1.00
C579   C     0.30582   0.19399   0.95413   0.00000  Uiso   1.00
C580   C     0.02510   0.15368   0.54375   0.00000  Uiso   1.00
C581   C     0.32287   0.18568   0.90856   0.00000  Uiso   1.00
C582   C     0.00909   0.15708   0.59013   0.00000  Uiso   1.00
C583   C     0.24228   0.16424   0.90734   0.00000  Uiso   1.00
C584   C     0.09100   0.17281   0.59262   0.00000  Uiso   1.00
C585   C     0.22365   0.17398   0.95289   0.00000  Uiso   1.00
C586   C     0.10795   0.17062   0.54573   0.00000  Uiso   1.00
C587   C     0.25662   0.18832   0.97641   0.00000  Uiso   1.00
C588   C     0.07418   0.15994   0.52146   0.00000  Uiso   1.00
C589   C     0.17339   0.17003   0.97555   0.00000  Uiso   1.00
C590   C     0.15760   0.17740   0.52252   0.00000  Uiso   1.00
Cu591  Cu    0.04689   0.16667   0.75000   0.00000  Uiso   1.00
Cu592  Cu    0.28645   0.16666   0.75000   0.00000  Uiso   1.00
H593   H     0.26503   0.20877   0.53998   0.00000  Uiso   1.00
H594   H     0.06416   0.14723   0.95635   0.00000  Uiso   1.00
H595   H     0.11535   0.17855   0.61298   0.00000  Uiso   1.00
H596   H     0.21978   0.15107   0.88820   0.00000  Uiso   1.00
H597   H     0.30451   0.15160   0.60670   0.00000  Uiso   1.00
H598   H     0.02729   0.19153   0.89168   0.00000  Uiso   1.00
H599   H     0.33092   0.20571   0.97180   0.00000  Uiso   1.00
H600   H     0.33255   0.14545   0.52535   0.00000  Uiso   1.00
H601   H     0.18230   0.20055   0.57933   0.00000  Uiso   1.00
H602   H     0.14662   0.15627   0.91690   0.00000  Uiso   1.00
H603   H     0.29234   0.03982   0.70203   0.00000  Uiso   1.00
H604   H     0.04100   0.29351   0.79796   0.00000  Uiso   1.00
H605   H     0.19329   0.12906   0.80807   0.00000  Uiso   1.00
H606   H     0.14004   0.20429   0.69195   0.00000  Uiso   1.00
H607   H     0.10651   0.12951   0.80827   0.00000  Uiso   1.00
H608   H     0.22682   0.20384   0.69174   0.00000  Uiso   1.00
N609   N     0.11736   0.16668   0.74999   0.00000  Uiso   1.00
N610   N     0.21597   0.16666   0.75001   0.00000  Uiso   1.00
O611   O     0.03958   0.10655   0.75000   0.00000  Uiso   1.00
O612   O     0.29375   0.22678   0.75000   0.00000  Uiso   1.00
O613   O     0.29372   0.10654   0.75000   0.00000  Uiso   1.00
O614   O     0.03961   0.22679   0.74999   0.00000  Uiso   1.00
O615   O     0.01852   0.16668   0.81491   0.00000  Uiso   1.00
O616   O     0.31481   0.16666   0.68508   0.00000  Uiso   1.00
O617   O     0.27267   0.16667   0.81492   0.00000  Uiso   1.00
O618   O     0.06067   0.16667   0.68508   0.00000  Uiso   1.00
Br619  Br    0.28058   0.28738   0.67956   0.00000  Uiso   1.00
Br620  Br    0.05283   0.04593   0.82037   0.00000  Uiso   1.00
C621   C     0.66649   0.08743   0.75104   0.00000  Uiso   1.00
C622   C     0.33351   0.24590   0.74895   0.00000  Uiso   1.00
C623   C     0.52514   0.19188   0.54456   0.00000  Uiso   1.00
C624   C     0.47157   0.15990   0.95266   0.00000  Uiso   1.00
C625   C     0.57354   0.19735   0.52180   0.00000  Uiso   1.00
C626   C     0.42302   0.15520   0.97526   0.00000  Uiso   1.00
C627   C     0.64317   0.02241   0.72333   0.00000  Uiso   1.00
C628   C     0.35683   0.31091   0.77666   0.00000  Uiso   1.00
C629   C     0.64326   0.31298   0.72163   0.00000  Uiso   1.00
C630   C     0.35676   0.02034   0.77835   0.00000  Uiso   1.00
C631   C     0.33338   0.29050   0.74873   0.00000  Uiso   1.00
C632   C     0.66663   0.04283   0.75126   0.00000  Uiso   1.00
C633   C     0.51549   0.14589   0.78226   0.00000  Uiso   1.00
C634   C     0.48451   0.18746   0.71774   0.00000  Uiso   1.00
C635   C     0.46592   0.14600   0.78231   0.00000  Uiso   1.00
C636   C     0.53408   0.18734   0.71769   0.00000  Uiso   1.00
C637   C     0.63942   0.16715   0.83603   0.00000  Uiso   1.00
C638   C     0.36057   0.16662   0.66394   0.00000  Uiso   1.00
C639   C     0.62426   0.17127   0.88490   0.00000  Uiso   1.00
C640   C     0.37554   0.16595   0.61481   0.00000  Uiso   1.00
C641   C     0.63915   0.19399   0.95413   0.00000  Uiso   1.00
C642   C     0.35844   0.15368   0.54375   0.00000  Uiso   1.00
C643   C     0.65621   0.18568   0.90856   0.00000  Uiso   1.00
C644   C     0.34242   0.15708   0.59013   0.00000  Uiso   1.00
C645   C     0.57562   0.16424   0.90734   0.00000  Uiso   1.00
C646   C     0.42434   0.17281   0.59262   0.00000  Uiso   1.00
C647   C     0.55698   0.17398   0.95289   0.00000  Uiso   1.00
C648   C     0.44128   0.17062   0.54573   0.00000  Uiso   1.00
C649   C     0.58996   0.18832   0.97641   0.00000  Uiso   1.00
C650   C     0.40752   0.15994   0.52146   0.00000  Uiso   1.00
C651   C     0.50672   0.17003   0.97555   0.00000  Uiso   1.00
C652   C     0.49094   0.17740   0.52252   0.00000  Uiso   1.00
Cu653  Cu    0.38022   0.16667   0.75000   0.00000  Uiso   1.00
Cu654  Cu    0.61978   0.16666   0.75000   0.00000  Uiso   1.00
H655   H     0.59836   0.20877   0.53998   0.00000  Uiso   1.00
H656   H     0.39749   0.14723   0.95635   0.00000  Uiso   1.00
H657   H     0.44869   0.17855   0.61298   0.00000  Uiso   1.00
H658   H     0.55312   0.15107   0.88820   0.00000  Uiso   1.00
H659   H     0.63784   0.15160   0.60670   0.00000  Uiso   1.00
H660   H     0.36062   0.19153   0.89168   0.00000  Uiso   1.00
H661   H     0.66425   0.20571   0.97180   0.00000  Uiso   1.00
H662   H     0.66588   0.14545   0.52535   0.00000  Uiso   1.00
H663   H     0.51564   0.20055   0.57933   0.00000  Uiso   1.00
H664   H     0.47995   0.15627   0.91690   0.00000  Uiso   1.00
H665   H     0.62567   0.03982   0.70203   0.00000  Uiso   1.00
H666   H     0.37433   0.29351   0.79796   0.00000  Uiso   1.00
H667   H     0.52662   0.12906   0.80807   0.00000  Uiso   1.00
H668   H     0.47337   0.20429   0.69195   0.00000  Uiso   1.00
H669   H     0.43985   0.12951   0.80827   0.00000  Uiso   1.00
H670   H     0.56015   0.20384   0.69174   0.00000  Uiso   1.00
N671   N     0.45069   0.16668   0.74999   0.00000  Uiso   1.00
N672   N     0.54931   0.16666   0.75001   0.00000  Uiso   1.00
O673   O     0.37291   0.10655   0.75000   0.00000  Uiso   1.00
O674   O     0.62709   0.22678   0.75000   0.00000  Uiso   1.00
O675   O     0.62706   0.10654   0.75000   0.00000  Uiso   1.00
O676   O     0.37294   0.22679   0.74999   0.00000  Uiso   1.00
O677   O     0.35186   0.16668   0.81491   0.00000  Uiso   1.00
O678   O     0.64814   0.16666   0.68508   0.00000  Uiso   1.00
O679   O     0.60600   0.16667   0.81492   0.00000  Uiso   1.00
O680   O     0.39400   0.16667   0.68508   0.00000  Uiso   1.00
Br681  Br    0.61392   0.28738   0.67956   0.00000  Uiso   1.00
Br682  Br    0.38616   0.04593   0.82037   0.00000  Uiso   1.00
C683   C     0.99982   0.08743   0.75104   0.00000  Uiso   1.00
C684   C     0.66684   0.24590   0.74895   0.00000  Uiso   1.00
C685   C     0.85848   0.19188   0.54456   0.00000  Uiso   1.00
C686   C     0.80491   0.15990   0.95266   0.00000  Uiso   1.00
C687   C     0.90687   0.19735   0.52180   0.00000  Uiso   1.00
C688   C     0.75636   0.15520   0.97526   0.00000  Uiso   1.00
C689   C     0.97650   0.02241   0.72333   0.00000  Uiso   1.00
C690   C     0.69017   0.31091   0.77666   0.00000  Uiso   1.00
C691   C     0.97659   0.31298   0.72163   0.00000  Uiso   1.00
C692   C     0.69009   0.02034   0.77835   0.00000  Uiso   1.00
C693   C     0.66671   0.29050   0.74873   0.00000  Uiso   1.00
C694   C     0.99996   0.04283   0.75126   0.00000  Uiso   1.00
C695   C     0.84882   0.14589   0.78226   0.00000  Uiso   1.00
C696   C     0.81784   0.18746   0.71774   0.00000  Uiso   1.00
C697   C     0.79925   0.14600   0.78231   0.00000  Uiso   1.00
C698   C     0.86741   0.18734   0.71769   0.00000  Uiso   1.00
C699   C     0.97276   0.16715   0.83603   0.00000  Uiso   1.00
C700   C     0.69391   0.16662   0.66394   0.00000  Uiso   1.00
C701   C     0.95759   0.17127   0.88490   0.00000  Uiso   1.00
C702   C     0.70887   0.16595   0.61481   0.00000  Uiso   1.00
C703   C     0.97249   0.19399   0.95413   0.00000  Uiso   1.00
C704   C     0.69177   0.15368   0.54375   0.00000  Uiso   1.00
C705   C     0.98954   0.18568   0.90856   0.00000  Uiso   1.00
C706   C     0.67575   0.15708   0.59013   0.00000  Uiso   1.00
C707   C     0.90895   0.16424   0.90734   0.00000  Uiso   1.00
C708   C     0.75767   0.17281   0.59262   0.00000  Uiso   1.00
C709   C     0.89031   0.17398   0.95289   0.00000  Uiso   1.00
C710   C     0.77462   0.17062   0.54573   0.00000  Uiso   1.00
C711   C     0.92329   0.18832   0.97641   0.00000  Uiso   1.00
C712   C     0.74085   0.15994   0.52146   0.00000  Uiso   1.00
C713   C     0.84005   0.17003   0.97555   0.00000  Uiso   1.00
C714   C     0.82427   0.17740   0.52252   0.00000  Uiso   1.00
Cu715  Cu    0.71355   0.16667   0.75000   0.00000  Uiso   1.00
Cu716  Cu    0.95311   0.16666   0.75000   0.00000  Uiso   1.00
H717   H     0.93169   0.20877   0.53998   0.00000  Uiso   1.00
H718   H     0.73082   0.14723   0.95635   0.00000  Uiso   1.00
H719   H     0.78202   0.17855   0.61298   0.00000  Uiso   1.00
H720   H     0.88645   0.15107   0.88820   0.00000  Uiso   1.00
H721   H     0.97117   0.15160   0.60670   0.00000  Uiso   1.00
H722   H     0.69396   0.19153   0.89168   0.00000  Uiso   1.00
H723   H     0.99759   0.20571   0.97180   0.00000  Uiso   1.00
H724   H     0.99921   0.14545   0.52535   0.00000  Uiso   1.00
H725   H     0.84897   0.20055   0.57933   0.00000  Uiso   1.00
H726   H     0.81328   0.15627   0.91690   0.00000  Uiso   1.00
H727   H     0.95900   0.03982   0.70203   0.00000  Uiso   1.00
H728   H     0.70766   0.29351   0.79796   0.00000  Uiso   1.00
H729   H     0.85995   0.12906   0.80807   0.00000  Uiso   1.00
H730   H     0.80671   0.20429   0.69195   0.00000  Uiso   1.00
H731   H     0.77318   0.12951   0.80827   0.00000  Uiso   1.00
H732   H     0.89349   0.20384   0.69174   0.00000  Uiso   1.00
N733   N     0.78403   0.16668   0.74999   0.00000  Uiso   1.00
N734   N     0.88264   0.16666   0.75001   0.00000  Uiso   1.00
O735   O     0.70625   0.10655   0.75000   0.00000  Uiso   1.00
O736   O     0.96042   0.22678   0.75000   0.00000  Uiso   1.00
O737   O     0.96039   0.10654   0.75000   0.00000  Uiso   1.00
O738   O     0.70628   0.22679   0.74999   0.00000  Uiso   1.00
O739   O     0.68519   0.16668   0.81491   0.00000  Uiso   1.00
O740   O     0.98148   0.16666   0.68508   0.00000  Uiso   1.00
O741   O     0.93933   0.16667   0.81492   0.00000  Uiso   1.00
O742   O     0.72733   0.16667   0.68508   0.00000  Uiso   1.00
Br743  Br    0.94725   0.28738   0.67956   0.00000  Uiso   1.00
Br744  Br    0.71950   0.04593   0.82037   0.00000  Uiso   1.00
C745   C     0.33316   0.42076   0.75104   0.00000  Uiso   1.00
C746   C     0.00018   0.57923   0.74895   0.00000  Uiso   1.00
C747   C     0.19181   0.52521   0.54456   0.00000  Uiso   1.00
C748   C     0.13824   0.49324   0.95266   0.00000  Uiso   1.00
C749   C     0.24021   0.53069   0.52180   0.00000  Uiso   1.00
C750   C     0.08969   0.48853   0.97526   0.00000  Uiso   1.00
C751   C     0.30983   0.35575   0.72333   0.00000  Uiso   1.00
C752   C     0.02350   0.64425   0.77666   0.00000  Uiso   1.00
C753   C     0.30993   0.64631   0.72163   0.00000  Uiso   1.00
C754   C     0.02342   0.35368   0.77835   0.00000  Uiso   1.00
C755   C     0.00004   0.62383   0.74873   0.00000  Uiso   1.00
C756   C     0.33329   0.37616   0.75126   0.00000  Uiso   1.00
C757   C     0.18215   0.47922   0.78226   0.00000  Uiso   1.00
C758   C     0.15118   0.52079   0.71774   0.00000  Uiso   1.00
C759   C     0.13258   0.47933   0.78231   0.00000  Uiso   1.00
C760   C     0.20075   0.52068   0.71769   0.00000  Uiso   1.00
C761   C     0.30609   0.50049   0.83603   0.00000  Uiso   1.00
C762   C     0.02724   0.49995   0.66394   0.00000  Uiso   1.00
C763   C     0.29092   0.50461   0.88490   0.00000  Uiso   1.00
C764   C     0.04220   0.49929   0.61481   0.00000  Uiso   1.00
C765   C     0.30582   0.52733   0.95413   0.00000  Uiso   1.00
C766   C     0.02510   0.48701   0.54375   0.00000  Uiso   1.00
C767   C     0.32287   0.51901   0.90856   0.00000  Uiso   1.00
C768   C     0.00909   0.49042   0.59013   0.00000  Uiso   1.00
C769   C     0.24228   0.49757   0.90734   0.00000  Uiso   1.00
C770   C     0.09100   0.50614   0.59262   0.00000  Uiso   1.00
C771   C     0.22365   0.50731   0.95289   0.00000  Uiso   1.00
C772   C     0.10795   0.50396   0.54573   0.00000  Uiso   1.00
C773   C     0.25662   0.52165   0.97641   0.00000  Uiso   1.00
C774   C     0.07418   0.49328   0.52146   0.00000  Uiso   1.00
C775   C     0.17339   0.50336   0.97555   0.00000  Uiso   1.00
C776   C     0.15760   0.51073   0.52252   0.00000  Uiso   1.00
Cu777  Cu    0.04689   0.50001   0.75000   0.00000  Uiso   1.00
Cu778  Cu    0.28645   0.49999   0.75000   0.00000  Uiso   1.00
H779   H     0.26503   0.54210   0.53998   0.00000  Uiso   1.00
H780   H     0.06416   0.48057   0.95635   0.00000  Uiso   1.00
H781   H     0.11535   0.51189   0.61298   0.00000  Uiso   1.00
H782   H     0.21978   0.48441   0.88820   0.00000  Uiso   1.00
H783   H     0.30451   0.48493   0.60670   0.00000  Uiso   1.00
H784   H     0.02729   0.52486   0.89168   0.00000  Uiso   1.00
H785   H     0.33092   0.53905   0.97180   0.00000  Uiso   1.00
H786   H     0.33255   0.47879   0.52535   0.00000  Uiso   1.00
H787   H     0.18230   0.53388   0.57933   0.00000  Uiso   1.00
H788   H     0.14662   0.48960   0.91690   0.00000  Uiso   1.00
H789   H     0.29234   0.37315   0.70203   0.00000  Uiso   1.00
H790   H     0.04100   0.62684   0.79796   0.00000  Uiso   1.00
H791   H     0.19329   0.46240   0.80807   0.00000  Uiso   1.00
H792   H     0.14004   0.53762   0.69195   0.00000  Uiso   1.00
H793   H     0.10651   0.46284   0.80827   0.00000  Uiso   1.00
H794   H     0.22682   0.53717   0.69174   0.00000  Uiso   1.00
N795   N     0.11736   0.50001   0.74999   0.00000  Uiso   1.00
N796   N     0.21597   0.49999   0.75001   0.00000  Uiso   1.00
O797   O     0.03958   0.43989   0.75000   0.00000  Uiso   1.00
O798   O     0.29375   0.56011   0.75000   0.00000  Uiso   1.00
O799   O     0.29372   0.43988   0.75000   0.00000  Uiso   1.00
O800   O     0.03961   0.56012   0.74999   0.00000  Uiso   1.00
O801   O     0.01852   0.50001   0.81491   0.00000  Uiso   1.00
O802   O     0.31481   0.49999   0.68508   0.00000  Uiso   1.00
O803   O     0.27267   0.50000   0.81492   0.00000  Uiso   1.00
O804   O     0.06067   0.50000   0.68508   0.00000  Uiso   1.00
Br805  Br    0.28058   0.62072   0.67956   0.00000  Uiso   1.00
Br806  Br    0.05283   0.37926   0.82037   0.00000  Uiso   1.00
C807   C     0.66649   0.42076   0.75104   0.00000  Uiso   1.00
C808   C     0.33351   0.57923   0.74895   0.00000  Uiso   1.00
C809   C     0.52514   0.52521   0.54456   0.00000  Uiso   1.00
C810   C     0.47157   0.49324   0.95266   0.00000  Uiso   1.00
C811   C     0.57354   0.53069   0.52180   0.00000  Uiso   1.00
C812   C     0.42302   0.48853   0.97526   0.00000  Uiso   1.00
C813   C     0.64317   0.35575   0.72333   0.00000  Uiso   1.00
C814   C     0.35683   0.64425   0.77666   0.00000  Uiso   1.00
C815   C     0.64326   0.64631   0.72163   0.00000  Uiso   1.00
C816   C     0.35676   0.35368   0.77835   0.00000  Uiso   1.00
C817   C     0.33338   0.62383   0.74873   0.00000  Uiso   1.00
C818   C     0.66663   0.37616   0.75126   0.00000  Uiso   1.00
C819   C     0.51549   0.47922   0.78226   0.00000  Uiso   1.00
C820   C     0.48451   0.52079   0.71774   0.00000  Uiso   1.00
C821   C     0.46592   0.47933   0.78231   0.00000  Uiso   1.00
C822   C     0.53408   0.52068   0.71769   0.00000  Uiso   1.00
C823   C     0.63942   0.50049   0.83603   0.00000  Uiso   1.00
C824   C     0.36057   0.49995   0.66394   0.00000  Uiso   1.00
C825   C     0.62426   0.50461   0.88490   0.00000  Uiso   1.00
C826   C     0.37554   0.49929   0.61481   0.00000  Uiso   1.00
C827   C     0.63915   0.52733   0.95413   0.00000  Uiso   1.00
C828   C     0.35844   0.48701   0.54375   0.00000  Uiso   1.00
C829   C     0.65621   0.51901   0.90856   0.00000  Uiso   1.00
C830   C     0.34242   0.49042   0.59013   0.00000  Uiso   1.00
C831   C     0.57562   0.49757   0.90734   0.00000  Uiso   1.00
C832   C     0.42434   0.50614   0.59262   0.00000  Uiso   1.00
C833   C     0.55698   0.50731   0.95289   0.00000  Uiso   1.00
C834   C     0.44128   0.50396   0.54573   0.00000  Uiso   1.00
C835   C     0.58996   0.52165   0.97641   0.00000  Uiso   1.00
C836   C     0.40752   0.49328   0.52146   0.00000  Uiso   1.00
C837   C     0.50672   0.50336   0.97555   0.00000  Uiso   1.00
C838   C     0.49094   0.51073   0.52252   0.00000  Uiso   1.00
Cu839  Cu    0.38022   0.50001   0.75000   0.00000  Uiso   1.00
Cu840  Cu    0.61978   0.49999   0.75000   0.00000  Uiso   1.00
H841   H     0.59836   0.54210   0.53998   0.00000  Uiso   1.00
H842   H     0.39749   0.48057   0.95635   0.00000  Uiso   1.00
H843   H     0.44869   0.51189   0.61298   0.00000  Uiso   1.00
H844   H     0.55312   0.48441   0.88820   0.00000  Uiso   1.00
H845   H     0.63784   0.48493   0.60670   0.00000  Uiso   1.00
H846   H     0.36062   0.52486   0.89168   0.00000  Uiso   1.00
H847   H     0.66425   0.53905   0.97180   0.00000  Uiso   1.00
H848   H     0.66588   0.47879   0.52535   0.00000  Uiso   1.00
H849   H     0.51564   0.53388   0.57933   0.00000  Uiso   1.00
H850   H     0.47995   0.48960   0.91690   0.00000  Uiso   1.00
H851   H     0.62567   0.37315   0.70203   0.00000  Uiso   1.00
H852   H     0.37433   0.62684   0.79796   0.00000  Uiso   1.00
H853   H     0.52662   0.46240   0.80807   0.00000  Uiso   1.00
H854   H     0.47337   0.53762   0.69195   0.00000  Uiso   1.00
H855   H     0.43985   0.46284   0.80827   0.00000  Uiso   1.00
H856   H     0.56015   0.53717   0.69174   0.00000  Uiso   1.00
N857   N     0.45069   0.50001   0.74999   0.00000  Uiso   1.00
N858   N     0.54931   0.49999   0.75001   0.00000  Uiso   1.00
O859   O     0.37291   0.43989   0.75000   0.00000  Uiso   1.00
O860   O     0.62709   0.56011   0.75000   0.00000  Uiso   1.00
O861   O     0.62706   0.43988   0.75000   0.00000  Uiso   1.00
O862   O     0.37294   0.56012   0.74999   0.00000  Uiso   1.00
O863   O     0.35186   0.50001   0.81491   0.00000  Uiso   1.00
O864   O     0.64814   0.49999   0.68508   0.00000  Uiso   1.00
O865   O     0.60600   0.50000   0.81492   0.00000  Uiso   1.00
O866   O     0.39400   0.50000   0.68508   0.00000  Uiso   1.00
Br867  Br    0.61392   0.62072   0.67956   0.00000  Uiso   1.00
Br868  Br    0.38616   0.37926   0.82037   0.00000  Uiso   1.00
C869   C     0.99982   0.42076   0.75104   0.00000  Uiso   1.00
C870   C     0.66684   0.57923   0.74895   0.00000  Uiso   1.00
C871   C     0.85848   0.52521   0.54456   0.00000  Uiso   1.00
C872   C     0.80491   0.49324   0.95266   0.00000  Uiso   1.00
C873   C     0.90687   0.53069   0.52180   0.00000  Uiso   1.00
C874   C     0.75636   0.48853   0.97526   0.00000  Uiso   1.00
C875   C     0.97650   0.35575   0.72333   0.00000  Uiso   1.00
C876   C     0.69017   0.64425   0.77666   0.00000  Uiso   1.00
C877   C     0.97659   0.64631   0.72163   0.00000  Uiso   1.00
C878   C     0.69009   0.35368   0.77835   0.00000  Uiso   1.00
C879   C     0.66671   0.62383   0.74873   0.00000  Uiso   1.00
C880   C     0.99996   0.37616   0.75126   0.00000  Uiso   1.00
C881   C     0.84882   0.47922   0.78226   0.00000  Uiso   1.00
C882   C     0.81784   0.52079   0.71774   0.00000  Uiso   1.00
C883   C     0.79925   0.47933   0.78231   0.00000  Uiso   1.00
C884   C     0.86741   0.52068   0.71769   0.00000  Uiso   1.00
C885   C     0.97276   0.50049   0.83603   0.00000  Uiso   1.00
C886   C     0.69391   0.49995   0.66394   0.00000  Uiso   1.00
C887   C     0.95759   0.50461   0.88490   0.00000  Uiso   1.00
C888   C     0.70887   0.49929   0.61481   0.00000  Uiso   1.00
C889   C     0.97249   0.52733   0.95413   0.00000  Uiso   1.00
C890   C     0.69177   0.48701   0.54375   0.00000  Uiso   1.00
C891   C     0.98954   0.51901   0.90856   0.00000  Uiso   1.00
C892   C     0.67575   0.49042   0.59013   0.00000  Uiso   1.00
C893   C     0.90895   0.49757   0.90734   0.00000  Uiso   1.00
C894   C     0.75767   0.50614   0.59262   0.00000  Uiso   1.00
C895   C     0.89031   0.50731   0.95289   0.00000  Uiso   1.00
C896   C     0.77462   0.50396   0.54573   0.00000  Uiso   1.00
C897   C     0.92329   0.52165   0.97641   0.00000  Uiso   1.00
C898   C     0.74085   0.49328   0.52146   0.00000  Uiso   1.00
C899   C     0.84005   0.50336   0.97555   0.00000  Uiso   1.00
C900   C     0.82427   0.51073   0.52252   0.00000  Uiso   1.00
Cu901  Cu    0.71355   0.50001   0.75000   0.00000  Uiso   1.00
Cu902  Cu    0.95311   0.49999   0.75000   0.00000  Uiso   1.00
H903   H     0.93169   0.54210   0.53998   0.00000  Uiso   1.00
H904   H     0.73082   0.48057   0.95635   0.00000  Uiso   1.00
H905   H     0.78202   0.51189   0.61298   0.00000  Uiso   1.00
H906   H     0.88645   0.48441   0.88820   0.00000  Uiso   1.00
H907   H     0.97117   0.48493   0.60670   0.00000  Uiso   1.00
H908   H     0.69396   0.52486   0.89168   0.00000  Uiso   1.00
H909   H     0.99759   0.53905   0.97180   0.00000  Uiso   1.00
H910   H     0.99921   0.47879   0.52535   0.00000  Uiso   1.00
H911   H     0.84897   0.53388   0.57933   0.00000  Uiso   1.00
H912   H     0.81328   0.48960   0.91690   0.00000  Uiso   1.00
H913   H     0.95900   0.37315   0.70203   0.00000  Uiso   1.00
H914   H     0.70766   0.62684   0.79796   0.00000  Uiso   1.00
H915   H     0.85995   0.46240   0.80807   0.00000  Uiso   1.00
H916   H     0.80671   0.53762   0.69195   0.00000  Uiso   1.00
H917   H     0.77318   0.46284   0.80827   0.00000  Uiso   1.00
H918   H     0.89349   0.53717   0.69174   0.00000  Uiso   1.00
N919   N     0.78403   0.50001   0.74999   0.00000  Uiso   1.00
N920   N     0.88264   0.49999   0.75001   0.00000  Uiso   1.00
O921   O     0.70625   0.43989   0.75000   0.00000  Uiso   1.00
O922   O     0.96042   0.56011   0.75000   0.00000  Uiso   1.00
O923   O     0.96039   0.43988   0.75000   0.00000  Uiso   1.00
O924   O     0.70628   0.56012   0.74999   0.00000  Uiso   1.00
O925   O     0.68519   0.50001   0.81491   0.00000  Uiso   1.00
O926   O     0.98148   0.49999   0.68508   0.00000  Uiso   1.00
O927   O     0.93933   0.50000   0.81492   0.00000  Uiso   1.00
O928   O     0.72733   0.50000   0.68508   0.00000  Uiso   1.00
Br929  Br    0.94725   0.62072   0.67956   0.00000  Uiso   1.00
Br930  Br    0.71950   0.37926   0.82037   0.00000  Uiso   1.00
C931   C     0.33316   0.75410   0.75104   0.00000  Uiso   1.00
C932   C     0.00018   0.91257   0.74895   0.00000  Uiso   1.00
C933   C     0.19181   0.85854   0.54456   0.00000  Uiso   1.00
C934   C     0.13824   0.82657   0.95266   0.00000  Uiso   1.00
C935   C     0.24021   0.86402   0.52180   0.00000  Uiso   1.00
C936   C     0.08969   0.82186   0.97526   0.00000  Uiso   1.00
C937   C     0.30983   0.68908   0.72333   0.00000  Uiso   1.00
C938   C     0.02350   0.97758   0.77666   0.00000  Uiso   1.00
C939   C     0.30993   0.97965   0.72163   0.00000  Uiso   1.00
C940   C     0.02342   0.68701   0.77835   0.00000  Uiso   1.00
C941   C     0.00004   0.95717   0.74873   0.00000  Uiso   1.00
C942   C     0.33329   0.70949   0.75126   0.00000  Uiso   1.00
C943   C     0.18215   0.81256   0.78226   0.00000  Uiso   1.00
C944   C     0.15118   0.85412   0.71774   0.00000  Uiso   1.00
C945   C     0.13258   0.81267   0.78231   0.00000  Uiso   1.00
C946   C     0.20075   0.85401   0.71769   0.00000  Uiso   1.00
C947   C     0.30609   0.83382   0.83603   0.00000  Uiso   1.00
C948   C     0.02724   0.83329   0.66394   0.00000  Uiso   1.00
C949   C     0.29092   0.83794   0.88490   0.00000  Uiso   1.00
C950   C     0.04220   0.83262   0.61481   0.00000  Uiso   1.00
C951   C     0.30582   0.86066   0.95413   0.00000  Uiso   1.00
C952   C     0.02510   0.82035   0.54375   0.00000  Uiso   1.00
C953   C     0.32287   0.85234   0.90856   0.00000  Uiso   1.00
C954   C     0.00909   0.82375   0.59013   0.00000  Uiso   1.00
C955   C     0.24228   0.83091   0.90734   0.00000  Uiso   1.00
C956   C     0.09100   0.83948   0.59262   0.00000  Uiso   1.00
C957   C     0.22365   0.84065   0.95289   0.00000  Uiso   1.00
C958   C     0.10795   0.83729   0.54573   0.00000  Uiso   1.00
C959   C     0.25662   0.85498   0.97641   0.00000  Uiso   1.00
C960   C     0.07418   0.82661   0.52146   0.00000  Uiso   1.00
C961   C     0.17339   0.83669   0.97555   0.00000  Uiso   1.00
C962   C     0.15760   0.84406   0.52252   0.00000  Uiso   1.00
Cu963  Cu    0.04689   0.83334   0.75000   0.00000  Uiso   1.00
Cu964  Cu    0.28645   0.83333   0.75000   0.00000  Uiso   1.00
H965   H     0.26503   0.87544   0.53998   0.00000  Uiso   1.00
H966   H     0.06416   0.81390   0.95635   0.00000  Uiso   1.00
H967   H     0.11535   0.84522   0.61298   0.00000  Uiso   1.00
H968   H     0.21978   0.81774   0.88820   0.00000  Uiso   1.00
H969   H     0.30451   0.81827   0.60670   0.00000  Uiso   1.00
H970   H     0.02729   0.85820   0.89168   0.00000  Uiso   1.00
H971   H     0.33092   0.87238   0.97180   0.00000  Uiso   1.00
H972   H     0.33255   0.81212   0.52535   0.00000  Uiso   1.00
H973   H     0.18230   0.86721   0.57933   0.00000  Uiso   1.00
H974   H     0.14662   0.82293   0.91690   0.00000  Uiso   1.00
H975   H     0.29234   0.70648   0.70203   0.00000  Uiso   1.00
H976   H     0.04100   0.96018   0.79796   0.00000  Uiso   1.00
H977   H     0.19329   0.79573   0.80807   0.00000  Uiso   1.00
H978   H     0.14004   0.87096   0.69195   0.00000  Uiso   1.00
H979   H     0.10651   0.79618   0.80827   0.00000  Uiso   1.00
H980   H     0.22682   0.87050   0.69174   0.00000  Uiso   1.00
N981   N     0.11736   0.83334   0.74999   0.00000  Uiso   1.00
N982   N     0.21597   0.83332   0.75001   0.00000  Uiso   1.00
O983   O     0.03958   0.77322   0.75000   0.00000  Uiso   1.00
O984   O     0.29375   0.89345   0.75000   0.00000  Uiso   1.00
O985   O     0.29372   0.77321   0.75000   0.00000  Uiso   1.00
O986   O     0.03961   0.89346   0.74999   0.00000  Uiso   1.00
O987   O     0.01852   0.83334   0.81491   0.00000  Uiso   1.00
O988   O     0.31481   0.83332   0.68508   0.00000  Uiso   1.00
O989   O     0.27267   0.83333   0.81492   0.00000  Uiso   1.00
O990   O     0.06067   0.83333   0.68508   0.00000  Uiso   1.00
Br991  Br    0.28058   0.95405   0.67956   0.00000  Uiso   1.00
Br992  Br    0.05283   0.71259   0.82037   0.00000  Uiso   1.00
C993   C     0.66649   0.75410   0.75104   0.00000  Uiso   1.00
C994   C     0.33351   0.91257   0.74895   0.00000  Uiso   1.00
C995   C     0.52514   0.85854   0.54456   0.00000  Uiso   1.00
C996   C     0.47157   0.82657   0.95266   0.00000  Uiso   1.00
C997   C     0.57354   0.86402   0.52180   0.00000  Uiso   1.00
C998   C     0.42302   0.82186   0.97526   0.00000  Uiso   1.00
C999   C     0.64317   0.68908   0.72333   0.00000  Uiso   1.00
C1000  C     0.35683   0.97758   0.77666   0.00000  Uiso   1.00
C1001  C     0.64326   0.97965   0.72163   0.00000  Uiso   1.00
C1002  C     0.35676   0.68701   0.77835   0.00000  Uiso   1.00
C1003  C     0.33338   0.95717   0.74873   0.00000  Uiso   1.00
C1004  C     0.66663   0.70949   0.75126   0.00000  Uiso   1.00
C1005  C     0.51549   0.81256   0.78226   0.00000  Uiso   1.00
C1006  C     0.48451   0.85412   0.71774   0.00000  Uiso   1.00
C1007  C     0.46592   0.81267   0.78231   0.00000  Uiso   1.00
C1008  C     0.53408   0.85401   0.71769   0.00000  Uiso   1.00
C1009  C     0.63942   0.83382   0.83603   0.00000  Uiso   1.00
C1010  C     0.36057   0.83329   0.66394   0.00000  Uiso   1.00
C1011  C     0.62426   0.83794   0.88490   0.00000  Uiso   1.00
C1012  C     0.37554   0.83262   0.61481   0.00000  Uiso   1.00
C1013  C     0.63915   0.86066   0.95413   0.00000  Uiso   1.00
C1014  C     0.35844   0.82035   0.54375   0.00000  Uiso   1.00
C1015  C     0.65621   0.85234   0.90856   0.00000  Uiso   1.00
C1016  C     0.34242   0.82375   0.59013   0.00000  Uiso   1.00
C1017  C     0.57562   0.83091   0.90734   0.00000  Uiso   1.00
C1018  C     0.42434   0.83948   0.59262   0.00000  Uiso   1.00
C1019  C     0.55698   0.84065   0.95289   0.00000  Uiso   1.00
C1020  C     0.44128   0.83729   0.54573   0.00000  Uiso   1.00
C1021  C     0.58996   0.85498   0.97641   0.00000  Uiso   1.00
C1022  C     0.40752   0.82661   0.52146   0.00000  Uiso   1.00
C1023  C     0.50672   0.83669   0.97555   0.00000  Uiso   1.00
C1024  C     0.49094   0.84406   0.52252   0.00000  Uiso   1.00
Cu1025 Cu    0.38022   0.83334   0.75000   0.00000  Uiso   1.00
Cu1026 Cu    0.61978   0.83333   0.75000   0.00000  Uiso   1.00
H1027  H     0.59836   0.87544   0.53998   0.00000  Uiso   1.00
H1028  H     0.39749   0.81390   0.95635   0.00000  Uiso   1.00
H1029  H     0.44869   0.84522   0.61298   0.00000  Uiso   1.00
H1030  H     0.55312   0.81774   0.88820   0.00000  Uiso   1.00
H1031  H     0.63784   0.81827   0.60670   0.00000  Uiso   1.00
H1032  H     0.36062   0.85820   0.89168   0.00000  Uiso   1.00
H1033  H     0.66425   0.87238   0.97180   0.00000  Uiso   1.00
H1034  H     0.66588   0.81212   0.52535   0.00000  Uiso   1.00
H1035  H     0.51564   0.86721   0.57933   0.00000  Uiso   1.00
H1036  H     0.47995   0.82293   0.91690   0.00000  Uiso   1.00
H1037  H     0.62567   0.70648   0.70203   0.00000  Uiso   1.00
H1038  H     0.37433   0.96018   0.79796   0.00000  Uiso   1.00
H1039  H     0.52662   0.79573   0.80807   0.00000  Uiso   1.00
H1040  H     0.47337   0.87096   0.69195   0.00000  Uiso   1.00
H1041  H     0.43985   0.79618   0.80827   0.00000  Uiso   1.00
H1042  H     0.56015   0.87050   0.69174   0.00000  Uiso   1.00
N1043  N     0.45069   0.83334   0.74999   0.00000  Uiso   1.00
N1044  N     0.54931   0.83332   0.75001   0.00000  Uiso   1.00
O1045  O     0.37291   0.77322   0.75000   0.00000  Uiso   1.00
O1046  O     0.62709   0.89345   0.75000   0.00000  Uiso   1.00
O1047  O     0.62706   0.77321   0.75000   0.00000  Uiso   1.00
O1048  O     0.37294   0.89346   0.74999   0.00000  Uiso   1.00
O1049  O     0.35186   0.83334   0.81491   0.00000  Uiso   1.00
O1050  O     0.64814   0.83332   0.68508   0.00000  Uiso   1.00
O1051  O     0.60600   0.83333   0.81492   0.00000  Uiso   1.00
O1052  O     0.39400   0.83333   0.68508   0.00000  Uiso   1.00
Br1053 Br    0.61392   0.95405   0.67956   0.00000  Uiso   1.00
Br1054 Br    0.38616   0.71259   0.82037   0.00000  Uiso   1.00
C1055  C     0.99982   0.75410   0.75104   0.00000  Uiso   1.00
C1056  C     0.66684   0.91257   0.74895   0.00000  Uiso   1.00
C1057  C     0.85848   0.85854   0.54456   0.00000  Uiso   1.00
C1058  C     0.80491   0.82657   0.95266   0.00000  Uiso   1.00
C1059  C     0.90687   0.86402   0.52180   0.00000  Uiso   1.00
C1060  C     0.75636   0.82186   0.97526   0.00000  Uiso   1.00
C1061  C     0.97650   0.68908   0.72333   0.00000  Uiso   1.00
C1062  C     0.69017   0.97758   0.77666   0.00000  Uiso   1.00
C1063  C     0.97659   0.97965   0.72163   0.00000  Uiso   1.00
C1064  C     0.69009   0.68701   0.77835   0.00000  Uiso   1.00
C1065  C     0.66671   0.95717   0.74873   0.00000  Uiso   1.00
C1066  C     0.99996   0.70949   0.75126   0.00000  Uiso   1.00
C1067  C     0.84882   0.81256   0.78226   0.00000  Uiso   1.00
C1068  C     0.81784   0.85412   0.71774   0.00000  Uiso   1.00
C1069  C     0.79925   0.81267   0.78231   0.00000  Uiso   1.00
C1070  C     0.86741   0.85401   0.71769   0.00000  Uiso   1.00
C1071  C     0.97276   0.83382   0.83603   0.00000  Uiso   1.00
C1072  C     0.69391   0.83329   0.66394   0.00000  Uiso   1.00
C1073  C     0.95759   0.83794   0.88490   0.00000  Uiso   1.00
C1074  C     0.70887   0.83262   0.61481   0.00000  Uiso   1.00
C1075  C     0.97249   0.86066   0.95413   0.00000  Uiso   1.00
C1076  C     0.69177   0.82035   0.54375   0.00000  Uiso   1.00
C1077  C     0.98954   0.85234   0.90856   0.00000  Uiso   1.00
C1078  C     0.67575   0.82375   0.59013   0.00000  Uiso   1.00
C1079  C     0.90895   0.83091   0.90734   0.00000  Uiso   1.00
C1080  C     0.75767   0.83948   0.59262   0.00000  Uiso   1.00
C1081  C     0.89031   0.84065   0.95289   0.00000  Uiso   1.00
C1082  C     0.77462   0.83729   0.54573   0.00000  Uiso   1.00
C1083  C     0.92329   0.85498   0.97641   0.00000  Uiso   1.00
C1084  C     0.74085   0.82661   0.52146   0.00000  Uiso   1.00
C1085  C     0.84005   0.83669   0.97555   0.00000  Uiso   1.00
C1086  C     0.82427   0.84406   0.52252   0.00000  Uiso   1.00
Cu1087 Cu    0.71355   0.83334   0.75000   0.00000  Uiso   1.00
Cu1088 Cu    0.95311   0.83333   0.75000   0.00000  Uiso   1.00
H1089  H     0.93169   0.87544   0.53998   0.00000  Uiso   1.00
H1090  H     0.73082   0.81390   0.95635   0.00000  Uiso   1.00
H1091  H     0.78202   0.84522   0.61298   0.00000  Uiso   1.00
H1092  H     0.88645   0.81774   0.88820   0.00000  Uiso   1.00
H1093  H     0.97117   0.81827   0.60670   0.00000  Uiso   1.00
H1094  H     0.69396   0.85820   0.89168   0.00000  Uiso   1.00
H1095  H     0.99759   0.87238   0.97180   0.00000  Uiso   1.00
H1096  H     0.99921   0.81212   0.52535   0.00000  Uiso   1.00
H1097  H     0.84897   0.86721   0.57933   0.00000  Uiso   1.00
H1098  H     0.81328   0.82293   0.91690   0.00000  Uiso   1.00
H1099  H     0.95900   0.70648   0.70203   0.00000  Uiso   1.00
H1100  H     0.70766   0.96018   0.79796   0.00000  Uiso   1.00
H1101  H     0.85995   0.79573   0.80807   0.00000  Uiso   1.00
H1102  H     0.80671   0.87096   0.69195   0.00000  Uiso   1.00
H1103  H     0.77318   0.79618   0.80827   0.00000  Uiso   1.00
H1104  H     0.89349   0.87050   0.69174   0.00000  Uiso   1.00
N1105  N     0.78403   0.83334   0.74999   0.00000  Uiso   1.00
N1106  N     0.88264   0.83332   0.75001   0.00000  Uiso   1.00
O1107  O     0.70625   0.77322   0.75000   0.00000  Uiso   1.00
O1108  O     0.96042   0.89345   0.75000   0.00000  Uiso   1.00
O1109  O     0.96039   0.77321   0.75000   0.00000  Uiso   1.00
O1110  O     0.70628   0.89346   0.74999   0.00000  Uiso   1.00
O1111  O     0.68519   0.83334   0.81491   0.00000  Uiso   1.00
O1112  O     0.98148   0.83332   0.68508   0.00000  Uiso   1.00
O1113  O     0.93933   0.83333   0.81492   0.00000  Uiso   1.00
O1114  O     0.72733   0.83333   0.68508   0.00000  Uiso   1.00
Br1115 Br    0.94725   0.95405   0.67956   0.00000  Uiso   1.00
Br1116 Br    0.71950   0.71259   0.82037   0.00000  Uiso   1.00
loop_
_geom_bond_atom_site_label_1
_geom_bond_atom_site_label_2
_geom_bond_distance
_geom_bond_site_symmetry_2
_ccdc_geom_bond_type
C1     O55     1.291   .     A
C1     C12     1.445   .     S
C1     O115    1.290   .     S
C2     C11     1.444   .     S
C2     O56     1.291   .     A
C2     O178    1.290   1_455 S
C3     H43     1.076   .     S
C3     C32     1.417   .     A
C3     C5      1.386   .     A
C4     H44     1.076   .     S
C4     C31     1.417   .     A
C4     C6      1.386   .     A
C5     H35     1.084   .     S
C5     C587    1.390   1_554 S
C6     H36     1.084   .     S
C6     C588    1.390   .     S
C7     H45     1.084   .     S
C7     C12     1.399   .     A
C7     C381    1.386   1_545 S
C8     C11     1.399   .     A
C8     H46     1.084   .     S
C8     C196    1.386   .     S
C9     Br61    1.921   .     S
C9     C193    1.386   .     S
C9     C73     1.406   .     S
C10    Br62    1.921   .     S
C10    C380    1.386   1_545 S
C10    C136    1.406   1_455 S
C11    C133    1.406   1_455 S
C12    C72     1.406   .     S
C13    N52     1.368   .     A
C13    C15     1.417   .     A
C13    H47     1.081   .     S
C14    C16     1.417   .     A
C14    H48     1.081   .     S
C14    N51     1.368   .     A
C15    N51     1.367   .     A
C15    H49     1.081   .     S
C16    N52     1.367   .     A
C16    H50     1.081   .     S
C17    O59     1.295   .     A
C17    C19     1.466   .     S
C17    O119    1.297   .     S
C18    O60     1.296   .     A
C18    C20     1.467   .     S
C18    O182    1.297   1_455 S
C19    C23     1.399   .     A
C19    C25     1.398   .     A
C20    C24     1.399   .     A
C20    C26     1.399   .     A
C21    C29     1.404   .     A
C21    H41     1.084   .     S
C21    C23     1.392   .     A
C22    C24     1.391   .     A
C22    C30     1.404   .     A
C22    H166    1.083   1_455 S
C23    H102    1.083   .     S
C24    H163    1.083   1_455 S
C25    H38     1.075   .     S
C25    C27     1.405   .     A
C26    H37     1.075   .     S
C26    C28     1.405   .     A
C27    C29     1.418   .     A
C27    C31     1.427   .     A
C28    C30     1.418   .     A
C28    C32     1.427   .     A
C29    C563    1.390   .     S
C30    C564    1.390   1_554 S
C31    C590    1.425   .     S
C32    C589    1.425   1_554 S
Cu33   N51     2.015   .     S
Cu33   O57     1.957   .     S
Cu33   O56     1.957   .     S
Cu33   O60     1.944   .     S
Cu33   O53     1.959   .     S
Cu33   Cu158   2.681   1_455 S
Cu34   N52     2.015   .     S
Cu34   O55     1.957   .     S
Cu34   O54     1.959   .     S
Cu34   O58     1.957   .     S
Cu34   O59     1.944   .     S
Cu34   Cu95    2.681   .     S
H39    C86     1.083   .     S
H40    C147    1.083   1_455 S
H42    C84     1.083   .     S
O53    C125    1.290   1_455 S
O54    C64     1.290   .     S
O57    C141    1.297   1_455 S
O58    C80     1.297   .     S
C63    O117    1.291   .     A
C63    C74     1.445   .     S
C63    O177    1.290   .     S
C64    C73     1.444   .     S
C64    O118    1.291   .     A
C65    H105    1.076   .     S
C65    C94     1.417   .     A
C65    C67     1.386   .     A
C66    H106    1.076   .     S
C66    C93     1.417   .     A
C66    C68     1.386   .     A
C67    H97     1.084   .     S
C67    C649    1.390   1_554 S
C68    H98     1.084   .     S
C68    C650    1.390   .     S
C69    H107    1.084   .     S
C69    C74     1.399   .     A
C69    C443    1.386   1_545 S
C70    C73     1.399   .     A
C70    H108    1.084   .     S
C70    C258    1.386   .     S
C71    Br123   1.921   .     S
C71    C255    1.386   .     S
C71    C135    1.406   .     S
C72    Br124   1.921   .     S
C72    C442    1.386   1_545 S
C74    C134    1.406   .     S
C75    N114    1.368   .     A
C75    C77     1.417   .     A
C75    H109    1.081   .     S
C76    C78     1.417   .     A
C76    H110    1.081   .     S
C76    N113    1.368   .     A
C77    N113    1.367   .     A
C77    H111    1.081   .     S
C78    N114    1.367   .     A
C78    H112    1.081   .     S
C79    O121    1.295   .     A
C79    C81     1.466   .     S
C79    O181    1.297   .     S
C80    O122    1.296   .     A
C80    C82     1.467   .     S
C81    C85     1.399   .     A
C81    C87     1.398   .     A
C82    C86     1.399   .     A
C82    C88     1.399   .     A
C83    C91     1.404   .     A
C83    H103    1.084   .     S
C83    C85     1.392   .     A
C84    C86     1.391   .     A
C84    C92     1.404   .     A
C85    H164    1.083   .     S
C87    H100    1.075   .     S
C87    C89     1.405   .     A
C88    H99     1.075   .     S
C88    C90     1.405   .     A
C89    C91     1.418   .     A
C89    C93     1.427   .     A
C90    C92     1.418   .     A
C90    C94     1.427   .     A
C91    C625    1.390   .     S
C92    C626    1.390   1_554 S
C93    C652    1.425   .     S
C94    C651    1.425   1_554 S
Cu95   N113    2.015   .     S
Cu95   O119    1.957   .     S
Cu95   O118    1.957   .     S
Cu95   O122    1.944   .     S
Cu95   O115    1.959   .     S
Cu96   N114    2.015   .     S
Cu96   O117    1.957   .     S
Cu96   O116    1.959   .     S
Cu96   O120    1.957   .     S
Cu96   O121    1.944   .     S
Cu96   Cu157   2.681   .     S
H101   C148    1.083   .     S
H104   C146    1.083   .     S
O116   C126    1.290   .     S
O120   C142    1.297   .     S
C125   O179    1.291   .     A
C125   C136    1.445   .     S
C125   O53     1.290   1_655 S
C126   C135    1.444   .     S
C126   O180    1.291   .     A
C127   H167    1.076   .     S
C127   C156    1.417   .     A
C127   C129    1.386   .     A
C128   H168    1.076   .     S
C128   C155    1.417   .     A
C128   C130    1.386   .     A
C129   H159    1.084   .     S
C129   C711    1.390   1_554 S
C130   H160    1.084   .     S
C130   C712    1.390   .     S
C131   H169    1.084   .     S
C131   C136    1.399   .     A
C131   C505    1.386   1_545 S
C132   C135    1.399   .     A
C132   H170    1.084   .     S
C132   C320    1.386   .     S
C133   Br185   1.921   .     S
C133   C317    1.386   .     S
C133   C11     1.406   1_655 S
C134   Br186   1.921   .     S
C134   C504    1.386   1_545 S
C136   C10     1.406   1_655 S
C137   N176    1.368   .     A
C137   C139    1.417   .     A
C137   H171    1.081   .     S
C138   C140    1.417   .     A
C138   H172    1.081   .     S
C138   N175    1.368   .     A
C139   N175    1.367   .     A
C139   H173    1.081   .     S
C140   N176    1.367   .     A
C140   H174    1.081   .     S
C141   O183    1.295   .     A
C141   C143    1.466   .     S
C141   O57     1.297   1_655 S
C142   O184    1.296   .     A
C142   C144    1.467   .     S
C143   C147    1.399   .     A
C143   C149    1.398   .     A
C144   C148    1.399   .     A
C144   C150    1.399   .     A
C145   C153    1.404   .     A
C145   H165    1.084   .     S
C145   C147    1.392   .     A
C146   C148    1.391   .     A
C146   C154    1.404   .     A
C147   H40     1.083   1_655 S
C149   H162    1.075   .     S
C149   C151    1.405   .     A
C150   H161    1.075   .     S
C150   C152    1.405   .     A
C151   C153    1.418   .     A
C151   C155    1.427   .     A
C152   C154    1.418   .     A
C152   C156    1.427   .     A
C153   C687    1.390   .     S
C154   C688    1.390   1_554 S
C155   C714    1.425   .     S
C156   C713    1.425   1_554 S
Cu157  N175    2.015   .     S
Cu157  O181    1.957   .     S
Cu157  O180    1.957   .     S
Cu157  O184    1.944   .     S
Cu157  O177    1.959   .     S
Cu158  N176    2.015   .     S
Cu158  O179    1.957   .     S
Cu158  O178    1.959   .     S
Cu158  O182    1.957   .     S
Cu158  O183    1.944   .     S
Cu158  Cu33    2.681   1_655 S
H163   C24     1.083   1_655 S
H166   C22     1.083   1_655 S
O178   C2      1.290   1_655 S
O182   C18     1.297   1_655 S
C187   O241    1.291   .     A
C187   C198    1.445   .     S
C187   O301    1.290   .     S
C188   C197    1.444   .     S
C188   O242    1.291   .     A
C188   O364    1.290   1_455 S
C189   H229    1.076   .     S
C189   C218    1.417   .     A
C189   C191    1.386   .     A
C190   H230    1.076   .     S
C190   C217    1.417   .     A
C190   C192    1.386   .     A
C191   H221    1.084   .     S
C191   C773    1.390   1_554 S
C192   H222    1.084   .     S
C192   C774    1.390   .     S
C193   H231    1.084   .     S
C193   C198    1.399   .     A
C194   C197    1.399   .     A
C194   H232    1.084   .     S
C194   C382    1.386   .     S
C195   Br247   1.921   .     S
C195   C379    1.386   .     S
C195   C259    1.406   .     S
C196   Br248   1.921   .     S
C196   C322    1.406   1_455 S
C197   C319    1.406   1_455 S
C198   C258    1.406   .     S
C199   N238    1.368   .     A
C199   C201    1.417   .     A
C199   H233    1.081   .     S
C200   C202    1.417   .     A
C200   H234    1.081   .     S
C200   N237    1.368   .     A
C201   N237    1.367   .     A
C201   H235    1.081   .     S
C202   N238    1.367   .     A
C202   H236    1.081   .     S
C203   O245    1.295   .     A
C203   C205    1.466   .     S
C203   O305    1.297   .     S
C204   O246    1.296   .     A
C204   C206    1.467   .     S
C204   O368    1.297   1_455 S
C205   C209    1.399   .     A
C205   C211    1.398   .     A
C206   C210    1.399   .     A
C206   C212    1.399   .     A
C207   C215    1.404   .     A
C207   H227    1.084   .     S
C207   C209    1.392   .     A
C208   C210    1.391   .     A
C208   C216    1.404   .     A
C208   H352    1.083   1_455 S
C209   H288    1.083   .     S
C210   H349    1.083   1_455 S
C211   H224    1.075   .     S
C211   C213    1.405   .     A
C212   H223    1.075   .     S
C212   C214    1.405   .     A
C213   C215    1.418   .     A
C213   C217    1.427   .     A
C214   C216    1.418   .     A
C214   C218    1.427   .     A
C215   C749    1.390   .     S
C216   C750    1.390   1_554 S
C217   C776    1.425   .     S
C218   C775    1.425   1_554 S
Cu219  N237    2.015   .     S
Cu219  O243    1.957   .     S
Cu219  O242    1.957   .     S
Cu219  O246    1.944   .     S
Cu219  O239    1.959   .     S
Cu219  Cu344   2.681   1_455 S
Cu220  N238    2.015   .     S
Cu220  O241    1.957   .     S
Cu220  O240    1.959   .     S
Cu220  O244    1.957   .     S
Cu220  O245    1.944   .     S
Cu220  Cu281   2.681   .     S
H225   C272    1.083   .     S
H226   C333    1.083   1_455 S
H228   C270    1.083   .     S
O239   C311    1.290   1_455 S
O240   C250    1.290   .     S
O243   C327    1.297   1_455 S
O244   C266    1.297   .     S
C249   O303    1.291   .     A
C249   C260    1.445   .     S
C249   O363    1.290   .     S
C250   C259    1.444   .     S
C250   O304    1.291   .     A
C251   H291    1.076   .     S
C251   C280    1.417   .     A
C251   C253    1.386   .     A
C252   H292    1.076   .     S
C252   C279    1.417   .     A
C252   C254    1.386   .     A
C253   H283    1.084   .     S
C253   C835    1.390   1_554 S
C254   H284    1.084   .     S
C254   C836    1.390   .     S
C255   H293    1.084   .     S
C255   C260    1.399   .     A
C256   C259    1.399   .     A
C256   H294    1.084   .     S
C256   C444    1.386   .     S
C257   Br309   1.921   .     S
C257   C441    1.386   .     S
C257   C321    1.406   .     S
C258   Br310   1.921   .     S
C260   C320    1.406   .     S
C261   N300    1.368   .     A
C261   C263    1.417   .     A
C261   H295    1.081   .     S
C262   C264    1.417   .     A
C262   H296    1.081   .     S
C262   N299    1.368   .     A
C263   N299    1.367   .     A
C263   H297    1.081   .     S
C264   N300    1.367   .     A
C264   H298    1.081   .     S
C265   O307    1.295   .     A
C265   C267    1.466   .     S
C265   O367    1.297   .     S
C266   O308    1.296   .     A
C266   C268    1.467   .     S
C267   C271    1.399   .     A
C267   C273    1.398   .     A
C268   C272    1.399   .     A
C268   C274    1.399   .     A
C269   C277    1.404   .     A
C269   H289    1.084   .     S
C269   C271    1.392   .     A
C270   C272    1.391   .     A
C270   C278    1.404   .     A
C271   H350    1.083   .     S
C273   H286    1.075   .     S
C273   C275    1.405   .     A
C274   H285    1.075   .     S
C274   C276    1.405   .     A
C275   C277    1.418   .     A
C275   C279    1.427   .     A
C276   C278    1.418   .     A
C276   C280    1.427   .     A
C277   C811    1.390   .     S
C278   C812    1.390   1_554 S
C279   C838    1.425   .     S
C280   C837    1.425   1_554 S
Cu281  N299    2.015   .     S
Cu281  O305    1.957   .     S
Cu281  O304    1.957   .     S
Cu281  O308    1.944   .     S
Cu281  O301    1.959   .     S
Cu282  N300    2.015   .     S
Cu282  O303    1.957   .     S
Cu282  O302    1.959   .     S
Cu282  O306    1.957   .     S
Cu282  O307    1.944   .     S
Cu282  Cu343   2.681   .     S
H287   C334    1.083   .     S
H290   C332    1.083   .     S
O302   C312    1.290   .     S
O306   C328    1.297   .     S
C311   O365    1.291   .     A
C311   C322    1.445   .     S
C311   O239    1.290   1_655 S
C312   C321    1.444   .     S
C312   O366    1.291   .     A
C313   H353    1.076   .     S
C313   C342    1.417   .     A
C313   C315    1.386   .     A
C314   H354    1.076   .     S
C314   C341    1.417   .     A
C314   C316    1.386   .     A
C315   H345    1.084   .     S
C315   C897    1.390   1_554 S
C316   H346    1.084   .     S
C316   C898    1.390   .     S
C317   H355    1.084   .     S
C317   C322    1.399   .     A
C318   C321    1.399   .     A
C318   H356    1.084   .     S
C318   C506    1.386   .     S
C319   Br371   1.921   .     S
C319   C503    1.386   .     S
C319   C197    1.406   1_655 S
C320   Br372   1.921   .     S
C322   C196    1.406   1_655 S
C323   N362    1.368   .     A
C323   C325    1.417   .     A
C323   H357    1.081   .     S
C324   C326    1.417   .     A
C324   H358    1.081   .     S
C324   N361    1.368   .     A
C325   N361    1.367   .     A
C325   H359    1.081   .     S
C326   N362    1.367   .     A
C326   H360    1.081   .     S
C327   O369    1.295   .     A
C327   C329    1.466   .     S
C327   O243    1.297   1_655 S
C328   O370    1.296   .     A
C328   C330    1.467   .     S
C329   C333    1.399   .     A
C329   C335    1.398   .     A
C330   C334    1.399   .     A
C330   C336    1.399   .     A
C331   C339    1.404   .     A
C331   H351    1.084   .     S
C331   C333    1.392   .     A
C332   C334    1.391   .     A
C332   C340    1.404   .     A
C333   H226    1.083   1_655 S
C335   H348    1.075   .     S
C335   C337    1.405   .     A
C336   H347    1.075   .     S
C336   C338    1.405   .     A
C337   C339    1.418   .     A
C337   C341    1.427   .     A
C338   C340    1.418   .     A
C338   C342    1.427   .     A
C339   C873    1.390   .     S
C340   C874    1.390   1_554 S
C341   C900    1.425   .     S
C342   C899    1.425   1_554 S
Cu343  N361    2.015   .     S
Cu343  O367    1.957   .     S
Cu343  O366    1.957   .     S
Cu343  O370    1.944   .     S
Cu343  O363    1.959   .     S
Cu344  N362    2.015   .     S
Cu344  O365    1.957   .     S
Cu344  O364    1.959   .     S
Cu344  O368    1.957   .     S
Cu344  O369    1.944   .     S
Cu344  Cu219   2.681   1_655 S
H349   C210    1.083   1_655 S
H352   C208    1.083   1_655 S
O364   C188    1.290   1_655 S
O368   C204    1.297   1_655 S
C373   O427    1.291   .     A
C373   C384    1.445   .     S
C373   O487    1.290   .     S
C374   C383    1.444   .     S
C374   O428    1.291   .     A
C374   O550    1.290   1_455 S
C375   H415    1.076   .     S
C375   C404    1.417   .     A
C375   C377    1.386   .     A
C376   H416    1.076   .     S
C376   C403    1.417   .     A
C376   C378    1.386   .     A
C377   H407    1.084   .     S
C377   C959    1.390   1_554 S
C378   H408    1.084   .     S
C378   C960    1.390   .     S
C379   H417    1.084   .     S
C379   C384    1.399   .     A
C380   C383    1.399   .     A
C380   H418    1.084   .     S
C380   C10     1.386   1_565 S
C381   Br433   1.921   .     S
C381   C7      1.386   1_565 S
C381   C445    1.406   .     S
C382   Br434   1.921   .     S
C382   C508    1.406   1_455 S
C383   C505    1.406   1_455 S
C384   C444    1.406   .     S
C385   N424    1.368   .     A
C385   C387    1.417   .     A
C385   H419    1.081   .     S
C386   C388    1.417   .     A
C386   H420    1.081   .     S
C386   N423    1.368   .     A
C387   N423    1.367   .     A
C387   H421    1.081   .     S
C388   N424    1.367   .     A
C388   H422    1.081   .     S
C389   O431    1.295   .     A
C389   C391    1.466   .     S
C389   O491    1.297   .     S
C390   O432    1.296   .     A
C390   C392    1.467   .     S
C390   O554    1.297   1_455 S
C391   C395    1.399   .     A
C391   C397    1.398   .     A
C392   C396    1.399   .     A
C392   C398    1.399   .     A
C393   C401    1.404   .     A
C393   H413    1.084   .     S
C393   C395    1.392   .     A
C394   C396    1.391   .     A
C394   C402    1.404   .     A
C394   H538    1.083   1_455 S
C395   H474    1.083   .     S
C396   H535    1.083   1_455 S
C397   H410    1.075   .     S
C397   C399    1.405   .     A
C398   H409    1.075   .     S
C398   C400    1.405   .     A
C399   C401    1.418   .     A
C399   C403    1.427   .     A
C400   C402    1.418   .     A
C400   C404    1.427   .     A
C401   C935    1.390   .     S
C402   C936    1.390   1_554 S
C403   C962    1.425   .     S
C404   C961    1.425   1_554 S
Cu405  N423    2.015   .     S
Cu405  O429    1.957   .     S
Cu405  O428    1.957   .     S
Cu405  O432    1.944   .     S
Cu405  O425    1.959   .     S
Cu405  Cu530   2.681   1_455 S
Cu406  N424    2.015   .     S
Cu406  O427    1.957   .     S
Cu406  O426    1.959   .     S
Cu406  O430    1.957   .     S
Cu406  O431    1.944   .     S
Cu406  Cu467   2.681   .     S
H411   C458    1.083   .     S
H412   C519    1.083   1_455 S
H414   C456    1.083   .     S
O425   C497    1.290   1_455 S
O426   C436    1.290   .     S
O429   C513    1.297   1_455 S
O430   C452    1.297   .     S
C435   O489    1.291   .     A
C435   C446    1.445   .     S
C435   O549    1.290   .     S
C436   C445    1.444   .     S
C436   O490    1.291   .     A
C437   H477    1.076   .     S
C437   C466    1.417   .     A
C437   C439    1.386   .     A
C438   H478    1.076   .     S
C438   C465    1.417   .     A
C438   C440    1.386   .     A
C439   H469    1.084   .     S
C439   C1021   1.390   1_554 S
C440   H470    1.084   .     S
C440   C1022   1.390   .     S
C441   H479    1.084   .     S
C441   C446    1.399   .     A
C442   C445    1.399   .     A
C442   H480    1.084   .     S
C442   C72     1.386   1_565 S
C443   Br495   1.921   .     S
C443   C69     1.386   1_565 S
C443   C507    1.406   .     S
C444   Br496   1.921   .     S
C446   C506    1.406   .     S
C447   N486    1.368   .     A
C447   C449    1.417   .     A
C447   H481    1.081   .     S
C448   C450    1.417   .     A
C448   H482    1.081   .     S
C448   N485    1.368   .     A
C449   N485    1.367   .     A
C449   H483    1.081   .     S
C450   N486    1.367   .     A
C450   H484    1.081   .     S
C451   O493    1.295   .     A
C451   C453    1.466   .     S
C451   O553    1.297   .     S
C452   O494    1.296   .     A
C452   C454    1.467   .     S
C453   C457    1.399   .     A
C453   C459    1.398   .     A
C454   C458    1.399   .     A
C454   C460    1.399   .     A
C455   C463    1.404   .     A
C455   H475    1.084   .     S
C455   C457    1.392   .     A
C456   C458    1.391   .     A
C456   C464    1.404   .     A
C457   H536    1.083   .     S
C459   H472    1.075   .     S
C459   C461    1.405   .     A
C460   H471    1.075   .     S
C460   C462    1.405   .     A
C461   C463    1.418   .     A
C461   C465    1.427   .     A
C462   C464    1.418   .     A
C462   C466    1.427   .     A
C463   C997    1.390   .     S
C464   C998    1.390   1_554 S
C465   C1024   1.425   .     S
C466   C1023   1.425   1_554 S
Cu467  N485    2.015   .     S
Cu467  O491    1.957   .     S
Cu467  O490    1.957   .     S
Cu467  O494    1.944   .     S
Cu467  O487    1.959   .     S
Cu468  N486    2.015   .     S
Cu468  O489    1.957   .     S
Cu468  O488    1.959   .     S
Cu468  O492    1.957   .     S
Cu468  O493    1.944   .     S
Cu468  Cu529   2.681   .     S
H473   C520    1.083   .     S
H476   C518    1.083   .     S
O488   C498    1.290   .     S
O492   C514    1.297   .     S
C497   O551    1.291   .     A
C497   C508    1.445   .     S
C497   O425    1.290   1_655 S
C498   C507    1.444   .     S
C498   O552    1.291   .     A
C499   H539    1.076   .     S
C499   C528    1.417   .     A
C499   C501    1.386   .     A
C500   H540    1.076   .     S
C500   C527    1.417   .     A
C500   C502    1.386   .     A
C501   H531    1.084   .     S
C501   C1083   1.390   1_554 S
C502   H532    1.084   .     S
C502   C1084   1.390   .     S
C503   H541    1.084   .     S
C503   C508    1.399   .     A
C504   C507    1.399   .     A
C504   H542    1.084   .     S
C504   C134    1.386   1_565 S
C505   Br557   1.921   .     S
C505   C131    1.386   1_565 S
C505   C383    1.406   1_655 S
C506   Br558   1.921   .     S
C508   C382    1.406   1_655 S
C509   N548    1.368   .     A
C509   C511    1.417   .     A
C509   H543    1.081   .     S
C510   C512    1.417   .     A
C510   H544    1.081   .     S
C510   N547    1.368   .     A
C511   N547    1.367   .     A
C511   H545    1.081   .     S
C512   N548    1.367   .     A
C512   H546    1.081   .     S
C513   O555    1.295   .     A
C513   C515    1.466   .     S
C513   O429    1.297   1_655 S
C514   O556    1.296   .     A
C514   C516    1.467   .     S
C515   C519    1.399   .     A
C515   C521    1.398   .     A
C516   C520    1.399   .     A
C516   C522    1.399   .     A
C517   C525    1.404   .     A
C517   H537    1.084   .     S
C517   C519    1.392   .     A
C518   C520    1.391   .     A
C518   C526    1.404   .     A
C519   H412    1.083   1_655 S
C521   H534    1.075   .     S
C521   C523    1.405   .     A
C522   H533    1.075   .     S
C522   C524    1.405   .     A
C523   C525    1.418   .     A
C523   C527    1.427   .     A
C524   C526    1.418   .     A
C524   C528    1.427   .     A
C525   C1059   1.390   .     S
C526   C1060   1.390   1_554 S
C527   C1086   1.425   .     S
C528   C1085   1.425   1_554 S
Cu529  N547    2.015   .     S
Cu529  O553    1.957   .     S
Cu529  O552    1.957   .     S
Cu529  O556    1.944   .     S
Cu529  O549    1.959   .     S
Cu530  N548    2.015   .     S
Cu530  O551    1.957   .     S
Cu530  O550    1.959   .     S
Cu530  O554    1.957   .     S
Cu530  O555    1.944   .     S
Cu530  Cu405   2.681   1_655 S
H535   C396    1.083   1_655 S
H538   C394    1.083   1_655 S
O550   C374    1.290   1_655 S
O554   C390    1.297   1_655 S
C559   O613    1.291   .     A
C559   C570    1.445   .     S
C559   O673    1.290   .     S
C560   C569    1.444   .     S
C560   O614    1.291   .     A
C560   O736    1.290   1_455 S
C561   H601    1.076   .     S
C561   C590    1.417   .     A
C561   C563    1.386   .     A
C562   H602    1.076   .     S
C562   C589    1.417   .     A
C562   C564    1.386   .     A
C563   H593    1.084   .     S
C564   H594    1.084   .     S
C564   C30     1.390   1_556 S
C565   H603    1.084   .     S
C565   C570    1.399   .     A
C565   C939    1.386   1_545 S
C566   C569    1.399   .     A
C566   H604    1.084   .     S
C566   C754    1.386   .     S
C567   Br619   1.921   .     S
C567   C751    1.386   .     S
C567   C631    1.406   .     S
C568   Br620   1.921   .     S
C568   C938    1.386   1_545 S
C568   C694    1.406   1_455 S
C569   C691    1.406   1_455 S
C570   C630    1.406   .     S
C571   N610    1.368   .     A
C571   C573    1.417   .     A
C571   H605    1.081   .     S
C572   C574    1.417   .     A
C572   H606    1.081   .     S
C572   N609    1.368   .     A
C573   N609    1.367   .     A
C573   H607    1.081   .     S
C574   N610    1.367   .     A
C574   H608    1.081   .     S
C575   O617    1.295   .     A
C575   C577    1.466   .     S
C575   O677    1.297   .     S
C576   O618    1.296   .     A
C576   C578    1.467   .     S
C576   O740    1.297   1_455 S
C577   C581    1.399   .     A
C577   C583    1.398   .     A
C578   C582    1.399   .     A
C578   C584    1.399   .     A
C579   C587    1.404   .     A
C579   H599    1.084   .     S
C579   C581    1.392   .     A
C580   C582    1.391   .     A
C580   C588    1.404   .     A
C580   H724    1.083   1_455 S
C581   H660    1.083   .     S
C582   H721    1.083   1_455 S
C583   H596    1.075   .     S
C583   C585    1.405   .     A
C584   H595    1.075   .     S
C584   C586    1.405   .     A
C585   C587    1.418   .     A
C585   C589    1.427   .     A
C586   C588    1.418   .     A
C586   C590    1.427   .     A
C587   C5      1.390   1_556 S
C589   C32     1.425   1_556 S
Cu591  N609    2.015   .     S
Cu591  O615    1.957   .     S
Cu591  O614    1.957   .     S
Cu591  O618    1.944   .     S
Cu591  O611    1.959   .     S
Cu591  Cu716   2.681   1_455 S
Cu592  N610    2.015   .     S
Cu592  O613    1.957   .     S
Cu592  O612    1.959   .     S
Cu592  O616    1.957   .     S
Cu592  O617    1.944   .     S
Cu592  Cu653   2.681   .     S
H597   C644    1.083   .     S
H598   C705    1.083   1_455 S
H600   C642    1.083   .     S
O611   C683    1.290   1_455 S
O612   C622    1.290   .     S
O615   C699    1.297   1_455 S
O616   C638    1.297   .     S
C621   O675    1.291   .     A
C621   C632    1.445   .     S
C621   O735    1.290   .     S
C622   C631    1.444   .     S
C622   O676    1.291   .     A
C623   H663    1.076   .     S
C623   C652    1.417   .     A
C623   C625    1.386   .     A
C624   H664    1.076   .     S
C624   C651    1.417   .     A
C624   C626    1.386   .     A
C625   H655    1.084   .     S
C626   H656    1.084   .     S
C626   C92     1.390   1_556 S
C627   H665    1.084   .     S
C627   C632    1.399   .     A
C627   C1001   1.386   1_545 S
C628   C631    1.399   .     A
C628   H666    1.084   .     S
C628   C816    1.386   .     S
C629   Br681   1.921   .     S
C629   C813    1.386   .     S
C629   C693    1.406   .     S
C630   Br682   1.921   .     S
C630   C1000   1.386   1_545 S
C632   C692    1.406   .     S
C633   N672    1.368   .     A
C633   C635    1.417   .     A
C633   H667    1.081   .     S
C634   C636    1.417   .     A
C634   H668    1.081   .     S
C634   N671    1.368   .     A
C635   N671    1.367   .     A
C635   H669    1.081   .     S
C636   N672    1.367   .     A
C636   H670    1.081   .     S
C637   O679    1.295   .     A
C637   C639    1.466   .     S
C637   O739    1.297   .     S
C638   O680    1.296   .     A
C638   C640    1.467   .     S
C639   C643    1.399   .     A
C639   C645    1.398   .     A
C640   C644    1.399   .     A
C640   C646    1.399   .     A
C641   C649    1.404   .     A
C641   H661    1.084   .     S
C641   C643    1.392   .     A
C642   C644    1.391   .     A
C642   C650    1.404   .     A
C643   H722    1.083   .     S
C645   H658    1.075   .     S
C645   C647    1.405   .     A
C646   H657    1.075   .     S
C646   C648    1.405   .     A
C647   C649    1.418   .     A
C647   C651    1.427   .     A
C648   C650    1.418   .     A
C648   C652    1.427   .     A
C649   C67     1.390   1_556 S
C651   C94     1.425   1_556 S
Cu653  N671    2.015   .     S
Cu653  O677    1.957   .     S
Cu653  O676    1.957   .     S
Cu653  O680    1.944   .     S
Cu653  O673    1.959   .     S
Cu654  N672    2.015   .     S
Cu654  O675    1.957   .     S
Cu654  O674    1.959   .     S
Cu654  O678    1.957   .     S
Cu654  O679    1.944   .     S
Cu654  Cu715   2.681   .     S
H659   C706    1.083   .     S
H662   C704    1.083   .     S
O674   C684    1.290   .     S
O678   C700    1.297   .     S
C683   O737    1.291   .     A
C683   C694    1.445   .     S
C683   O611    1.290   1_655 S
C684   C693    1.444   .     S
C684   O738    1.291   .     A
C685   H725    1.076   .     S
C685   C714    1.417   .     A
C685   C687    1.386   .     A
C686   H726    1.076   .     S
C686   C713    1.417   .     A
C686   C688    1.386   .     A
C687   H717    1.084   .     S
C688   H718    1.084   .     S
C688   C154    1.390   1_556 S
C689   H727    1.084   .     S
C689   C694    1.399   .     A
C689   C1063   1.386   1_545 S
C690   C693    1.399   .     A
C690   H728    1.084   .     S
C690   C878    1.386   .     S
C691   Br743   1.921   .     S
C691   C875    1.386   .     S
C691   C569    1.406   1_655 S
C692   Br744   1.921   .     S
C692   C1062   1.386   1_545 S
C694   C568    1.406   1_655 S
C695   N734    1.368   .     A
C695   C697    1.417   .     A
C695   H729    1.081   .     S
C696   C698    1.417   .     A
C696   H730    1.081   .     S
C696   N733    1.368   .     A
C697   N733    1.367   .     A
C697   H731    1.081   .     S
C698   N734    1.367   .     A
C698   H732    1.081   .     S
C699   O741    1.295   .     A
C699   C701    1.466   .     S
C699   O615    1.297   1_655 S
C700   O742    1.296   .     A
C700   C702    1.467   .     S
C701   C705    1.399   .     A
C701   C707    1.398   .     A
C702   C706    1.399   .     A
C702   C708    1.399   .     A
C703   C711    1.404   .     A
C703   H723    1.084   .     S
C703   C705    1.392   .     A
C704   C706    1.391   .     A
C704   C712    1.404   .     A
C705   H598    1.083   1_655 S
C707   H720    1.075   .     S
C707   C709    1.405   .     A
C708   H719    1.075   .     S
C708   C710    1.405   .     A
C709   C711    1.418   .     A
C709   C713    1.427   .     A
C710   C712    1.418   .     A
C710   C714    1.427   .     A
C711   C129    1.390   1_556 S
C713   C156    1.425   1_556 S
Cu715  N733    2.015   .     S
Cu715  O739    1.957   .     S
Cu715  O738    1.957   .     S
Cu715  O742    1.944   .     S
Cu715  O735    1.959   .     S
Cu716  N734    2.015   .     S
Cu716  O737    1.957   .     S
Cu716  O736    1.959   .     S
Cu716  O740    1.957   .     S
Cu716  O741    1.944   .     S
Cu716  Cu591   2.681   1_655 S
H721   C582    1.083   1_655 S
H724   C580    1.083   1_655 S
O736   C560    1.290   1_655 S
O740   C576    1.297   1_655 S
C745   O799    1.291   .     A
C745   C756    1.445   .     S
C745   O859    1.290   .     S
C746   C755    1.444   .     S
C746   O800    1.291   .     A
C746   O922    1.290   1_455 S
C747   H787    1.076   .     S
C747   C776    1.417   .     A
C747   C749    1.386   .     A
C748   H788    1.076   .     S
C748   C775    1.417   .     A
C748   C750    1.386   .     A
C749   H779    1.084   .     S
C750   H780    1.084   .     S
C750   C216    1.390   1_556 S
C751   H789    1.084   .     S
C751   C756    1.399   .     A
C752   C755    1.399   .     A
C752   H790    1.084   .     S
C752   C940    1.386   .     S
C753   Br805   1.921   .     S
C753   C937    1.386   .     S
C753   C817    1.406   .     S
C754   Br806   1.921   .     S
C754   C880    1.406   1_455 S
C755   C877    1.406   1_455 S
C756   C816    1.406   .     S
C757   N796    1.368   .     A
C757   C759    1.417   .     A
C757   H791    1.081   .     S
C758   C760    1.417   .     A
C758   H792    1.081   .     S
C758   N795    1.368   .     A
C759   N795    1.367   .     A
C759   H793    1.081   .     S
C760   N796    1.367   .     A
C760   H794    1.081   .     S
C761   O803    1.295   .     A
C761   C763    1.466   .     S
C761   O863    1.297   .     S
C762   O804    1.296   .     A
C762   C764    1.467   .     S
C762   O926    1.297   1_455 S
C763   C767    1.399   .     A
C763   C769    1.398   .     A
C764   C768    1.399   .     A
C764   C770    1.399   .     A
C765   C773    1.404   .     A
C765   H785    1.084   .     S
C765   C767    1.392   .     A
C766   C768    1.391   .     A
C766   C774    1.404   .     A
C766   H910    1.083   1_455 S
C767   H846    1.083   .     S
C768   H907    1.083   1_455 S
C769   H782    1.075   .     S
C769   C771    1.405   .     A
C770   H781    1.075   .     S
C770   C772    1.405   .     A
C771   C773    1.418   .     A
C771   C775    1.427   .     A
C772   C774    1.418   .     A
C772   C776    1.427   .     A
C773   C191    1.390   1_556 S
C775   C218    1.425   1_556 S
Cu777  N795    2.015   .     S
Cu777  O801    1.957   .     S
Cu777  O800    1.957   .     S
Cu777  O804    1.944   .     S
Cu777  O797    1.959   .     S
Cu777  Cu902   2.681   1_455 S
Cu778  N796    2.015   .     S
Cu778  O799    1.957   .     S
Cu778  O798    1.959   .     S
Cu778  O802    1.957   .     S
Cu778  O803    1.944   .     S
Cu778  Cu839   2.681   .     S
H783   C830    1.083   .     S
H784   C891    1.083   1_455 S
H786   C828    1.083   .     S
O797   C869    1.290   1_455 S
O798   C808    1.290   .     S
O801   C885    1.297   1_455 S
O802   C824    1.297   .     S
C807   O861    1.291   .     A
C807   C818    1.445   .     S
C807   O921    1.290   .     S
C808   C817    1.444   .     S
C808   O862    1.291   .     A
C809   H849    1.076   .     S
C809   C838    1.417   .     A
C809   C811    1.386   .     A
C810   H850    1.076   .     S
C810   C837    1.417   .     A
C810   C812    1.386   .     A
C811   H841    1.084   .     S
C812   H842    1.084   .     S
C812   C278    1.390   1_556 S
C813   H851    1.084   .     S
C813   C818    1.399   .     A
C814   C817    1.399   .     A
C814   H852    1.084   .     S
C814   C1002   1.386   .     S
C815   Br867   1.921   .     S
C815   C999    1.386   .     S
C815   C879    1.406   .     S
C816   Br868   1.921   .     S
C818   C878    1.406   .     S
C819   N858    1.368   .     A
C819   C821    1.417   .     A
C819   H853    1.081   .     S
C820   C822    1.417   .     A
C820   H854    1.081   .     S
C820   N857    1.368   .     A
C821   N857    1.367   .     A
C821   H855    1.081   .     S
C822   N858    1.367   .     A
C822   H856    1.081   .     S
C823   O865    1.295   .     A
C823   C825    1.466   .     S
C823   O925    1.297   .     S
C824   O866    1.296   .     A
C824   C826    1.467   .     S
C825   C829    1.399   .     A
C825   C831    1.398   .     A
C826   C830    1.399   .     A
C826   C832    1.399   .     A
C827   C835    1.404   .     A
C827   H847    1.084   .     S
C827   C829    1.392   .     A
C828   C830    1.391   .     A
C828   C836    1.404   .     A
C829   H908    1.083   .     S
C831   H844    1.075   .     S
C831   C833    1.405   .     A
C832   H843    1.075   .     S
C832   C834    1.405   .     A
C833   C835    1.418   .     A
C833   C837    1.427   .     A
C834   C836    1.418   .     A
C834   C838    1.427   .     A
C835   C253    1.390   1_556 S
C837   C280    1.425   1_556 S
Cu839  N857    2.015   .     S
Cu839  O863    1.957   .     S
Cu839  O862    1.957   .     S
Cu839  O866    1.944   .     S
Cu839  O859    1.959   .     S
Cu840  N858    2.015   .     S
Cu840  O861    1.957   .     S
Cu840  O860    1.959   .     S
Cu840  O864    1.957   .     S
Cu840  O865    1.944   .     S
Cu840  Cu901   2.681   .     S
H845   C892    1.083   .     S
H848   C890    1.083   .     S
O860   C870    1.290   .     S
O864   C886    1.297   .     S
C869   O923    1.291   .     A
C869   C880    1.445   .     S
C869   O797    1.290   1_655 S
C870   C879    1.444   .     S
C870   O924    1.291   .     A
C871   H911    1.076   .     S
C871   C900    1.417   .     A
C871   C873    1.386   .     A
C872   H912    1.076   .     S
C872   C899    1.417   .     A
C872   C874    1.386   .     A
C873   H903    1.084   .     S
C874   H904    1.084   .     S
C874   C340    1.390   1_556 S
C875   H913    1.084   .     S
C875   C880    1.399   .     A
C876   C879    1.399   .     A
C876   H914    1.084   .     S
C876   C1064   1.386   .     S
C877   Br929   1.921   .     S
C877   C1061   1.386   .     S
C877   C755    1.406   1_655 S
C878   Br930   1.921   .     S
C880   C754    1.406   1_655 S
C881   N920    1.368   .     A
C881   C883    1.417   .     A
C881   H915    1.081   .     S
C882   C884    1.417   .     A
C882   H916    1.081   .     S
C882   N919    1.368   .     A
C883   N919    1.367   .     A
C883   H917    1.081   .     S
C884   N920    1.367   .     A
C884   H918    1.081   .     S
C885   O927    1.295   .     A
C885   C887    1.466   .     S
C885   O801    1.297   1_655 S
C886   O928    1.296   .     A
C886   C888    1.467   .     S
C887   C891    1.399   .     A
C887   C893    1.398   .     A
C888   C892    1.399   .     A
C888   C894    1.399   .     A
C889   C897    1.404   .     A
C889   H909    1.084   .     S
C889   C891    1.392   .     A
C890   C892    1.391   .     A
C890   C898    1.404   .     A
C891   H784    1.083   1_655 S
C893   H906    1.075   .     S
C893   C895    1.405   .     A
C894   H905    1.075   .     S
C894   C896    1.405   .     A
C895   C897    1.418   .     A
C895   C899    1.427   .     A
C896   C898    1.418   .     A
C896   C900    1.427   .     A
C897   C315    1.390   1_556 S
C899   C342    1.425   1_556 S
Cu901  N919    2.015   .     S
Cu901  O925    1.957   .     S
Cu901  O924    1.957   .     S
Cu901  O928    1.944   .     S
Cu901  O921    1.959   .     S
Cu902  N920    2.015   .     S
Cu902  O923    1.957   .     S
Cu902  O922    1.959   .     S
Cu902  O926    1.957   .     S
Cu902  O927    1.944   .     S
Cu902  Cu777   2.681   1_655 S
H907   C768    1.083   1_655 S
H910   C766    1.083   1_655 S
O922   C746    1.290   1_655 S
O926   C762    1.297   1_655 S
C931   O985    1.291   .     A
C931   C942    1.445   .     S
C931   O1045   1.290   .     S
C932   C941    1.444   .     S
C932   O986    1.291   .     A
C932   O1108   1.290   1_455 S
C933   H973    1.076   .     S
C933   C962    1.417   .     A
C933   C935    1.386   .     A
C934   H974    1.076   .     S
C934   C961    1.417   .     A
C934   C936    1.386   .     A
C935   H965    1.084   .     S
C936   H966    1.084   .     S
C936   C402    1.390   1_556 S
C937   H975    1.084   .     S
C937   C942    1.399   .     A
C938   C941    1.399   .     A
C938   H976    1.084   .     S
C938   C568    1.386   1_565 S
C939   Br991   1.921   .     S
C939   C565    1.386   1_565 S
C939   C1003   1.406   .     S
C940   Br992   1.921   .     S
C940   C1066   1.406   1_455 S
C941   C1063   1.406   1_455 S
C942   C1002   1.406   .     S
C943   N982    1.368   .     A
C943   C945    1.417   .     A
C943   H977    1.081   .     S
C944   C946    1.417   .     A
C944   H978    1.081   .     S
C944   N981    1.368   .     A
C945   N981    1.367   .     A
C945   H979    1.081   .     S
C946   N982    1.367   .     A
C946   H980    1.081   .     S
C947   O989    1.295   .     A
C947   C949    1.466   .     S
C947   O1049   1.297   .     S
C948   O990    1.296   .     A
C948   C950    1.467   .     S
C948   O1112   1.297   1_455 S
C949   C953    1.399   .     A
C949   C955    1.398   .     A
C950   C954    1.399   .     A
C950   C956    1.399   .     A
C951   C959    1.404   .     A
C951   H971    1.084   .     S
C951   C953    1.392   .     A
C952   C954    1.391   .     A
C952   C960    1.404   .     A
C952   H1096   1.083   1_455 S
C953   H1032   1.083   .     S
C954   H1093   1.083   1_455 S
C955   H968    1.075   .     S
C955   C957    1.405   .     A
C956   H967    1.075   .     S
C956   C958    1.405   .     A
C957   C959    1.418   .     A
C957   C961    1.427   .     A
C958   C960    1.418   .     A
C958   C962    1.427   .     A
C959   C377    1.390   1_556 S
C961   C404    1.425   1_556 S
Cu963  N981    2.015   .     S
Cu963  O987    1.957   .     S
Cu963  O986    1.957   .     S
Cu963  O990    1.944   .     S
Cu963  O983    1.959   .     S
Cu963  Cu1088  2.681   1_455 S
Cu964  N982    2.015   .     S
Cu964  O985    1.957   .     S
Cu964  O984    1.959   .     S
Cu964  O988    1.957   .     S
Cu964  O989    1.944   .     S
Cu964  Cu1025  2.681   .     S
H969   C1016   1.083   .     S
H970   C1077   1.083   1_455 S
H972   C1014   1.083   .     S
O983   C1055   1.290   1_455 S
O984   C994    1.290   .     S
O987   C1071   1.297   1_455 S
O988   C1010   1.297   .     S
C993   O1047   1.291   .     A
C993   C1004   1.445   .     S
C993   O1107   1.290   .     S
C994   C1003   1.444   .     S
C994   O1048   1.291   .     A
C995   H1035   1.076   .     S
C995   C1024   1.417   .     A
C995   C997    1.386   .     A
C996   H1036   1.076   .     S
C996   C1023   1.417   .     A
C996   C998    1.386   .     A
C997   H1027   1.084   .     S
C998   H1028   1.084   .     S
C998   C464    1.390   1_556 S
C999   H1037   1.084   .     S
C999   C1004   1.399   .     A
C1000  C1003   1.399   .     A
C1000  H1038   1.084   .     S
C1000  C630    1.386   1_565 S
C1001  Br1053  1.921   .     S
C1001  C627    1.386   1_565 S
C1001  C1065   1.406   .     S
C1002  Br1054  1.921   .     S
C1004  C1064   1.406   .     S
C1005  N1044   1.368   .     A
C1005  C1007   1.417   .     A
C1005  H1039   1.081   .     S
C1006  C1008   1.417   .     A
C1006  H1040   1.081   .     S
C1006  N1043   1.368   .     A
C1007  N1043   1.367   .     A
C1007  H1041   1.081   .     S
C1008  N1044   1.367   .     A
C1008  H1042   1.081   .     S
C1009  O1051   1.295   .     A
C1009  C1011   1.466   .     S
C1009  O1111   1.297   .     S
C1010  O1052   1.296   .     A
C1010  C1012   1.467   .     S
C1011  C1015   1.399   .     A
C1011  C1017   1.398   .     A
C1012  C1016   1.399   .     A
C1012  C1018   1.399   .     A
C1013  C1021   1.404   .     A
C1013  H1033   1.084   .     S
C1013  C1015   1.392   .     A
C1014  C1016   1.391   .     A
C1014  C1022   1.404   .     A
C1015  H1094   1.083   .     S
C1017  H1030   1.075   .     S
C1017  C1019   1.405   .     A
C1018  H1029   1.075   .     S
C1018  C1020   1.405   .     A
C1019  C1021   1.418   .     A
C1019  C1023   1.427   .     A
C1020  C1022   1.418   .     A
C1020  C1024   1.427   .     A
C1021  C439    1.390   1_556 S
C1023  C466    1.425   1_556 S
Cu1025 N1043   2.015   .     S
Cu1025 O1049   1.957   .     S
Cu1025 O1048   1.957   .     S
Cu1025 O1052   1.944   .     S
Cu1025 O1045   1.959   .     S
Cu1026 N1044   2.015   .     S
Cu1026 O1047   1.957   .     S
Cu1026 O1046   1.959   .     S
Cu1026 O1050   1.957   .     S
Cu1026 O1051   1.944   .     S
Cu1026 Cu1087  2.681   .     S
H1031  C1078   1.083   .     S
H1034  C1076   1.083   .     S
O1046  C1056   1.290   .     S
O1050  C1072   1.297   .     S
C1055  O1109   1.291   .     A
C1055  C1066   1.445   .     S
C1055  O983    1.290   1_655 S
C1056  C1065   1.444   .     S
C1056  O1110   1.291   .     A
C1057  H1097   1.076   .     S
C1057  C1086   1.417   .     A
C1057  C1059   1.386   .     A
C1058  H1098   1.076   .     S
C1058  C1085   1.417   .     A
C1058  C1060   1.386   .     A
C1059  H1089   1.084   .     S
C1060  H1090   1.084   .     S
C1060  C526    1.390   1_556 S
C1061  H1099   1.084   .     S
C1061  C1066   1.399   .     A
C1062  C1065   1.399   .     A
C1062  H1100   1.084   .     S
C1062  C692    1.386   1_565 S
C1063  Br1115  1.921   .     S
C1063  C689    1.386   1_565 S
C1063  C941    1.406   1_655 S
C1064  Br1116  1.921   .     S
C1066  C940    1.406   1_655 S
C1067  N1106   1.368   .     A
C1067  C1069   1.417   .     A
C1067  H1101   1.081   .     S
C1068  C1070   1.417   .     A
C1068  H1102   1.081   .     S
C1068  N1105   1.368   .     A
C1069  N1105   1.367   .     A
C1069  H1103   1.081   .     S
C1070  N1106   1.367   .     A
C1070  H1104   1.081   .     S
C1071  O1113   1.295   .     A
C1071  C1073   1.466   .     S
C1071  O987    1.297   1_655 S
C1072  O1114   1.296   .     A
C1072  C1074   1.467   .     S
C1073  C1077   1.399   .     A
C1073  C1079   1.398   .     A
C1074  C1078   1.399   .     A
C1074  C1080   1.399   .     A
C1075  C1083   1.404   .     A
C1075  H1095   1.084   .     S
C1075  C1077   1.392   .     A
C1076  C1078   1.391   .     A
C1076  C1084   1.404   .     A
C1077  H970    1.083   1_655 S
C1079  H1092   1.075   .     S
C1079  C1081   1.405   .     A
C1080  H1091   1.075   .     S
C1080  C1082   1.405   .     A
C1081  C1083   1.418   .     A
C1081  C1085   1.427   .     A
C1082  C1084   1.418   .     A
C1082  C1086   1.427   .     A
C1083  C501    1.390   1_556 S
C1085  C528    1.425   1_556 S
Cu1087 N1105   2.015   .     S
Cu1087 O1111   1.957   .     S
Cu1087 O1110   1.957   .     S
Cu1087 O1114   1.944   .     S
Cu1087 O1107   1.959   .     S
Cu1088 N1106   2.015   .     S
Cu1088 O1109   1.957   .     S
Cu1088 O1108   1.959   .     S
Cu1088 O1112   1.957   .     S
Cu1088 O1113   1.944   .     S
Cu1088 Cu963   2.681   1_655 S
H1093  C954    1.083   1_655 S
H1096  C952    1.083   1_655 S
O1108  C932    1.290   1_655 S
O1112  C948    1.297   1_655 S
