data_str_m1_o10_o16_pcu_sym.140
_audit_creation_date              2020-01-03
_audit_creation_method            'Materials Studio'
_symmetry_space_group_name_H-M    'P1'
_symmetry_Int_Tables_number       1
_symmetry_cell_setting            triclinic
loop_
_symmetry_equiv_pos_as_xyz
  x,y,z
_cell_length_a                    32.5486
_cell_length_b                    32.7550
_cell_length_c                    30.9427
_cell_angle_alpha                 96.4288
_cell_angle_beta                  74.1011
_cell_angle_gamma                 98.5110
loop_
_atom_site_label
_atom_site_type_symbol
_atom_site_fract_x
_atom_site_fract_y
_atom_site_fract_z
_atom_site_U_iso_or_equiv
_atom_site_adp_type
_atom_site_occupancy
C1     C     0.05270   0.15948   0.26057   0.00000  Uiso   1.00
C2     C     0.16822   0.15565   0.05864   0.00000  Uiso   1.00
C3     C     0.23286   0.12703   0.05594   0.00000  Uiso   1.00
C4     C     0.28093   0.17382   0.23969   0.00000  Uiso   1.00
C5     C     0.13804   0.18997   0.42116   0.00000  Uiso   1.00
C6     C     0.32712   0.17612   0.23442   0.00000  Uiso   1.00
C7     C     0.00754   0.15817   0.26387   0.00000  Uiso   1.00
C8     C     0.18039   0.32258   0.23708   0.00000  Uiso   1.00
C9     C     0.15123   0.01263   0.26447   0.00000  Uiso   1.00
C10    C     0.15608   0.05624   0.26029   0.00000  Uiso   1.00
C11    C     0.17654   0.27798   0.24024   0.00000  Uiso   1.00
C12    C     0.07937   0.18345   0.48889   0.00000  Uiso   1.00
C13    C     0.18555   0.14843   0.12924   0.00000  Uiso   1.00
C14    C     0.14872   0.18508   0.37110   0.00000  Uiso   1.00
C15    C     0.24649   0.12894   0.00926   0.00000  Uiso   1.00
C16    C     0.19480   0.14191   0.08051   0.00000  Uiso   1.00
C17    C     0.09573   0.19672   0.44577   0.00000  Uiso   1.00
C18    C     0.21684   0.00784   0.20343   0.00000  Uiso   1.00
C19    C     0.11343   0.33032   0.29837   0.00000  Uiso   1.00
C20    C     0.28064   0.15499   0.41503   0.00000  Uiso   1.00
C21    C     0.28673   0.11296   0.48711   0.00000  Uiso   1.00
C22    C     0.06688   0.21417   0.42678   0.00000  Uiso   1.00
C23    C     0.10471   0.16519   0.00897   0.00000  Uiso   1.00
C24    C     0.08164   0.14131   0.04680   0.00000  Uiso   1.00
C25    C     0.23308   0.20752   0.38815   0.00000  Uiso   1.00
C26    C     0.02361   0.19733   0.19738   0.00000  Uiso   1.00
C27    C     0.14998   0.16649   0.48899   0.00000  Uiso   1.00
C28    C     0.16676   0.17925   0.44443   0.00000  Uiso   1.00
C29    C     0.17895   0.15507   0.01139   0.00000  Uiso   1.00
C30    C     0.22116   0.14649   0.48656   0.00000  Uiso   1.00
C31    C     0.23720   0.15955   0.44211   0.00000  Uiso   1.00
C32    C     0.21170   0.18065   0.42426   0.00000  Uiso   1.00
H33    H     0.25302   0.11577   0.07361   0.00000  Uiso   1.00
H34    H     0.14107   0.17028   0.07936   0.00000  Uiso   1.00
H35    H     0.31853   0.14286   0.29198   0.00000  Uiso   1.00
H36    H     0.04554   0.18471   0.00577   0.00000  Uiso   1.00
N37    N     0.24585   0.02266   0.17666   0.00000  Uiso   1.00
N38    N     0.08321   0.31799   0.32547   0.00000  Uiso   1.00
N39    N     0.31508   0.15140   0.39288   0.00000  Uiso   1.00
N40    N     0.31896   0.09999   0.46984   0.00000  Uiso   1.00
N41    N     0.04382   0.22837   0.41174   0.00000  Uiso   1.00
N42    N     0.06301   0.12218   0.07696   0.00000  Uiso   1.00
N43    N     0.25021   0.22892   0.35951   0.00000  Uiso   1.00
N44    N     0.04740   0.21419   0.16783   0.00000  Uiso   1.00
O45    O     0.16667   0.16667   0.25000   0.00000  Uiso   1.00
O46    O     0.15451   0.12637   0.15458   0.00000  Uiso   1.00
O47    O     0.12940   0.20391   0.34968   0.00000  Uiso   1.00
O48    O     0.20824   0.17759   0.14606   0.00000  Uiso   1.00
O49    O     0.17451   0.15880   0.34968   0.00000  Uiso   1.00
O50    O     0.17930   0.08019   0.28213   0.00000  Uiso   1.00
O51    O     0.14632   0.26085   0.27013   0.00000  Uiso   1.00
O52    O     0.07412   0.13291   0.23413   0.00000  Uiso   1.00
O53    O     0.26693   0.19272   0.21360   0.00000  Uiso   1.00
O54    O     0.07071   0.18878   0.28213   0.00000  Uiso   1.00
O55    O     0.25491   0.15226   0.27013   0.00000  Uiso   1.00
O56    O     0.13760   0.06944   0.23413   0.00000  Uiso   1.00
O57    O     0.20345   0.25620   0.21360   0.00000  Uiso   1.00
Zn58   Zn    0.19338   0.13994   0.28734   0.00000  Uiso   1.00
Zn59   Zn    0.13379   0.12458   0.21875   0.00000  Uiso   1.00
Zn60   Zn    0.21056   0.19775   0.20657   0.00000  Uiso   1.00
Zn61   Zn    0.12893   0.20439   0.28733   0.00000  Uiso   1.00
C62    C     0.38603   0.15948   0.26057   0.00000  Uiso   1.00
C63    C     0.50155   0.15565   0.05864   0.00000  Uiso   1.00
C64    C     0.56620   0.12703   0.05594   0.00000  Uiso   1.00
C65    C     0.61426   0.17382   0.23969   0.00000  Uiso   1.00
C66    C     0.47137   0.18997   0.42116   0.00000  Uiso   1.00
C67    C     0.66046   0.17612   0.23442   0.00000  Uiso   1.00
C68    C     0.34088   0.15817   0.26387   0.00000  Uiso   1.00
C69    C     0.51372   0.32258   0.23708   0.00000  Uiso   1.00
C70    C     0.48456   0.01263   0.26447   0.00000  Uiso   1.00
C71    C     0.48941   0.05624   0.26029   0.00000  Uiso   1.00
C72    C     0.50988   0.27798   0.24024   0.00000  Uiso   1.00
C73    C     0.41270   0.18345   0.48889   0.00000  Uiso   1.00
C74    C     0.51889   0.14843   0.12924   0.00000  Uiso   1.00
C75    C     0.48206   0.18508   0.37110   0.00000  Uiso   1.00
C76    C     0.57983   0.12894   0.00926   0.00000  Uiso   1.00
C77    C     0.52813   0.14191   0.08051   0.00000  Uiso   1.00
C78    C     0.42907   0.19672   0.44577   0.00000  Uiso   1.00
C79    C     0.55017   0.00784   0.20343   0.00000  Uiso   1.00
C80    C     0.44676   0.33032   0.29837   0.00000  Uiso   1.00
C81    C     0.61397   0.15499   0.41503   0.00000  Uiso   1.00
C82    C     0.62006   0.11296   0.48711   0.00000  Uiso   1.00
C83    C     0.40021   0.21417   0.42678   0.00000  Uiso   1.00
C84    C     0.43804   0.16519   0.00897   0.00000  Uiso   1.00
C85    C     0.41498   0.14131   0.04680   0.00000  Uiso   1.00
C86    C     0.56641   0.20752   0.38815   0.00000  Uiso   1.00
C87    C     0.35694   0.19733   0.19738   0.00000  Uiso   1.00
C88    C     0.48331   0.16649   0.48899   0.00000  Uiso   1.00
C89    C     0.50009   0.17925   0.44443   0.00000  Uiso   1.00
C90    C     0.51229   0.15507   0.01139   0.00000  Uiso   1.00
C91    C     0.55450   0.14649   0.48656   0.00000  Uiso   1.00
C92    C     0.57054   0.15955   0.44211   0.00000  Uiso   1.00
C93    C     0.54503   0.18065   0.42426   0.00000  Uiso   1.00
H94    H     0.58635   0.11577   0.07361   0.00000  Uiso   1.00
H95    H     0.47441   0.17028   0.07936   0.00000  Uiso   1.00
H96    H     0.65186   0.14286   0.29198   0.00000  Uiso   1.00
H97    H     0.37888   0.18471   0.00577   0.00000  Uiso   1.00
N98    N     0.57919   0.02266   0.17666   0.00000  Uiso   1.00
N99    N     0.41654   0.31799   0.32547   0.00000  Uiso   1.00
N100   N     0.64841   0.15140   0.39288   0.00000  Uiso   1.00
N101   N     0.65229   0.09999   0.46984   0.00000  Uiso   1.00
N102   N     0.37715   0.22837   0.41174   0.00000  Uiso   1.00
N103   N     0.39634   0.12218   0.07696   0.00000  Uiso   1.00
N104   N     0.58354   0.22892   0.35951   0.00000  Uiso   1.00
N105   N     0.38074   0.21419   0.16783   0.00000  Uiso   1.00
O106   O     0.50000   0.16667   0.25000   0.00000  Uiso   1.00
O107   O     0.48784   0.12637   0.15458   0.00000  Uiso   1.00
O108   O     0.46274   0.20391   0.34968   0.00000  Uiso   1.00
O109   O     0.54157   0.17759   0.14606   0.00000  Uiso   1.00
O110   O     0.50785   0.15880   0.34968   0.00000  Uiso   1.00
O111   O     0.51264   0.08019   0.28213   0.00000  Uiso   1.00
O112   O     0.47965   0.26085   0.27013   0.00000  Uiso   1.00
O113   O     0.40745   0.13291   0.23413   0.00000  Uiso   1.00
O114   O     0.60026   0.19272   0.21360   0.00000  Uiso   1.00
O115   O     0.40405   0.18878   0.28213   0.00000  Uiso   1.00
O116   O     0.58824   0.15226   0.27013   0.00000  Uiso   1.00
O117   O     0.47093   0.06944   0.23413   0.00000  Uiso   1.00
O118   O     0.53678   0.25620   0.21360   0.00000  Uiso   1.00
Zn119  Zn    0.52672   0.13994   0.28734   0.00000  Uiso   1.00
Zn120  Zn    0.46713   0.12458   0.21875   0.00000  Uiso   1.00
Zn121  Zn    0.54389   0.19775   0.20657   0.00000  Uiso   1.00
Zn122  Zn    0.46226   0.20439   0.28733   0.00000  Uiso   1.00
C123   C     0.71937   0.15948   0.26057   0.00000  Uiso   1.00
C124   C     0.83489   0.15565   0.05864   0.00000  Uiso   1.00
C125   C     0.89953   0.12703   0.05594   0.00000  Uiso   1.00
C126   C     0.94760   0.17382   0.23969   0.00000  Uiso   1.00
C127   C     0.80470   0.18997   0.42116   0.00000  Uiso   1.00
C128   C     0.99379   0.17612   0.23442   0.00000  Uiso   1.00
C129   C     0.67421   0.15817   0.26387   0.00000  Uiso   1.00
C130   C     0.84705   0.32258   0.23708   0.00000  Uiso   1.00
C131   C     0.81790   0.01263   0.26447   0.00000  Uiso   1.00
C132   C     0.82275   0.05624   0.26029   0.00000  Uiso   1.00
C133   C     0.84321   0.27798   0.24024   0.00000  Uiso   1.00
C134   C     0.74604   0.18345   0.48889   0.00000  Uiso   1.00
C135   C     0.85222   0.14843   0.12924   0.00000  Uiso   1.00
C136   C     0.81539   0.18508   0.37110   0.00000  Uiso   1.00
C137   C     0.91316   0.12894   0.00926   0.00000  Uiso   1.00
C138   C     0.86146   0.14191   0.08051   0.00000  Uiso   1.00
C139   C     0.76240   0.19672   0.44577   0.00000  Uiso   1.00
C140   C     0.88351   0.00784   0.20343   0.00000  Uiso   1.00
C141   C     0.78010   0.33032   0.29837   0.00000  Uiso   1.00
C142   C     0.94730   0.15499   0.41503   0.00000  Uiso   1.00
C143   C     0.95340   0.11296   0.48711   0.00000  Uiso   1.00
C144   C     0.73355   0.21417   0.42678   0.00000  Uiso   1.00
C145   C     0.77137   0.16519   0.00897   0.00000  Uiso   1.00
C146   C     0.74831   0.14131   0.04680   0.00000  Uiso   1.00
C147   C     0.89974   0.20752   0.38815   0.00000  Uiso   1.00
C148   C     0.69028   0.19733   0.19738   0.00000  Uiso   1.00
C149   C     0.81665   0.16649   0.48899   0.00000  Uiso   1.00
C150   C     0.83343   0.17925   0.44443   0.00000  Uiso   1.00
C151   C     0.84562   0.15507   0.01139   0.00000  Uiso   1.00
C152   C     0.88783   0.14649   0.48656   0.00000  Uiso   1.00
C153   C     0.90387   0.15955   0.44211   0.00000  Uiso   1.00
C154   C     0.87837   0.18065   0.42426   0.00000  Uiso   1.00
H155   H     0.91968   0.11577   0.07361   0.00000  Uiso   1.00
H156   H     0.80774   0.17028   0.07936   0.00000  Uiso   1.00
H157   H     0.98520   0.14286   0.29198   0.00000  Uiso   1.00
H158   H     0.71221   0.18471   0.00577   0.00000  Uiso   1.00
N159   N     0.91252   0.02266   0.17666   0.00000  Uiso   1.00
N160   N     0.74987   0.31799   0.32547   0.00000  Uiso   1.00
N161   N     0.98174   0.15140   0.39288   0.00000  Uiso   1.00
N162   N     0.98563   0.09999   0.46984   0.00000  Uiso   1.00
N163   N     0.71049   0.22837   0.41174   0.00000  Uiso   1.00
N164   N     0.72968   0.12218   0.07696   0.00000  Uiso   1.00
N165   N     0.91687   0.22892   0.35951   0.00000  Uiso   1.00
N166   N     0.71407   0.21419   0.16783   0.00000  Uiso   1.00
O167   O     0.83333   0.16667   0.25000   0.00000  Uiso   1.00
O168   O     0.82118   0.12637   0.15458   0.00000  Uiso   1.00
O169   O     0.79607   0.20391   0.34968   0.00000  Uiso   1.00
O170   O     0.87491   0.17759   0.14606   0.00000  Uiso   1.00
O171   O     0.84118   0.15880   0.34968   0.00000  Uiso   1.00
O172   O     0.84597   0.08019   0.28213   0.00000  Uiso   1.00
O173   O     0.81298   0.26085   0.27013   0.00000  Uiso   1.00
O174   O     0.74078   0.13291   0.23413   0.00000  Uiso   1.00
O175   O     0.93360   0.19272   0.21360   0.00000  Uiso   1.00
O176   O     0.73738   0.18878   0.28213   0.00000  Uiso   1.00
O177   O     0.92158   0.15226   0.27013   0.00000  Uiso   1.00
O178   O     0.80426   0.06944   0.23413   0.00000  Uiso   1.00
O179   O     0.87012   0.25620   0.21360   0.00000  Uiso   1.00
Zn180  Zn    0.86005   0.13994   0.28734   0.00000  Uiso   1.00
Zn181  Zn    0.80046   0.12458   0.21875   0.00000  Uiso   1.00
Zn182  Zn    0.87723   0.19775   0.20657   0.00000  Uiso   1.00
Zn183  Zn    0.79560   0.20439   0.28733   0.00000  Uiso   1.00
C184   C     0.05270   0.49281   0.26057   0.00000  Uiso   1.00
C185   C     0.16822   0.48898   0.05864   0.00000  Uiso   1.00
C186   C     0.23286   0.46037   0.05594   0.00000  Uiso   1.00
C187   C     0.28093   0.50715   0.23969   0.00000  Uiso   1.00
C188   C     0.13804   0.52330   0.42116   0.00000  Uiso   1.00
C189   C     0.32712   0.50945   0.23442   0.00000  Uiso   1.00
C190   C     0.00754   0.49150   0.26387   0.00000  Uiso   1.00
C191   C     0.18039   0.65591   0.23708   0.00000  Uiso   1.00
C192   C     0.15123   0.34597   0.26447   0.00000  Uiso   1.00
C193   C     0.15608   0.38958   0.26029   0.00000  Uiso   1.00
C194   C     0.17654   0.61132   0.24024   0.00000  Uiso   1.00
C195   C     0.07937   0.51679   0.48889   0.00000  Uiso   1.00
C196   C     0.18555   0.48176   0.12924   0.00000  Uiso   1.00
C197   C     0.14872   0.51841   0.37110   0.00000  Uiso   1.00
C198   C     0.24649   0.46227   0.00926   0.00000  Uiso   1.00
C199   C     0.19480   0.47524   0.08051   0.00000  Uiso   1.00
C200   C     0.09573   0.53006   0.44577   0.00000  Uiso   1.00
C201   C     0.21684   0.34117   0.20343   0.00000  Uiso   1.00
C202   C     0.11343   0.66365   0.29837   0.00000  Uiso   1.00
C203   C     0.28064   0.48832   0.41503   0.00000  Uiso   1.00
C204   C     0.28673   0.44629   0.48711   0.00000  Uiso   1.00
C205   C     0.06688   0.54750   0.42678   0.00000  Uiso   1.00
C206   C     0.10471   0.49852   0.00897   0.00000  Uiso   1.00
C207   C     0.08164   0.47464   0.04680   0.00000  Uiso   1.00
C208   C     0.23308   0.54086   0.38815   0.00000  Uiso   1.00
C209   C     0.02361   0.53066   0.19738   0.00000  Uiso   1.00
C210   C     0.14998   0.49983   0.48899   0.00000  Uiso   1.00
C211   C     0.16676   0.51259   0.44443   0.00000  Uiso   1.00
C212   C     0.17895   0.48840   0.01139   0.00000  Uiso   1.00
C213   C     0.22116   0.47982   0.48656   0.00000  Uiso   1.00
C214   C     0.23720   0.49288   0.44211   0.00000  Uiso   1.00
C215   C     0.21170   0.51398   0.42426   0.00000  Uiso   1.00
H216   H     0.25302   0.44911   0.07361   0.00000  Uiso   1.00
H217   H     0.14107   0.50361   0.07936   0.00000  Uiso   1.00
H218   H     0.31853   0.47619   0.29198   0.00000  Uiso   1.00
H219   H     0.04554   0.51804   0.00577   0.00000  Uiso   1.00
N220   N     0.24585   0.35599   0.17666   0.00000  Uiso   1.00
N221   N     0.08321   0.65132   0.32547   0.00000  Uiso   1.00
N222   N     0.31508   0.48474   0.39288   0.00000  Uiso   1.00
N223   N     0.31896   0.43333   0.46984   0.00000  Uiso   1.00
N224   N     0.04382   0.56170   0.41174   0.00000  Uiso   1.00
N225   N     0.06301   0.45551   0.07696   0.00000  Uiso   1.00
N226   N     0.25021   0.56225   0.35951   0.00000  Uiso   1.00
N227   N     0.04740   0.54753   0.16783   0.00000  Uiso   1.00
O228   O     0.16667   0.50000   0.25000   0.00000  Uiso   1.00
O229   O     0.15451   0.45970   0.15458   0.00000  Uiso   1.00
O230   O     0.12940   0.53724   0.34968   0.00000  Uiso   1.00
O231   O     0.20824   0.51092   0.14606   0.00000  Uiso   1.00
O232   O     0.17451   0.49213   0.34968   0.00000  Uiso   1.00
O233   O     0.17930   0.41352   0.28213   0.00000  Uiso   1.00
O234   O     0.14632   0.59418   0.27013   0.00000  Uiso   1.00
O235   O     0.07412   0.46625   0.23413   0.00000  Uiso   1.00
O236   O     0.26693   0.52605   0.21360   0.00000  Uiso   1.00
O237   O     0.07071   0.52211   0.28213   0.00000  Uiso   1.00
O238   O     0.25491   0.48559   0.27013   0.00000  Uiso   1.00
O239   O     0.13760   0.40277   0.23413   0.00000  Uiso   1.00
O240   O     0.20345   0.58953   0.21360   0.00000  Uiso   1.00
Zn241  Zn    0.19338   0.47327   0.28734   0.00000  Uiso   1.00
Zn242  Zn    0.13379   0.45791   0.21875   0.00000  Uiso   1.00
Zn243  Zn    0.21056   0.53109   0.20657   0.00000  Uiso   1.00
Zn244  Zn    0.12893   0.53773   0.28733   0.00000  Uiso   1.00
C245   C     0.38603   0.49281   0.26057   0.00000  Uiso   1.00
C246   C     0.50155   0.48898   0.05864   0.00000  Uiso   1.00
C247   C     0.56620   0.46037   0.05594   0.00000  Uiso   1.00
C248   C     0.61426   0.50715   0.23969   0.00000  Uiso   1.00
C249   C     0.47137   0.52330   0.42116   0.00000  Uiso   1.00
C250   C     0.66046   0.50945   0.23442   0.00000  Uiso   1.00
C251   C     0.34088   0.49150   0.26387   0.00000  Uiso   1.00
C252   C     0.51372   0.65591   0.23708   0.00000  Uiso   1.00
C253   C     0.48456   0.34597   0.26447   0.00000  Uiso   1.00
C254   C     0.48941   0.38958   0.26029   0.00000  Uiso   1.00
C255   C     0.50988   0.61132   0.24024   0.00000  Uiso   1.00
C256   C     0.41270   0.51679   0.48889   0.00000  Uiso   1.00
C257   C     0.51889   0.48176   0.12924   0.00000  Uiso   1.00
C258   C     0.48206   0.51841   0.37110   0.00000  Uiso   1.00
C259   C     0.57983   0.46227   0.00926   0.00000  Uiso   1.00
C260   C     0.52813   0.47524   0.08051   0.00000  Uiso   1.00
C261   C     0.42907   0.53006   0.44577   0.00000  Uiso   1.00
C262   C     0.55017   0.34117   0.20343   0.00000  Uiso   1.00
C263   C     0.44676   0.66365   0.29837   0.00000  Uiso   1.00
C264   C     0.61397   0.48832   0.41503   0.00000  Uiso   1.00
C265   C     0.62006   0.44629   0.48711   0.00000  Uiso   1.00
C266   C     0.40021   0.54750   0.42678   0.00000  Uiso   1.00
C267   C     0.43804   0.49852   0.00897   0.00000  Uiso   1.00
C268   C     0.41498   0.47464   0.04680   0.00000  Uiso   1.00
C269   C     0.56641   0.54086   0.38815   0.00000  Uiso   1.00
C270   C     0.35694   0.53066   0.19738   0.00000  Uiso   1.00
C271   C     0.48331   0.49983   0.48899   0.00000  Uiso   1.00
C272   C     0.50009   0.51259   0.44443   0.00000  Uiso   1.00
C273   C     0.51229   0.48840   0.01139   0.00000  Uiso   1.00
C274   C     0.55450   0.47982   0.48656   0.00000  Uiso   1.00
C275   C     0.57054   0.49288   0.44211   0.00000  Uiso   1.00
C276   C     0.54503   0.51398   0.42426   0.00000  Uiso   1.00
H277   H     0.58635   0.44911   0.07361   0.00000  Uiso   1.00
H278   H     0.47441   0.50361   0.07936   0.00000  Uiso   1.00
H279   H     0.65186   0.47619   0.29198   0.00000  Uiso   1.00
H280   H     0.37888   0.51804   0.00577   0.00000  Uiso   1.00
N281   N     0.57919   0.35599   0.17666   0.00000  Uiso   1.00
N282   N     0.41654   0.65132   0.32547   0.00000  Uiso   1.00
N283   N     0.64841   0.48474   0.39288   0.00000  Uiso   1.00
N284   N     0.65229   0.43333   0.46984   0.00000  Uiso   1.00
N285   N     0.37715   0.56170   0.41174   0.00000  Uiso   1.00
N286   N     0.39634   0.45551   0.07696   0.00000  Uiso   1.00
N287   N     0.58354   0.56225   0.35951   0.00000  Uiso   1.00
N288   N     0.38074   0.54753   0.16783   0.00000  Uiso   1.00
O289   O     0.50000   0.50000   0.25000   0.00000  Uiso   1.00
O290   O     0.48784   0.45970   0.15458   0.00000  Uiso   1.00
O291   O     0.46274   0.53724   0.34968   0.00000  Uiso   1.00
O292   O     0.54157   0.51092   0.14606   0.00000  Uiso   1.00
O293   O     0.50785   0.49213   0.34968   0.00000  Uiso   1.00
O294   O     0.51264   0.41352   0.28213   0.00000  Uiso   1.00
O295   O     0.47965   0.59418   0.27013   0.00000  Uiso   1.00
O296   O     0.40745   0.46625   0.23413   0.00000  Uiso   1.00
O297   O     0.60026   0.52605   0.21360   0.00000  Uiso   1.00
O298   O     0.40405   0.52211   0.28213   0.00000  Uiso   1.00
O299   O     0.58824   0.48559   0.27013   0.00000  Uiso   1.00
O300   O     0.47093   0.40277   0.23413   0.00000  Uiso   1.00
O301   O     0.53678   0.58953   0.21360   0.00000  Uiso   1.00
Zn302  Zn    0.52672   0.47327   0.28734   0.00000  Uiso   1.00
Zn303  Zn    0.46713   0.45791   0.21875   0.00000  Uiso   1.00
Zn304  Zn    0.54389   0.53109   0.20657   0.00000  Uiso   1.00
Zn305  Zn    0.46226   0.53773   0.28733   0.00000  Uiso   1.00
C306   C     0.71937   0.49281   0.26057   0.00000  Uiso   1.00
C307   C     0.83489   0.48898   0.05864   0.00000  Uiso   1.00
C308   C     0.89953   0.46037   0.05594   0.00000  Uiso   1.00
C309   C     0.94760   0.50715   0.23969   0.00000  Uiso   1.00
C310   C     0.80470   0.52330   0.42116   0.00000  Uiso   1.00
C311   C     0.99379   0.50945   0.23442   0.00000  Uiso   1.00
C312   C     0.67421   0.49150   0.26387   0.00000  Uiso   1.00
C313   C     0.84705   0.65591   0.23708   0.00000  Uiso   1.00
C314   C     0.81790   0.34597   0.26447   0.00000  Uiso   1.00
C315   C     0.82275   0.38958   0.26029   0.00000  Uiso   1.00
C316   C     0.84321   0.61132   0.24024   0.00000  Uiso   1.00
C317   C     0.74604   0.51679   0.48889   0.00000  Uiso   1.00
C318   C     0.85222   0.48176   0.12924   0.00000  Uiso   1.00
C319   C     0.81539   0.51841   0.37110   0.00000  Uiso   1.00
C320   C     0.91316   0.46227   0.00926   0.00000  Uiso   1.00
C321   C     0.86146   0.47524   0.08051   0.00000  Uiso   1.00
C322   C     0.76240   0.53006   0.44577   0.00000  Uiso   1.00
C323   C     0.88351   0.34117   0.20343   0.00000  Uiso   1.00
C324   C     0.78010   0.66365   0.29837   0.00000  Uiso   1.00
C325   C     0.94730   0.48832   0.41503   0.00000  Uiso   1.00
C326   C     0.95340   0.44629   0.48711   0.00000  Uiso   1.00
C327   C     0.73355   0.54750   0.42678   0.00000  Uiso   1.00
C328   C     0.77137   0.49852   0.00897   0.00000  Uiso   1.00
C329   C     0.74831   0.47464   0.04680   0.00000  Uiso   1.00
C330   C     0.89974   0.54086   0.38815   0.00000  Uiso   1.00
C331   C     0.69028   0.53066   0.19738   0.00000  Uiso   1.00
C332   C     0.81665   0.49983   0.48899   0.00000  Uiso   1.00
C333   C     0.83343   0.51259   0.44443   0.00000  Uiso   1.00
C334   C     0.84562   0.48840   0.01139   0.00000  Uiso   1.00
C335   C     0.88783   0.47982   0.48656   0.00000  Uiso   1.00
C336   C     0.90387   0.49288   0.44211   0.00000  Uiso   1.00
C337   C     0.87837   0.51398   0.42426   0.00000  Uiso   1.00
H338   H     0.91968   0.44911   0.07361   0.00000  Uiso   1.00
H339   H     0.80774   0.50361   0.07936   0.00000  Uiso   1.00
H340   H     0.98520   0.47619   0.29198   0.00000  Uiso   1.00
H341   H     0.71221   0.51804   0.00577   0.00000  Uiso   1.00
N342   N     0.91252   0.35599   0.17666   0.00000  Uiso   1.00
N343   N     0.74987   0.65132   0.32547   0.00000  Uiso   1.00
N344   N     0.98174   0.48474   0.39288   0.00000  Uiso   1.00
N345   N     0.98563   0.43333   0.46984   0.00000  Uiso   1.00
N346   N     0.71049   0.56170   0.41174   0.00000  Uiso   1.00
N347   N     0.72968   0.45551   0.07696   0.00000  Uiso   1.00
N348   N     0.91687   0.56225   0.35951   0.00000  Uiso   1.00
N349   N     0.71407   0.54753   0.16783   0.00000  Uiso   1.00
O350   O     0.83333   0.50000   0.25000   0.00000  Uiso   1.00
O351   O     0.82118   0.45970   0.15458   0.00000  Uiso   1.00
O352   O     0.79607   0.53724   0.34968   0.00000  Uiso   1.00
O353   O     0.87491   0.51092   0.14606   0.00000  Uiso   1.00
O354   O     0.84118   0.49213   0.34968   0.00000  Uiso   1.00
O355   O     0.84597   0.41352   0.28213   0.00000  Uiso   1.00
O356   O     0.81298   0.59418   0.27013   0.00000  Uiso   1.00
O357   O     0.74078   0.46625   0.23413   0.00000  Uiso   1.00
O358   O     0.93360   0.52605   0.21360   0.00000  Uiso   1.00
O359   O     0.73738   0.52211   0.28213   0.00000  Uiso   1.00
O360   O     0.92158   0.48559   0.27013   0.00000  Uiso   1.00
O361   O     0.80426   0.40277   0.23413   0.00000  Uiso   1.00
O362   O     0.87012   0.58953   0.21360   0.00000  Uiso   1.00
Zn363  Zn    0.86005   0.47327   0.28734   0.00000  Uiso   1.00
Zn364  Zn    0.80046   0.45791   0.21875   0.00000  Uiso   1.00
Zn365  Zn    0.87723   0.53109   0.20657   0.00000  Uiso   1.00
Zn366  Zn    0.79560   0.53773   0.28733   0.00000  Uiso   1.00
C367   C     0.05270   0.82614   0.26057   0.00000  Uiso   1.00
C368   C     0.16822   0.82232   0.05864   0.00000  Uiso   1.00
C369   C     0.23286   0.79370   0.05594   0.00000  Uiso   1.00
C370   C     0.28093   0.84049   0.23969   0.00000  Uiso   1.00
C371   C     0.13804   0.85663   0.42116   0.00000  Uiso   1.00
C372   C     0.32712   0.84278   0.23442   0.00000  Uiso   1.00
C373   C     0.00754   0.82483   0.26387   0.00000  Uiso   1.00
C374   C     0.18039   0.98925   0.23708   0.00000  Uiso   1.00
C375   C     0.15123   0.67930   0.26447   0.00000  Uiso   1.00
C376   C     0.15608   0.72291   0.26029   0.00000  Uiso   1.00
C377   C     0.17654   0.94465   0.24024   0.00000  Uiso   1.00
C378   C     0.07937   0.85012   0.48889   0.00000  Uiso   1.00
C379   C     0.18555   0.81510   0.12924   0.00000  Uiso   1.00
C380   C     0.14872   0.85174   0.37110   0.00000  Uiso   1.00
C381   C     0.24649   0.79560   0.00926   0.00000  Uiso   1.00
C382   C     0.19480   0.80857   0.08051   0.00000  Uiso   1.00
C383   C     0.09573   0.86339   0.44577   0.00000  Uiso   1.00
C384   C     0.21684   0.67450   0.20343   0.00000  Uiso   1.00
C385   C     0.11343   0.99699   0.29837   0.00000  Uiso   1.00
C386   C     0.28064   0.82166   0.41503   0.00000  Uiso   1.00
C387   C     0.28673   0.77963   0.48711   0.00000  Uiso   1.00
C388   C     0.06688   0.88083   0.42678   0.00000  Uiso   1.00
C389   C     0.10471   0.83185   0.00897   0.00000  Uiso   1.00
C390   C     0.08164   0.80797   0.04680   0.00000  Uiso   1.00
C391   C     0.23308   0.87419   0.38815   0.00000  Uiso   1.00
C392   C     0.02361   0.86399   0.19738   0.00000  Uiso   1.00
C393   C     0.14998   0.83316   0.48899   0.00000  Uiso   1.00
C394   C     0.16676   0.84592   0.44443   0.00000  Uiso   1.00
C395   C     0.17895   0.82173   0.01139   0.00000  Uiso   1.00
C396   C     0.22116   0.81316   0.48656   0.00000  Uiso   1.00
C397   C     0.23720   0.82622   0.44211   0.00000  Uiso   1.00
C398   C     0.21170   0.84731   0.42426   0.00000  Uiso   1.00
H399   H     0.25302   0.78244   0.07361   0.00000  Uiso   1.00
H400   H     0.14107   0.83694   0.07936   0.00000  Uiso   1.00
H401   H     0.31853   0.80953   0.29198   0.00000  Uiso   1.00
H402   H     0.04554   0.85137   0.00577   0.00000  Uiso   1.00
N403   N     0.24585   0.68932   0.17666   0.00000  Uiso   1.00
N404   N     0.08321   0.98466   0.32547   0.00000  Uiso   1.00
N405   N     0.31508   0.81807   0.39288   0.00000  Uiso   1.00
N406   N     0.31896   0.76666   0.46984   0.00000  Uiso   1.00
N407   N     0.04382   0.89503   0.41174   0.00000  Uiso   1.00
N408   N     0.06301   0.78884   0.07696   0.00000  Uiso   1.00
N409   N     0.25021   0.89558   0.35951   0.00000  Uiso   1.00
N410   N     0.04740   0.88086   0.16783   0.00000  Uiso   1.00
O411   O     0.16667   0.83333   0.25000   0.00000  Uiso   1.00
O412   O     0.15451   0.79304   0.15458   0.00000  Uiso   1.00
O413   O     0.12940   0.87058   0.34968   0.00000  Uiso   1.00
O414   O     0.20824   0.84425   0.14606   0.00000  Uiso   1.00
O415   O     0.17451   0.82546   0.34968   0.00000  Uiso   1.00
O416   O     0.17930   0.74686   0.28213   0.00000  Uiso   1.00
O417   O     0.14632   0.92751   0.27013   0.00000  Uiso   1.00
O418   O     0.07412   0.79958   0.23413   0.00000  Uiso   1.00
O419   O     0.26693   0.85939   0.21360   0.00000  Uiso   1.00
O420   O     0.07071   0.85544   0.28213   0.00000  Uiso   1.00
O421   O     0.25491   0.81892   0.27013   0.00000  Uiso   1.00
O422   O     0.13760   0.73610   0.23413   0.00000  Uiso   1.00
O423   O     0.20345   0.92286   0.21360   0.00000  Uiso   1.00
Zn424  Zn    0.19338   0.80661   0.28734   0.00000  Uiso   1.00
Zn425  Zn    0.13379   0.79124   0.21875   0.00000  Uiso   1.00
Zn426  Zn    0.21056   0.86442   0.20657   0.00000  Uiso   1.00
Zn427  Zn    0.12893   0.87106   0.28733   0.00000  Uiso   1.00
C428   C     0.38603   0.82614   0.26057   0.00000  Uiso   1.00
C429   C     0.50155   0.82232   0.05864   0.00000  Uiso   1.00
C430   C     0.56620   0.79370   0.05594   0.00000  Uiso   1.00
C431   C     0.61426   0.84049   0.23969   0.00000  Uiso   1.00
C432   C     0.47137   0.85663   0.42116   0.00000  Uiso   1.00
C433   C     0.66046   0.84278   0.23442   0.00000  Uiso   1.00
C434   C     0.34088   0.82483   0.26387   0.00000  Uiso   1.00
C435   C     0.51372   0.98925   0.23708   0.00000  Uiso   1.00
C436   C     0.48456   0.67930   0.26447   0.00000  Uiso   1.00
C437   C     0.48941   0.72291   0.26029   0.00000  Uiso   1.00
C438   C     0.50988   0.94465   0.24024   0.00000  Uiso   1.00
C439   C     0.41270   0.85012   0.48889   0.00000  Uiso   1.00
C440   C     0.51889   0.81510   0.12924   0.00000  Uiso   1.00
C441   C     0.48206   0.85174   0.37110   0.00000  Uiso   1.00
C442   C     0.57983   0.79560   0.00926   0.00000  Uiso   1.00
C443   C     0.52813   0.80857   0.08051   0.00000  Uiso   1.00
C444   C     0.42907   0.86339   0.44577   0.00000  Uiso   1.00
C445   C     0.55017   0.67450   0.20343   0.00000  Uiso   1.00
C446   C     0.44676   0.99699   0.29837   0.00000  Uiso   1.00
C447   C     0.61397   0.82166   0.41503   0.00000  Uiso   1.00
C448   C     0.62006   0.77963   0.48711   0.00000  Uiso   1.00
C449   C     0.40021   0.88083   0.42678   0.00000  Uiso   1.00
C450   C     0.43804   0.83185   0.00897   0.00000  Uiso   1.00
C451   C     0.41498   0.80797   0.04680   0.00000  Uiso   1.00
C452   C     0.56641   0.87419   0.38815   0.00000  Uiso   1.00
C453   C     0.35694   0.86399   0.19738   0.00000  Uiso   1.00
C454   C     0.48331   0.83316   0.48899   0.00000  Uiso   1.00
C455   C     0.50009   0.84592   0.44443   0.00000  Uiso   1.00
C456   C     0.51229   0.82173   0.01139   0.00000  Uiso   1.00
C457   C     0.55450   0.81316   0.48656   0.00000  Uiso   1.00
C458   C     0.57054   0.82622   0.44211   0.00000  Uiso   1.00
C459   C     0.54503   0.84731   0.42426   0.00000  Uiso   1.00
H460   H     0.58635   0.78244   0.07361   0.00000  Uiso   1.00
H461   H     0.47441   0.83694   0.07936   0.00000  Uiso   1.00
H462   H     0.65186   0.80953   0.29198   0.00000  Uiso   1.00
H463   H     0.37888   0.85137   0.00577   0.00000  Uiso   1.00
N464   N     0.57919   0.68932   0.17666   0.00000  Uiso   1.00
N465   N     0.41654   0.98466   0.32547   0.00000  Uiso   1.00
N466   N     0.64841   0.81807   0.39288   0.00000  Uiso   1.00
N467   N     0.65229   0.76666   0.46984   0.00000  Uiso   1.00
N468   N     0.37715   0.89503   0.41174   0.00000  Uiso   1.00
N469   N     0.39634   0.78884   0.07696   0.00000  Uiso   1.00
N470   N     0.58354   0.89558   0.35951   0.00000  Uiso   1.00
N471   N     0.38074   0.88086   0.16783   0.00000  Uiso   1.00
O472   O     0.50000   0.83333   0.25000   0.00000  Uiso   1.00
O473   O     0.48784   0.79304   0.15458   0.00000  Uiso   1.00
O474   O     0.46274   0.87058   0.34968   0.00000  Uiso   1.00
O475   O     0.54157   0.84425   0.14606   0.00000  Uiso   1.00
O476   O     0.50785   0.82546   0.34968   0.00000  Uiso   1.00
O477   O     0.51264   0.74686   0.28213   0.00000  Uiso   1.00
O478   O     0.47965   0.92751   0.27013   0.00000  Uiso   1.00
O479   O     0.40745   0.79958   0.23413   0.00000  Uiso   1.00
O480   O     0.60026   0.85939   0.21360   0.00000  Uiso   1.00
O481   O     0.40405   0.85544   0.28213   0.00000  Uiso   1.00
O482   O     0.58824   0.81892   0.27013   0.00000  Uiso   1.00
O483   O     0.47093   0.73610   0.23413   0.00000  Uiso   1.00
O484   O     0.53678   0.92286   0.21360   0.00000  Uiso   1.00
Zn485  Zn    0.52672   0.80661   0.28734   0.00000  Uiso   1.00
Zn486  Zn    0.46713   0.79124   0.21875   0.00000  Uiso   1.00
Zn487  Zn    0.54389   0.86442   0.20657   0.00000  Uiso   1.00
Zn488  Zn    0.46226   0.87106   0.28733   0.00000  Uiso   1.00
C489   C     0.71937   0.82614   0.26057   0.00000  Uiso   1.00
C490   C     0.83489   0.82232   0.05864   0.00000  Uiso   1.00
C491   C     0.89953   0.79370   0.05594   0.00000  Uiso   1.00
C492   C     0.94760   0.84049   0.23969   0.00000  Uiso   1.00
C493   C     0.80470   0.85663   0.42116   0.00000  Uiso   1.00
C494   C     0.99379   0.84278   0.23442   0.00000  Uiso   1.00
C495   C     0.67421   0.82483   0.26387   0.00000  Uiso   1.00
C496   C     0.84705   0.98925   0.23708   0.00000  Uiso   1.00
C497   C     0.81790   0.67930   0.26447   0.00000  Uiso   1.00
C498   C     0.82275   0.72291   0.26029   0.00000  Uiso   1.00
C499   C     0.84321   0.94465   0.24024   0.00000  Uiso   1.00
C500   C     0.74604   0.85012   0.48889   0.00000  Uiso   1.00
C501   C     0.85222   0.81510   0.12924   0.00000  Uiso   1.00
C502   C     0.81539   0.85174   0.37110   0.00000  Uiso   1.00
C503   C     0.91316   0.79560   0.00926   0.00000  Uiso   1.00
C504   C     0.86146   0.80857   0.08051   0.00000  Uiso   1.00
C505   C     0.76240   0.86339   0.44577   0.00000  Uiso   1.00
C506   C     0.88351   0.67450   0.20343   0.00000  Uiso   1.00
C507   C     0.78010   0.99699   0.29837   0.00000  Uiso   1.00
C508   C     0.94730   0.82166   0.41503   0.00000  Uiso   1.00
C509   C     0.95340   0.77963   0.48711   0.00000  Uiso   1.00
C510   C     0.73355   0.88083   0.42678   0.00000  Uiso   1.00
C511   C     0.77137   0.83185   0.00897   0.00000  Uiso   1.00
C512   C     0.74831   0.80797   0.04680   0.00000  Uiso   1.00
C513   C     0.89974   0.87419   0.38815   0.00000  Uiso   1.00
C514   C     0.69028   0.86399   0.19738   0.00000  Uiso   1.00
C515   C     0.81665   0.83316   0.48899   0.00000  Uiso   1.00
C516   C     0.83343   0.84592   0.44443   0.00000  Uiso   1.00
C517   C     0.84562   0.82173   0.01139   0.00000  Uiso   1.00
C518   C     0.88783   0.81316   0.48656   0.00000  Uiso   1.00
C519   C     0.90387   0.82622   0.44211   0.00000  Uiso   1.00
C520   C     0.87837   0.84731   0.42426   0.00000  Uiso   1.00
H521   H     0.91968   0.78244   0.07361   0.00000  Uiso   1.00
H522   H     0.80774   0.83694   0.07936   0.00000  Uiso   1.00
H523   H     0.98520   0.80953   0.29198   0.00000  Uiso   1.00
H524   H     0.71221   0.85137   0.00577   0.00000  Uiso   1.00
N525   N     0.91252   0.68932   0.17666   0.00000  Uiso   1.00
N526   N     0.74987   0.98466   0.32547   0.00000  Uiso   1.00
N527   N     0.98174   0.81807   0.39288   0.00000  Uiso   1.00
N528   N     0.98563   0.76666   0.46984   0.00000  Uiso   1.00
N529   N     0.71049   0.89503   0.41174   0.00000  Uiso   1.00
N530   N     0.72968   0.78884   0.07696   0.00000  Uiso   1.00
N531   N     0.91687   0.89558   0.35951   0.00000  Uiso   1.00
N532   N     0.71407   0.88086   0.16783   0.00000  Uiso   1.00
O533   O     0.83333   0.83333   0.25000   0.00000  Uiso   1.00
O534   O     0.82118   0.79304   0.15458   0.00000  Uiso   1.00
O535   O     0.79607   0.87058   0.34968   0.00000  Uiso   1.00
O536   O     0.87491   0.84425   0.14606   0.00000  Uiso   1.00
O537   O     0.84118   0.82546   0.34968   0.00000  Uiso   1.00
O538   O     0.84597   0.74686   0.28213   0.00000  Uiso   1.00
O539   O     0.81298   0.92751   0.27013   0.00000  Uiso   1.00
O540   O     0.74078   0.79958   0.23413   0.00000  Uiso   1.00
O541   O     0.93360   0.85939   0.21360   0.00000  Uiso   1.00
O542   O     0.73738   0.85544   0.28213   0.00000  Uiso   1.00
O543   O     0.92158   0.81892   0.27013   0.00000  Uiso   1.00
O544   O     0.80426   0.73610   0.23413   0.00000  Uiso   1.00
O545   O     0.87012   0.92286   0.21360   0.00000  Uiso   1.00
Zn546  Zn    0.86005   0.80661   0.28734   0.00000  Uiso   1.00
Zn547  Zn    0.80046   0.79124   0.21875   0.00000  Uiso   1.00
Zn548  Zn    0.87723   0.86442   0.20657   0.00000  Uiso   1.00
Zn549  Zn    0.79560   0.87106   0.28733   0.00000  Uiso   1.00
C550   C     0.05270   0.15948   0.76057   0.00000  Uiso   1.00
C551   C     0.16822   0.15565   0.55864   0.00000  Uiso   1.00
C552   C     0.23286   0.12703   0.55594   0.00000  Uiso   1.00
C553   C     0.28093   0.17382   0.73969   0.00000  Uiso   1.00
C554   C     0.13804   0.18997   0.92116   0.00000  Uiso   1.00
C555   C     0.32712   0.17612   0.73442   0.00000  Uiso   1.00
C556   C     0.00754   0.15817   0.76387   0.00000  Uiso   1.00
C557   C     0.18039   0.32258   0.73708   0.00000  Uiso   1.00
C558   C     0.15123   0.01263   0.76447   0.00000  Uiso   1.00
C559   C     0.15608   0.05624   0.76029   0.00000  Uiso   1.00
C560   C     0.17654   0.27798   0.74024   0.00000  Uiso   1.00
C561   C     0.07937   0.18345   0.98889   0.00000  Uiso   1.00
C562   C     0.18555   0.14843   0.62924   0.00000  Uiso   1.00
C563   C     0.14872   0.18508   0.87110   0.00000  Uiso   1.00
C564   C     0.24649   0.12894   0.50926   0.00000  Uiso   1.00
C565   C     0.19480   0.14191   0.58051   0.00000  Uiso   1.00
C566   C     0.09573   0.19672   0.94577   0.00000  Uiso   1.00
C567   C     0.21684   0.00784   0.70343   0.00000  Uiso   1.00
C568   C     0.11343   0.33032   0.79837   0.00000  Uiso   1.00
C569   C     0.28064   0.15499   0.91503   0.00000  Uiso   1.00
C570   C     0.28673   0.11296   0.98711   0.00000  Uiso   1.00
C571   C     0.06688   0.21417   0.92678   0.00000  Uiso   1.00
C572   C     0.10471   0.16519   0.50897   0.00000  Uiso   1.00
C573   C     0.08164   0.14131   0.54680   0.00000  Uiso   1.00
C574   C     0.23308   0.20752   0.88815   0.00000  Uiso   1.00
C575   C     0.02361   0.19733   0.69738   0.00000  Uiso   1.00
C576   C     0.14998   0.16649   0.98899   0.00000  Uiso   1.00
C577   C     0.16676   0.17925   0.94443   0.00000  Uiso   1.00
C578   C     0.17895   0.15507   0.51139   0.00000  Uiso   1.00
C579   C     0.22116   0.14649   0.98656   0.00000  Uiso   1.00
C580   C     0.23720   0.15955   0.94211   0.00000  Uiso   1.00
C581   C     0.21170   0.18065   0.92426   0.00000  Uiso   1.00
H582   H     0.25302   0.11577   0.57361   0.00000  Uiso   1.00
H583   H     0.14107   0.17028   0.57936   0.00000  Uiso   1.00
H584   H     0.31853   0.14286   0.79198   0.00000  Uiso   1.00
H585   H     0.04554   0.18471   0.50577   0.00000  Uiso   1.00
N586   N     0.24585   0.02266   0.67666   0.00000  Uiso   1.00
N587   N     0.08321   0.31799   0.82547   0.00000  Uiso   1.00
N588   N     0.31508   0.15140   0.89288   0.00000  Uiso   1.00
N589   N     0.31896   0.09999   0.96984   0.00000  Uiso   1.00
N590   N     0.04382   0.22837   0.91174   0.00000  Uiso   1.00
N591   N     0.06301   0.12218   0.57696   0.00000  Uiso   1.00
N592   N     0.25021   0.22892   0.85951   0.00000  Uiso   1.00
N593   N     0.04740   0.21419   0.66783   0.00000  Uiso   1.00
O594   O     0.16667   0.16667   0.75000   0.00000  Uiso   1.00
O595   O     0.15451   0.12637   0.65458   0.00000  Uiso   1.00
O596   O     0.12940   0.20391   0.84968   0.00000  Uiso   1.00
O597   O     0.20824   0.17759   0.64606   0.00000  Uiso   1.00
O598   O     0.17451   0.15880   0.84968   0.00000  Uiso   1.00
O599   O     0.17930   0.08019   0.78213   0.00000  Uiso   1.00
O600   O     0.14632   0.26085   0.77013   0.00000  Uiso   1.00
O601   O     0.07412   0.13291   0.73413   0.00000  Uiso   1.00
O602   O     0.26693   0.19272   0.71360   0.00000  Uiso   1.00
O603   O     0.07071   0.18878   0.78213   0.00000  Uiso   1.00
O604   O     0.25491   0.15226   0.77013   0.00000  Uiso   1.00
O605   O     0.13760   0.06944   0.73413   0.00000  Uiso   1.00
O606   O     0.20345   0.25620   0.71360   0.00000  Uiso   1.00
Zn607  Zn    0.19338   0.13994   0.78734   0.00000  Uiso   1.00
Zn608  Zn    0.13379   0.12458   0.71875   0.00000  Uiso   1.00
Zn609  Zn    0.21056   0.19775   0.70657   0.00000  Uiso   1.00
Zn610  Zn    0.12893   0.20439   0.78733   0.00000  Uiso   1.00
C611   C     0.38603   0.15948   0.76057   0.00000  Uiso   1.00
C612   C     0.50155   0.15565   0.55864   0.00000  Uiso   1.00
C613   C     0.56620   0.12703   0.55594   0.00000  Uiso   1.00
C614   C     0.61426   0.17382   0.73969   0.00000  Uiso   1.00
C615   C     0.47137   0.18997   0.92116   0.00000  Uiso   1.00
C616   C     0.66046   0.17612   0.73442   0.00000  Uiso   1.00
C617   C     0.34088   0.15817   0.76387   0.00000  Uiso   1.00
C618   C     0.51372   0.32258   0.73708   0.00000  Uiso   1.00
C619   C     0.48456   0.01263   0.76447   0.00000  Uiso   1.00
C620   C     0.48941   0.05624   0.76029   0.00000  Uiso   1.00
C621   C     0.50988   0.27798   0.74024   0.00000  Uiso   1.00
C622   C     0.41270   0.18345   0.98889   0.00000  Uiso   1.00
C623   C     0.51889   0.14843   0.62924   0.00000  Uiso   1.00
C624   C     0.48206   0.18508   0.87110   0.00000  Uiso   1.00
C625   C     0.57983   0.12894   0.50926   0.00000  Uiso   1.00
C626   C     0.52813   0.14191   0.58051   0.00000  Uiso   1.00
C627   C     0.42907   0.19672   0.94577   0.00000  Uiso   1.00
C628   C     0.55017   0.00784   0.70343   0.00000  Uiso   1.00
C629   C     0.44676   0.33032   0.79837   0.00000  Uiso   1.00
C630   C     0.61397   0.15499   0.91503   0.00000  Uiso   1.00
C631   C     0.62006   0.11296   0.98711   0.00000  Uiso   1.00
C632   C     0.40021   0.21417   0.92678   0.00000  Uiso   1.00
C633   C     0.43804   0.16519   0.50897   0.00000  Uiso   1.00
C634   C     0.41498   0.14131   0.54680   0.00000  Uiso   1.00
C635   C     0.56641   0.20752   0.88815   0.00000  Uiso   1.00
C636   C     0.35694   0.19733   0.69738   0.00000  Uiso   1.00
C637   C     0.48331   0.16649   0.98899   0.00000  Uiso   1.00
C638   C     0.50009   0.17925   0.94443   0.00000  Uiso   1.00
C639   C     0.51229   0.15507   0.51139   0.00000  Uiso   1.00
C640   C     0.55450   0.14649   0.98656   0.00000  Uiso   1.00
C641   C     0.57054   0.15955   0.94211   0.00000  Uiso   1.00
C642   C     0.54503   0.18065   0.92426   0.00000  Uiso   1.00
H643   H     0.58635   0.11577   0.57361   0.00000  Uiso   1.00
H644   H     0.47441   0.17028   0.57936   0.00000  Uiso   1.00
H645   H     0.65186   0.14286   0.79198   0.00000  Uiso   1.00
H646   H     0.37888   0.18471   0.50577   0.00000  Uiso   1.00
N647   N     0.57919   0.02266   0.67666   0.00000  Uiso   1.00
N648   N     0.41654   0.31799   0.82547   0.00000  Uiso   1.00
N649   N     0.64841   0.15140   0.89288   0.00000  Uiso   1.00
N650   N     0.65229   0.09999   0.96984   0.00000  Uiso   1.00
N651   N     0.37715   0.22837   0.91174   0.00000  Uiso   1.00
N652   N     0.39634   0.12218   0.57696   0.00000  Uiso   1.00
N653   N     0.58354   0.22892   0.85951   0.00000  Uiso   1.00
N654   N     0.38074   0.21419   0.66783   0.00000  Uiso   1.00
O655   O     0.50000   0.16667   0.75000   0.00000  Uiso   1.00
O656   O     0.48784   0.12637   0.65458   0.00000  Uiso   1.00
O657   O     0.46274   0.20391   0.84968   0.00000  Uiso   1.00
O658   O     0.54157   0.17759   0.64606   0.00000  Uiso   1.00
O659   O     0.50785   0.15880   0.84968   0.00000  Uiso   1.00
O660   O     0.51264   0.08019   0.78213   0.00000  Uiso   1.00
O661   O     0.47965   0.26085   0.77013   0.00000  Uiso   1.00
O662   O     0.40745   0.13291   0.73413   0.00000  Uiso   1.00
O663   O     0.60026   0.19272   0.71360   0.00000  Uiso   1.00
O664   O     0.40405   0.18878   0.78213   0.00000  Uiso   1.00
O665   O     0.58824   0.15226   0.77013   0.00000  Uiso   1.00
O666   O     0.47093   0.06944   0.73413   0.00000  Uiso   1.00
O667   O     0.53678   0.25620   0.71360   0.00000  Uiso   1.00
Zn668  Zn    0.52672   0.13994   0.78734   0.00000  Uiso   1.00
Zn669  Zn    0.46713   0.12458   0.71875   0.00000  Uiso   1.00
Zn670  Zn    0.54389   0.19775   0.70657   0.00000  Uiso   1.00
Zn671  Zn    0.46226   0.20439   0.78733   0.00000  Uiso   1.00
C672   C     0.71937   0.15948   0.76057   0.00000  Uiso   1.00
C673   C     0.83489   0.15565   0.55864   0.00000  Uiso   1.00
C674   C     0.89953   0.12703   0.55594   0.00000  Uiso   1.00
C675   C     0.94760   0.17382   0.73969   0.00000  Uiso   1.00
C676   C     0.80470   0.18997   0.92116   0.00000  Uiso   1.00
C677   C     0.99379   0.17612   0.73442   0.00000  Uiso   1.00
C678   C     0.67421   0.15817   0.76387   0.00000  Uiso   1.00
C679   C     0.84705   0.32258   0.73708   0.00000  Uiso   1.00
C680   C     0.81790   0.01263   0.76447   0.00000  Uiso   1.00
C681   C     0.82275   0.05624   0.76029   0.00000  Uiso   1.00
C682   C     0.84321   0.27798   0.74024   0.00000  Uiso   1.00
C683   C     0.74604   0.18345   0.98889   0.00000  Uiso   1.00
C684   C     0.85222   0.14843   0.62924   0.00000  Uiso   1.00
C685   C     0.81539   0.18508   0.87110   0.00000  Uiso   1.00
C686   C     0.91316   0.12894   0.50926   0.00000  Uiso   1.00
C687   C     0.86146   0.14191   0.58051   0.00000  Uiso   1.00
C688   C     0.76240   0.19672   0.94577   0.00000  Uiso   1.00
C689   C     0.88351   0.00784   0.70343   0.00000  Uiso   1.00
C690   C     0.78010   0.33032   0.79837   0.00000  Uiso   1.00
C691   C     0.94730   0.15499   0.91503   0.00000  Uiso   1.00
C692   C     0.95340   0.11296   0.98711   0.00000  Uiso   1.00
C693   C     0.73355   0.21417   0.92678   0.00000  Uiso   1.00
C694   C     0.77137   0.16519   0.50897   0.00000  Uiso   1.00
C695   C     0.74831   0.14131   0.54680   0.00000  Uiso   1.00
C696   C     0.89974   0.20752   0.88815   0.00000  Uiso   1.00
C697   C     0.69028   0.19733   0.69738   0.00000  Uiso   1.00
C698   C     0.81665   0.16649   0.98899   0.00000  Uiso   1.00
C699   C     0.83343   0.17925   0.94443   0.00000  Uiso   1.00
C700   C     0.84562   0.15507   0.51139   0.00000  Uiso   1.00
C701   C     0.88783   0.14649   0.98656   0.00000  Uiso   1.00
C702   C     0.90387   0.15955   0.94211   0.00000  Uiso   1.00
C703   C     0.87837   0.18065   0.92426   0.00000  Uiso   1.00
H704   H     0.91968   0.11577   0.57361   0.00000  Uiso   1.00
H705   H     0.80774   0.17028   0.57936   0.00000  Uiso   1.00
H706   H     0.98520   0.14286   0.79198   0.00000  Uiso   1.00
H707   H     0.71221   0.18471   0.50577   0.00000  Uiso   1.00
N708   N     0.91252   0.02266   0.67666   0.00000  Uiso   1.00
N709   N     0.74987   0.31799   0.82547   0.00000  Uiso   1.00
N710   N     0.98174   0.15140   0.89288   0.00000  Uiso   1.00
N711   N     0.98563   0.09999   0.96984   0.00000  Uiso   1.00
N712   N     0.71049   0.22837   0.91174   0.00000  Uiso   1.00
N713   N     0.72968   0.12218   0.57696   0.00000  Uiso   1.00
N714   N     0.91687   0.22892   0.85951   0.00000  Uiso   1.00
N715   N     0.71407   0.21419   0.66783   0.00000  Uiso   1.00
O716   O     0.83333   0.16667   0.75000   0.00000  Uiso   1.00
O717   O     0.82118   0.12637   0.65458   0.00000  Uiso   1.00
O718   O     0.79607   0.20391   0.84968   0.00000  Uiso   1.00
O719   O     0.87491   0.17759   0.64606   0.00000  Uiso   1.00
O720   O     0.84118   0.15880   0.84968   0.00000  Uiso   1.00
O721   O     0.84597   0.08019   0.78213   0.00000  Uiso   1.00
O722   O     0.81298   0.26085   0.77013   0.00000  Uiso   1.00
O723   O     0.74078   0.13291   0.73413   0.00000  Uiso   1.00
O724   O     0.93360   0.19272   0.71360   0.00000  Uiso   1.00
O725   O     0.73738   0.18878   0.78213   0.00000  Uiso   1.00
O726   O     0.92158   0.15226   0.77013   0.00000  Uiso   1.00
O727   O     0.80426   0.06944   0.73413   0.00000  Uiso   1.00
O728   O     0.87012   0.25620   0.71360   0.00000  Uiso   1.00
Zn729  Zn    0.86005   0.13994   0.78734   0.00000  Uiso   1.00
Zn730  Zn    0.80046   0.12458   0.71875   0.00000  Uiso   1.00
Zn731  Zn    0.87723   0.19775   0.70657   0.00000  Uiso   1.00
Zn732  Zn    0.79560   0.20439   0.78733   0.00000  Uiso   1.00
C733   C     0.05270   0.49281   0.76057   0.00000  Uiso   1.00
C734   C     0.16822   0.48898   0.55864   0.00000  Uiso   1.00
C735   C     0.23286   0.46037   0.55594   0.00000  Uiso   1.00
C736   C     0.28093   0.50715   0.73969   0.00000  Uiso   1.00
C737   C     0.13804   0.52330   0.92116   0.00000  Uiso   1.00
C738   C     0.32712   0.50945   0.73442   0.00000  Uiso   1.00
C739   C     0.00754   0.49150   0.76387   0.00000  Uiso   1.00
C740   C     0.18039   0.65591   0.73708   0.00000  Uiso   1.00
C741   C     0.15123   0.34597   0.76447   0.00000  Uiso   1.00
C742   C     0.15608   0.38958   0.76029   0.00000  Uiso   1.00
C743   C     0.17654   0.61132   0.74024   0.00000  Uiso   1.00
C744   C     0.07937   0.51679   0.98889   0.00000  Uiso   1.00
C745   C     0.18555   0.48176   0.62924   0.00000  Uiso   1.00
C746   C     0.14872   0.51841   0.87110   0.00000  Uiso   1.00
C747   C     0.24649   0.46227   0.50926   0.00000  Uiso   1.00
C748   C     0.19480   0.47524   0.58051   0.00000  Uiso   1.00
C749   C     0.09573   0.53006   0.94577   0.00000  Uiso   1.00
C750   C     0.21684   0.34117   0.70343   0.00000  Uiso   1.00
C751   C     0.11343   0.66365   0.79837   0.00000  Uiso   1.00
C752   C     0.28064   0.48832   0.91503   0.00000  Uiso   1.00
C753   C     0.28673   0.44629   0.98711   0.00000  Uiso   1.00
C754   C     0.06688   0.54750   0.92678   0.00000  Uiso   1.00
C755   C     0.10471   0.49852   0.50897   0.00000  Uiso   1.00
C756   C     0.08164   0.47464   0.54680   0.00000  Uiso   1.00
C757   C     0.23308   0.54086   0.88815   0.00000  Uiso   1.00
C758   C     0.02361   0.53066   0.69738   0.00000  Uiso   1.00
C759   C     0.14998   0.49983   0.98899   0.00000  Uiso   1.00
C760   C     0.16676   0.51259   0.94443   0.00000  Uiso   1.00
C761   C     0.17895   0.48840   0.51139   0.00000  Uiso   1.00
C762   C     0.22116   0.47982   0.98656   0.00000  Uiso   1.00
C763   C     0.23720   0.49288   0.94211   0.00000  Uiso   1.00
C764   C     0.21170   0.51398   0.92426   0.00000  Uiso   1.00
H765   H     0.25302   0.44911   0.57361   0.00000  Uiso   1.00
H766   H     0.14107   0.50361   0.57936   0.00000  Uiso   1.00
H767   H     0.31853   0.47619   0.79198   0.00000  Uiso   1.00
H768   H     0.04554   0.51804   0.50577   0.00000  Uiso   1.00
N769   N     0.24585   0.35599   0.67666   0.00000  Uiso   1.00
N770   N     0.08321   0.65132   0.82547   0.00000  Uiso   1.00
N771   N     0.31508   0.48474   0.89288   0.00000  Uiso   1.00
N772   N     0.31896   0.43333   0.96984   0.00000  Uiso   1.00
N773   N     0.04382   0.56170   0.91174   0.00000  Uiso   1.00
N774   N     0.06301   0.45551   0.57696   0.00000  Uiso   1.00
N775   N     0.25021   0.56225   0.85951   0.00000  Uiso   1.00
N776   N     0.04740   0.54753   0.66783   0.00000  Uiso   1.00
O777   O     0.16667   0.50000   0.75000   0.00000  Uiso   1.00
O778   O     0.15451   0.45970   0.65458   0.00000  Uiso   1.00
O779   O     0.12940   0.53724   0.84968   0.00000  Uiso   1.00
O780   O     0.20824   0.51092   0.64606   0.00000  Uiso   1.00
O781   O     0.17451   0.49213   0.84968   0.00000  Uiso   1.00
O782   O     0.17930   0.41352   0.78213   0.00000  Uiso   1.00
O783   O     0.14632   0.59418   0.77013   0.00000  Uiso   1.00
O784   O     0.07412   0.46625   0.73413   0.00000  Uiso   1.00
O785   O     0.26693   0.52605   0.71360   0.00000  Uiso   1.00
O786   O     0.07071   0.52211   0.78213   0.00000  Uiso   1.00
O787   O     0.25491   0.48559   0.77013   0.00000  Uiso   1.00
O788   O     0.13760   0.40277   0.73413   0.00000  Uiso   1.00
O789   O     0.20345   0.58953   0.71360   0.00000  Uiso   1.00
Zn790  Zn    0.19338   0.47327   0.78734   0.00000  Uiso   1.00
Zn791  Zn    0.13379   0.45791   0.71875   0.00000  Uiso   1.00
Zn792  Zn    0.21056   0.53109   0.70657   0.00000  Uiso   1.00
Zn793  Zn    0.12893   0.53773   0.78733   0.00000  Uiso   1.00
C794   C     0.38603   0.49281   0.76057   0.00000  Uiso   1.00
C795   C     0.50155   0.48898   0.55864   0.00000  Uiso   1.00
C796   C     0.56620   0.46037   0.55594   0.00000  Uiso   1.00
C797   C     0.61426   0.50715   0.73969   0.00000  Uiso   1.00
C798   C     0.47137   0.52330   0.92116   0.00000  Uiso   1.00
C799   C     0.66046   0.50945   0.73442   0.00000  Uiso   1.00
C800   C     0.34088   0.49150   0.76387   0.00000  Uiso   1.00
C801   C     0.51372   0.65591   0.73708   0.00000  Uiso   1.00
C802   C     0.48456   0.34597   0.76447   0.00000  Uiso   1.00
C803   C     0.48941   0.38958   0.76029   0.00000  Uiso   1.00
C804   C     0.50988   0.61132   0.74024   0.00000  Uiso   1.00
C805   C     0.41270   0.51679   0.98889   0.00000  Uiso   1.00
C806   C     0.51889   0.48176   0.62924   0.00000  Uiso   1.00
C807   C     0.48206   0.51841   0.87110   0.00000  Uiso   1.00
C808   C     0.57983   0.46227   0.50926   0.00000  Uiso   1.00
C809   C     0.52813   0.47524   0.58051   0.00000  Uiso   1.00
C810   C     0.42907   0.53006   0.94577   0.00000  Uiso   1.00
C811   C     0.55017   0.34117   0.70343   0.00000  Uiso   1.00
C812   C     0.44676   0.66365   0.79837   0.00000  Uiso   1.00
C813   C     0.61397   0.48832   0.91503   0.00000  Uiso   1.00
C814   C     0.62006   0.44629   0.98711   0.00000  Uiso   1.00
C815   C     0.40021   0.54750   0.92678   0.00000  Uiso   1.00
C816   C     0.43804   0.49852   0.50897   0.00000  Uiso   1.00
C817   C     0.41498   0.47464   0.54680   0.00000  Uiso   1.00
C818   C     0.56641   0.54086   0.88815   0.00000  Uiso   1.00
C819   C     0.35694   0.53066   0.69738   0.00000  Uiso   1.00
C820   C     0.48331   0.49983   0.98899   0.00000  Uiso   1.00
C821   C     0.50009   0.51259   0.94443   0.00000  Uiso   1.00
C822   C     0.51229   0.48840   0.51139   0.00000  Uiso   1.00
C823   C     0.55450   0.47982   0.98656   0.00000  Uiso   1.00
C824   C     0.57054   0.49288   0.94211   0.00000  Uiso   1.00
C825   C     0.54503   0.51398   0.92426   0.00000  Uiso   1.00
H826   H     0.58635   0.44911   0.57361   0.00000  Uiso   1.00
H827   H     0.47441   0.50361   0.57936   0.00000  Uiso   1.00
H828   H     0.65186   0.47619   0.79198   0.00000  Uiso   1.00
H829   H     0.37888   0.51804   0.50577   0.00000  Uiso   1.00
N830   N     0.57919   0.35599   0.67666   0.00000  Uiso   1.00
N831   N     0.41654   0.65132   0.82547   0.00000  Uiso   1.00
N832   N     0.64841   0.48474   0.89288   0.00000  Uiso   1.00
N833   N     0.65229   0.43333   0.96984   0.00000  Uiso   1.00
N834   N     0.37715   0.56170   0.91174   0.00000  Uiso   1.00
N835   N     0.39634   0.45551   0.57696   0.00000  Uiso   1.00
N836   N     0.58354   0.56225   0.85951   0.00000  Uiso   1.00
N837   N     0.38074   0.54753   0.66783   0.00000  Uiso   1.00
O838   O     0.50000   0.50000   0.75000   0.00000  Uiso   1.00
O839   O     0.48784   0.45970   0.65458   0.00000  Uiso   1.00
O840   O     0.46274   0.53724   0.84968   0.00000  Uiso   1.00
O841   O     0.54157   0.51092   0.64606   0.00000  Uiso   1.00
O842   O     0.50785   0.49213   0.84968   0.00000  Uiso   1.00
O843   O     0.51264   0.41352   0.78213   0.00000  Uiso   1.00
O844   O     0.47965   0.59418   0.77013   0.00000  Uiso   1.00
O845   O     0.40745   0.46625   0.73413   0.00000  Uiso   1.00
O846   O     0.60026   0.52605   0.71360   0.00000  Uiso   1.00
O847   O     0.40405   0.52211   0.78213   0.00000  Uiso   1.00
O848   O     0.58824   0.48559   0.77013   0.00000  Uiso   1.00
O849   O     0.47093   0.40277   0.73413   0.00000  Uiso   1.00
O850   O     0.53678   0.58953   0.71360   0.00000  Uiso   1.00
Zn851  Zn    0.52672   0.47327   0.78734   0.00000  Uiso   1.00
Zn852  Zn    0.46713   0.45791   0.71875   0.00000  Uiso   1.00
Zn853  Zn    0.54389   0.53109   0.70657   0.00000  Uiso   1.00
Zn854  Zn    0.46226   0.53773   0.78733   0.00000  Uiso   1.00
C855   C     0.71937   0.49281   0.76057   0.00000  Uiso   1.00
C856   C     0.83489   0.48898   0.55864   0.00000  Uiso   1.00
C857   C     0.89953   0.46037   0.55594   0.00000  Uiso   1.00
C858   C     0.94760   0.50715   0.73969   0.00000  Uiso   1.00
C859   C     0.80470   0.52330   0.92116   0.00000  Uiso   1.00
C860   C     0.99379   0.50945   0.73442   0.00000  Uiso   1.00
C861   C     0.67421   0.49150   0.76387   0.00000  Uiso   1.00
C862   C     0.84705   0.65591   0.73708   0.00000  Uiso   1.00
C863   C     0.81790   0.34597   0.76447   0.00000  Uiso   1.00
C864   C     0.82275   0.38958   0.76029   0.00000  Uiso   1.00
C865   C     0.84321   0.61132   0.74024   0.00000  Uiso   1.00
C866   C     0.74604   0.51679   0.98889   0.00000  Uiso   1.00
C867   C     0.85222   0.48176   0.62924   0.00000  Uiso   1.00
C868   C     0.81539   0.51841   0.87110   0.00000  Uiso   1.00
C869   C     0.91316   0.46227   0.50926   0.00000  Uiso   1.00
C870   C     0.86146   0.47524   0.58051   0.00000  Uiso   1.00
C871   C     0.76240   0.53006   0.94577   0.00000  Uiso   1.00
C872   C     0.88351   0.34117   0.70343   0.00000  Uiso   1.00
C873   C     0.78010   0.66365   0.79837   0.00000  Uiso   1.00
C874   C     0.94730   0.48832   0.91503   0.00000  Uiso   1.00
C875   C     0.95340   0.44629   0.98711   0.00000  Uiso   1.00
C876   C     0.73355   0.54750   0.92678   0.00000  Uiso   1.00
C877   C     0.77137   0.49852   0.50897   0.00000  Uiso   1.00
C878   C     0.74831   0.47464   0.54680   0.00000  Uiso   1.00
C879   C     0.89974   0.54086   0.88815   0.00000  Uiso   1.00
C880   C     0.69028   0.53066   0.69738   0.00000  Uiso   1.00
C881   C     0.81665   0.49983   0.98899   0.00000  Uiso   1.00
C882   C     0.83343   0.51259   0.94443   0.00000  Uiso   1.00
C883   C     0.84562   0.48840   0.51139   0.00000  Uiso   1.00
C884   C     0.88783   0.47982   0.98656   0.00000  Uiso   1.00
C885   C     0.90387   0.49288   0.94211   0.00000  Uiso   1.00
C886   C     0.87837   0.51398   0.92426   0.00000  Uiso   1.00
H887   H     0.91968   0.44911   0.57361   0.00000  Uiso   1.00
H888   H     0.80774   0.50361   0.57936   0.00000  Uiso   1.00
H889   H     0.98520   0.47619   0.79198   0.00000  Uiso   1.00
H890   H     0.71221   0.51804   0.50577   0.00000  Uiso   1.00
N891   N     0.91252   0.35599   0.67666   0.00000  Uiso   1.00
N892   N     0.74987   0.65132   0.82547   0.00000  Uiso   1.00
N893   N     0.98174   0.48474   0.89288   0.00000  Uiso   1.00
N894   N     0.98563   0.43333   0.96984   0.00000  Uiso   1.00
N895   N     0.71049   0.56170   0.91174   0.00000  Uiso   1.00
N896   N     0.72968   0.45551   0.57696   0.00000  Uiso   1.00
N897   N     0.91687   0.56225   0.85951   0.00000  Uiso   1.00
N898   N     0.71407   0.54753   0.66783   0.00000  Uiso   1.00
O899   O     0.83333   0.50000   0.75000   0.00000  Uiso   1.00
O900   O     0.82118   0.45970   0.65458   0.00000  Uiso   1.00
O901   O     0.79607   0.53724   0.84968   0.00000  Uiso   1.00
O902   O     0.87491   0.51092   0.64606   0.00000  Uiso   1.00
O903   O     0.84118   0.49213   0.84968   0.00000  Uiso   1.00
O904   O     0.84597   0.41352   0.78213   0.00000  Uiso   1.00
O905   O     0.81298   0.59418   0.77013   0.00000  Uiso   1.00
O906   O     0.74078   0.46625   0.73413   0.00000  Uiso   1.00
O907   O     0.93360   0.52605   0.71360   0.00000  Uiso   1.00
O908   O     0.73738   0.52211   0.78213   0.00000  Uiso   1.00
O909   O     0.92158   0.48559   0.77013   0.00000  Uiso   1.00
O910   O     0.80426   0.40277   0.73413   0.00000  Uiso   1.00
O911   O     0.87012   0.58953   0.71360   0.00000  Uiso   1.00
Zn912  Zn    0.86005   0.47327   0.78734   0.00000  Uiso   1.00
Zn913  Zn    0.80046   0.45791   0.71875   0.00000  Uiso   1.00
Zn914  Zn    0.87723   0.53109   0.70657   0.00000  Uiso   1.00
Zn915  Zn    0.79560   0.53773   0.78733   0.00000  Uiso   1.00
C916   C     0.05270   0.82614   0.76057   0.00000  Uiso   1.00
C917   C     0.16822   0.82232   0.55864   0.00000  Uiso   1.00
C918   C     0.23286   0.79370   0.55594   0.00000  Uiso   1.00
C919   C     0.28093   0.84049   0.73969   0.00000  Uiso   1.00
C920   C     0.13804   0.85663   0.92116   0.00000  Uiso   1.00
C921   C     0.32712   0.84278   0.73442   0.00000  Uiso   1.00
C922   C     0.00754   0.82483   0.76387   0.00000  Uiso   1.00
C923   C     0.18039   0.98925   0.73708   0.00000  Uiso   1.00
C924   C     0.15123   0.67930   0.76447   0.00000  Uiso   1.00
C925   C     0.15608   0.72291   0.76029   0.00000  Uiso   1.00
C926   C     0.17654   0.94465   0.74024   0.00000  Uiso   1.00
C927   C     0.07937   0.85012   0.98889   0.00000  Uiso   1.00
C928   C     0.18555   0.81510   0.62924   0.00000  Uiso   1.00
C929   C     0.14872   0.85174   0.87110   0.00000  Uiso   1.00
C930   C     0.24649   0.79560   0.50926   0.00000  Uiso   1.00
C931   C     0.19480   0.80857   0.58051   0.00000  Uiso   1.00
C932   C     0.09573   0.86339   0.94577   0.00000  Uiso   1.00
C933   C     0.21684   0.67450   0.70343   0.00000  Uiso   1.00
C934   C     0.11343   0.99699   0.79837   0.00000  Uiso   1.00
C935   C     0.28064   0.82166   0.91503   0.00000  Uiso   1.00
C936   C     0.28673   0.77963   0.98711   0.00000  Uiso   1.00
C937   C     0.06688   0.88083   0.92678   0.00000  Uiso   1.00
C938   C     0.10471   0.83185   0.50897   0.00000  Uiso   1.00
C939   C     0.08164   0.80797   0.54680   0.00000  Uiso   1.00
C940   C     0.23308   0.87419   0.88815   0.00000  Uiso   1.00
C941   C     0.02361   0.86399   0.69738   0.00000  Uiso   1.00
C942   C     0.14998   0.83316   0.98899   0.00000  Uiso   1.00
C943   C     0.16676   0.84592   0.94443   0.00000  Uiso   1.00
C944   C     0.17895   0.82173   0.51139   0.00000  Uiso   1.00
C945   C     0.22116   0.81316   0.98656   0.00000  Uiso   1.00
C946   C     0.23720   0.82622   0.94211   0.00000  Uiso   1.00
C947   C     0.21170   0.84731   0.92426   0.00000  Uiso   1.00
H948   H     0.25302   0.78244   0.57361   0.00000  Uiso   1.00
H949   H     0.14107   0.83694   0.57936   0.00000  Uiso   1.00
H950   H     0.31853   0.80953   0.79198   0.00000  Uiso   1.00
H951   H     0.04554   0.85137   0.50577   0.00000  Uiso   1.00
N952   N     0.24585   0.68932   0.67666   0.00000  Uiso   1.00
N953   N     0.08321   0.98466   0.82547   0.00000  Uiso   1.00
N954   N     0.31508   0.81807   0.89288   0.00000  Uiso   1.00
N955   N     0.31896   0.76666   0.96984   0.00000  Uiso   1.00
N956   N     0.04382   0.89503   0.91174   0.00000  Uiso   1.00
N957   N     0.06301   0.78884   0.57696   0.00000  Uiso   1.00
N958   N     0.25021   0.89558   0.85951   0.00000  Uiso   1.00
N959   N     0.04740   0.88086   0.66783   0.00000  Uiso   1.00
O960   O     0.16667   0.83333   0.75000   0.00000  Uiso   1.00
O961   O     0.15451   0.79304   0.65458   0.00000  Uiso   1.00
O962   O     0.12940   0.87058   0.84968   0.00000  Uiso   1.00
O963   O     0.20824   0.84425   0.64606   0.00000  Uiso   1.00
O964   O     0.17451   0.82546   0.84968   0.00000  Uiso   1.00
O965   O     0.17930   0.74686   0.78213   0.00000  Uiso   1.00
O966   O     0.14632   0.92751   0.77013   0.00000  Uiso   1.00
O967   O     0.07412   0.79958   0.73413   0.00000  Uiso   1.00
O968   O     0.26693   0.85939   0.71360   0.00000  Uiso   1.00
O969   O     0.07071   0.85544   0.78213   0.00000  Uiso   1.00
O970   O     0.25491   0.81892   0.77013   0.00000  Uiso   1.00
O971   O     0.13760   0.73610   0.73413   0.00000  Uiso   1.00
O972   O     0.20345   0.92286   0.71360   0.00000  Uiso   1.00
Zn973  Zn    0.19338   0.80661   0.78734   0.00000  Uiso   1.00
Zn974  Zn    0.13379   0.79124   0.71875   0.00000  Uiso   1.00
Zn975  Zn    0.21056   0.86442   0.70657   0.00000  Uiso   1.00
Zn976  Zn    0.12893   0.87106   0.78733   0.00000  Uiso   1.00
C977   C     0.38603   0.82614   0.76057   0.00000  Uiso   1.00
C978   C     0.50155   0.82232   0.55864   0.00000  Uiso   1.00
C979   C     0.56620   0.79370   0.55594   0.00000  Uiso   1.00
C980   C     0.61426   0.84049   0.73969   0.00000  Uiso   1.00
C981   C     0.47137   0.85663   0.92116   0.00000  Uiso   1.00
C982   C     0.66046   0.84278   0.73442   0.00000  Uiso   1.00
C983   C     0.34088   0.82483   0.76387   0.00000  Uiso   1.00
C984   C     0.51372   0.98925   0.73708   0.00000  Uiso   1.00
C985   C     0.48456   0.67930   0.76447   0.00000  Uiso   1.00
C986   C     0.48941   0.72291   0.76029   0.00000  Uiso   1.00
C987   C     0.50988   0.94465   0.74024   0.00000  Uiso   1.00
C988   C     0.41270   0.85012   0.98889   0.00000  Uiso   1.00
C989   C     0.51889   0.81510   0.62924   0.00000  Uiso   1.00
C990   C     0.48206   0.85174   0.87110   0.00000  Uiso   1.00
C991   C     0.57983   0.79560   0.50926   0.00000  Uiso   1.00
C992   C     0.52813   0.80857   0.58051   0.00000  Uiso   1.00
C993   C     0.42907   0.86339   0.94577   0.00000  Uiso   1.00
C994   C     0.55017   0.67450   0.70343   0.00000  Uiso   1.00
C995   C     0.44676   0.99699   0.79837   0.00000  Uiso   1.00
C996   C     0.61397   0.82166   0.91503   0.00000  Uiso   1.00
C997   C     0.62006   0.77963   0.98711   0.00000  Uiso   1.00
C998   C     0.40021   0.88083   0.92678   0.00000  Uiso   1.00
C999   C     0.43804   0.83185   0.50897   0.00000  Uiso   1.00
C1000  C     0.41498   0.80797   0.54680   0.00000  Uiso   1.00
C1001  C     0.56641   0.87419   0.88815   0.00000  Uiso   1.00
C1002  C     0.35694   0.86399   0.69738   0.00000  Uiso   1.00
C1003  C     0.48331   0.83316   0.98899   0.00000  Uiso   1.00
C1004  C     0.50009   0.84592   0.94443   0.00000  Uiso   1.00
C1005  C     0.51229   0.82173   0.51139   0.00000  Uiso   1.00
C1006  C     0.55450   0.81316   0.98656   0.00000  Uiso   1.00
C1007  C     0.57054   0.82622   0.94211   0.00000  Uiso   1.00
C1008  C     0.54503   0.84731   0.92426   0.00000  Uiso   1.00
H1009  H     0.58635   0.78244   0.57361   0.00000  Uiso   1.00
H1010  H     0.47441   0.83694   0.57936   0.00000  Uiso   1.00
H1011  H     0.65186   0.80953   0.79198   0.00000  Uiso   1.00
H1012  H     0.37888   0.85137   0.50577   0.00000  Uiso   1.00
N1013  N     0.57919   0.68932   0.67666   0.00000  Uiso   1.00
N1014  N     0.41654   0.98466   0.82547   0.00000  Uiso   1.00
N1015  N     0.64841   0.81807   0.89288   0.00000  Uiso   1.00
N1016  N     0.65229   0.76666   0.96984   0.00000  Uiso   1.00
N1017  N     0.37715   0.89503   0.91174   0.00000  Uiso   1.00
N1018  N     0.39634   0.78884   0.57696   0.00000  Uiso   1.00
N1019  N     0.58354   0.89558   0.85951   0.00000  Uiso   1.00
N1020  N     0.38074   0.88086   0.66783   0.00000  Uiso   1.00
O1021  O     0.50000   0.83333   0.75000   0.00000  Uiso   1.00
O1022  O     0.48784   0.79304   0.65458   0.00000  Uiso   1.00
O1023  O     0.46274   0.87058   0.84968   0.00000  Uiso   1.00
O1024  O     0.54157   0.84425   0.64606   0.00000  Uiso   1.00
O1025  O     0.50785   0.82546   0.84968   0.00000  Uiso   1.00
O1026  O     0.51264   0.74686   0.78213   0.00000  Uiso   1.00
O1027  O     0.47965   0.92751   0.77013   0.00000  Uiso   1.00
O1028  O     0.40745   0.79958   0.73413   0.00000  Uiso   1.00
O1029  O     0.60026   0.85939   0.71360   0.00000  Uiso   1.00
O1030  O     0.40405   0.85544   0.78213   0.00000  Uiso   1.00
O1031  O     0.58824   0.81892   0.77013   0.00000  Uiso   1.00
O1032  O     0.47093   0.73610   0.73413   0.00000  Uiso   1.00
O1033  O     0.53678   0.92286   0.71360   0.00000  Uiso   1.00
Zn1034 Zn    0.52672   0.80661   0.78734   0.00000  Uiso   1.00
Zn1035 Zn    0.46713   0.79124   0.71875   0.00000  Uiso   1.00
Zn1036 Zn    0.54389   0.86442   0.70657   0.00000  Uiso   1.00
Zn1037 Zn    0.46226   0.87106   0.78733   0.00000  Uiso   1.00
C1038  C     0.71937   0.82614   0.76057   0.00000  Uiso   1.00
C1039  C     0.83489   0.82232   0.55864   0.00000  Uiso   1.00
C1040  C     0.89953   0.79370   0.55594   0.00000  Uiso   1.00
C1041  C     0.94760   0.84049   0.73969   0.00000  Uiso   1.00
C1042  C     0.80470   0.85663   0.92116   0.00000  Uiso   1.00
C1043  C     0.99379   0.84278   0.73442   0.00000  Uiso   1.00
C1044  C     0.67421   0.82483   0.76387   0.00000  Uiso   1.00
C1045  C     0.84705   0.98925   0.73708   0.00000  Uiso   1.00
C1046  C     0.81790   0.67930   0.76447   0.00000  Uiso   1.00
C1047  C     0.82275   0.72291   0.76029   0.00000  Uiso   1.00
C1048  C     0.84321   0.94465   0.74024   0.00000  Uiso   1.00
C1049  C     0.74604   0.85012   0.98889   0.00000  Uiso   1.00
C1050  C     0.85222   0.81510   0.62924   0.00000  Uiso   1.00
C1051  C     0.81539   0.85174   0.87110   0.00000  Uiso   1.00
C1052  C     0.91316   0.79560   0.50926   0.00000  Uiso   1.00
C1053  C     0.86146   0.80857   0.58051   0.00000  Uiso   1.00
C1054  C     0.76240   0.86339   0.94577   0.00000  Uiso   1.00
C1055  C     0.88351   0.67450   0.70343   0.00000  Uiso   1.00
C1056  C     0.78010   0.99699   0.79837   0.00000  Uiso   1.00
C1057  C     0.94730   0.82166   0.91503   0.00000  Uiso   1.00
C1058  C     0.95340   0.77963   0.98711   0.00000  Uiso   1.00
C1059  C     0.73355   0.88083   0.92678   0.00000  Uiso   1.00
C1060  C     0.77137   0.83185   0.50897   0.00000  Uiso   1.00
C1061  C     0.74831   0.80797   0.54680   0.00000  Uiso   1.00
C1062  C     0.89974   0.87419   0.88815   0.00000  Uiso   1.00
C1063  C     0.69028   0.86399   0.69738   0.00000  Uiso   1.00
C1064  C     0.81665   0.83316   0.98899   0.00000  Uiso   1.00
C1065  C     0.83343   0.84592   0.94443   0.00000  Uiso   1.00
C1066  C     0.84562   0.82173   0.51139   0.00000  Uiso   1.00
C1067  C     0.88783   0.81316   0.98656   0.00000  Uiso   1.00
C1068  C     0.90387   0.82622   0.94211   0.00000  Uiso   1.00
C1069  C     0.87837   0.84731   0.92426   0.00000  Uiso   1.00
H1070  H     0.91968   0.78244   0.57361   0.00000  Uiso   1.00
H1071  H     0.80774   0.83694   0.57936   0.00000  Uiso   1.00
H1072  H     0.98520   0.80953   0.79198   0.00000  Uiso   1.00
H1073  H     0.71221   0.85137   0.50577   0.00000  Uiso   1.00
N1074  N     0.91252   0.68932   0.67666   0.00000  Uiso   1.00
N1075  N     0.74987   0.98466   0.82547   0.00000  Uiso   1.00
N1076  N     0.98174   0.81807   0.89288   0.00000  Uiso   1.00
N1077  N     0.98563   0.76666   0.96984   0.00000  Uiso   1.00
N1078  N     0.71049   0.89503   0.91174   0.00000  Uiso   1.00
N1079  N     0.72968   0.78884   0.57696   0.00000  Uiso   1.00
N1080  N     0.91687   0.89558   0.85951   0.00000  Uiso   1.00
N1081  N     0.71407   0.88086   0.66783   0.00000  Uiso   1.00
O1082  O     0.83333   0.83333   0.75000   0.00000  Uiso   1.00
O1083  O     0.82118   0.79304   0.65458   0.00000  Uiso   1.00
O1084  O     0.79607   0.87058   0.84968   0.00000  Uiso   1.00
O1085  O     0.87491   0.84425   0.64606   0.00000  Uiso   1.00
O1086  O     0.84118   0.82546   0.84968   0.00000  Uiso   1.00
O1087  O     0.84597   0.74686   0.78213   0.00000  Uiso   1.00
O1088  O     0.81298   0.92751   0.77013   0.00000  Uiso   1.00
O1089  O     0.74078   0.79958   0.73413   0.00000  Uiso   1.00
O1090  O     0.93360   0.85939   0.71360   0.00000  Uiso   1.00
O1091  O     0.73738   0.85544   0.78213   0.00000  Uiso   1.00
O1092  O     0.92158   0.81892   0.77013   0.00000  Uiso   1.00
O1093  O     0.80426   0.73610   0.73413   0.00000  Uiso   1.00
O1094  O     0.87012   0.92286   0.71360   0.00000  Uiso   1.00
Zn1095 Zn    0.86005   0.80661   0.78734   0.00000  Uiso   1.00
Zn1096 Zn    0.80046   0.79124   0.71875   0.00000  Uiso   1.00
Zn1097 Zn    0.87723   0.86442   0.70657   0.00000  Uiso   1.00
Zn1098 Zn    0.79560   0.87106   0.78733   0.00000  Uiso   1.00
loop_
_geom_bond_atom_site_label_1
_geom_bond_atom_site_label_2
_geom_bond_distance
_geom_bond_site_symmetry_2
_ccdc_geom_bond_type
C1     O54     1.271   .     A
C1     C7      1.440   .     S
C1     O52     1.273   .     A
C2     H34     1.081   .     S
C2     C16     1.383   .     A
C2     C29     1.406   .     A
C3     H33     1.086   .     S
C3     C15     1.396   .     A
C3     C16     1.389   .     A
C4     O53     1.280   .     A
C4     O55     1.280   .     A
C4     C6      1.459   .     S
C5     C28     1.428   .     A
C5     C14     1.487   .     S
C5     C17     1.415   .     A
C6     C68     1.341   .     S
C6     C87     1.452   .     S
C7     C128    1.341   1_455 S
C7     H157    1.086   1_455 S
C8     C11     1.460   .     S
C8     C192    1.355   .     S
C8     C201    1.454   .     S
C9     C10     1.430   .     S
C9     C374    1.355   1_545 S
C9     C385    1.450   1_545 S
C10    O50     1.276   .     A
C10    O56     1.275   .     A
C11    O51     1.262   .     A
C11    O57     1.270   .     A
C12    C17     1.388   .     A
C12    C572    1.391   .     S
C12    H585    1.086   .     S
C13    O48     1.272   .     A
C13    C16     1.452   .     S
C13    O46     1.279   .     A
C14    O47     1.285   .     A
C14    O49     1.291   .     A
C15    C570    1.445   1_554 S
C15    C579    1.432   1_554 S
C17    C22     1.446   .     S
C18    N37     1.157   .     T
C18    C374    1.454   1_545 S
C19    N38     1.158   .     T
C19    C192    1.450   .     S
C20    N39     1.158   .     T
C20    C31     1.452   .     S
C21    N40     1.158   .     T
C21    C564    1.445   .     S
C22    N41     1.157   .     T
C23    C24     1.447   .     S
C23    C561    1.391   1_554 S
C23    C576    1.430   1_554 S
C24    N42     1.158   .     T
C25    C32     1.456   .     S
C25    N43     1.158   .     T
C26    N44     1.157   .     T
C26    C128    1.452   1_455 S
C27    C28     1.422   .     A
C27    C572    1.430   .     S
C27    C578    1.425   .     S
C28    C32     1.420   .     A
C29    C576    1.425   1_554 S
C29    C579    1.430   1_554 S
C30    C31     1.421   .     A
C30    C564    1.432   .     S
C30    C578    1.430   .     S
C31    C32     1.406   .     A
H35    C68     1.086   .     S
H36    C561    1.086   1_554 S
O45    Zn60    1.926   .     S
O45    Zn61    1.929   .     S
O45    Zn58    1.965   .     S
O45    Zn59    1.952   .     S
O46    Zn59    1.919   .     S
O47    Zn61    1.935   .     S
O48    Zn60    1.932   .     S
O49    Zn58    1.917   .     S
O50    Zn58    1.942   .     S
O51    Zn61    1.941   .     S
O52    Zn59    1.922   .     S
O53    Zn60    1.938   .     S
O54    Zn61    1.934   .     S
O55    Zn58    1.919   .     S
O56    Zn59    1.948   .     S
O57    Zn60    1.943   .     S
C62    O115    1.271   .     A
C62    C68     1.440   .     S
C62    O113    1.273   .     A
C63    H95     1.081   .     S
C63    C77     1.383   .     A
C63    C90     1.406   .     A
C64    H94     1.086   .     S
C64    C76     1.396   .     A
C64    C77     1.389   .     A
C65    O114    1.280   .     A
C65    O116    1.280   .     A
C65    C67     1.459   .     S
C66    C89     1.428   .     A
C66    C75     1.487   .     S
C66    C78     1.415   .     A
C67    C129    1.341   .     S
C67    C148    1.452   .     S
C69    C72     1.460   .     S
C69    C253    1.355   .     S
C69    C262    1.454   .     S
C70    C71     1.430   .     S
C70    C435    1.355   1_545 S
C70    C446    1.450   1_545 S
C71    O111    1.276   .     A
C71    O117    1.275   .     A
C72    O112    1.262   .     A
C72    O118    1.270   .     A
C73    C78     1.388   .     A
C73    C633    1.391   .     S
C73    H646    1.086   .     S
C74    O109    1.272   .     A
C74    C77     1.452   .     S
C74    O107    1.279   .     A
C75    O108    1.285   .     A
C75    O110    1.291   .     A
C76    C631    1.445   1_554 S
C76    C640    1.432   1_554 S
C78    C83     1.446   .     S
C79    N98     1.157   .     T
C79    C435    1.454   1_545 S
C80    N99     1.158   .     T
C80    C253    1.450   .     S
C81    N100    1.158   .     T
C81    C92     1.452   .     S
C82    N101    1.158   .     T
C82    C625    1.445   .     S
C83    N102    1.157   .     T
C84    C85     1.447   .     S
C84    C622    1.391   1_554 S
C84    C637    1.430   1_554 S
C85    N103    1.158   .     T
C86    C93     1.456   .     S
C86    N104    1.158   .     T
C87    N105    1.157   .     T
C88    C89     1.422   .     A
C88    C633    1.430   .     S
C88    C639    1.425   .     S
C89    C93     1.420   .     A
C90    C637    1.425   1_554 S
C90    C640    1.430   1_554 S
C91    C92     1.421   .     A
C91    C625    1.432   .     S
C91    C639    1.430   .     S
C92    C93     1.406   .     A
H96    C129    1.086   .     S
H97    C622    1.086   1_554 S
O106   Zn121   1.926   .     S
O106   Zn122   1.929   .     S
O106   Zn119   1.965   .     S
O106   Zn120   1.952   .     S
O107   Zn120   1.919   .     S
O108   Zn122   1.935   .     S
O109   Zn121   1.932   .     S
O110   Zn119   1.917   .     S
O111   Zn119   1.942   .     S
O112   Zn122   1.941   .     S
O113   Zn120   1.922   .     S
O114   Zn121   1.938   .     S
O115   Zn122   1.934   .     S
O116   Zn119   1.919   .     S
O117   Zn120   1.948   .     S
O118   Zn121   1.943   .     S
C123   O176    1.271   .     A
C123   C129    1.440   .     S
C123   O174    1.273   .     A
C124   H156    1.081   .     S
C124   C138    1.383   .     A
C124   C151    1.406   .     A
C125   H155    1.086   .     S
C125   C137    1.396   .     A
C125   C138    1.389   .     A
C126   O175    1.280   .     A
C126   O177    1.280   .     A
C126   C128    1.459   .     S
C127   C150    1.428   .     A
C127   C136    1.487   .     S
C127   C139    1.415   .     A
C128   C7      1.341   1_655 S
C128   C26     1.452   1_655 S
C130   C133    1.460   .     S
C130   C314    1.355   .     S
C130   C323    1.454   .     S
C131   C132    1.430   .     S
C131   C496    1.355   1_545 S
C131   C507    1.450   1_545 S
C132   O172    1.276   .     A
C132   O178    1.275   .     A
C133   O173    1.262   .     A
C133   O179    1.270   .     A
C134   C139    1.388   .     A
C134   C694    1.391   .     S
C134   H707    1.086   .     S
C135   O170    1.272   .     A
C135   C138    1.452   .     S
C135   O168    1.279   .     A
C136   O169    1.285   .     A
C136   O171    1.291   .     A
C137   C692    1.445   1_554 S
C137   C701    1.432   1_554 S
C139   C144    1.446   .     S
C140   N159    1.157   .     T
C140   C496    1.454   1_545 S
C141   N160    1.158   .     T
C141   C314    1.450   .     S
C142   N161    1.158   .     T
C142   C153    1.452   .     S
C143   N162    1.158   .     T
C143   C686    1.445   .     S
C144   N163    1.157   .     T
C145   C146    1.447   .     S
C145   C683    1.391   1_554 S
C145   C698    1.430   1_554 S
C146   N164    1.158   .     T
C147   C154    1.456   .     S
C147   N165    1.158   .     T
C148   N166    1.157   .     T
C149   C150    1.422   .     A
C149   C694    1.430   .     S
C149   C700    1.425   .     S
C150   C154    1.420   .     A
C151   C698    1.425   1_554 S
C151   C701    1.430   1_554 S
C152   C153    1.421   .     A
C152   C686    1.432   .     S
C152   C700    1.430   .     S
C153   C154    1.406   .     A
H157   C7      1.086   1_655 S
H158   C683    1.086   1_554 S
O167   Zn182   1.926   .     S
O167   Zn183   1.929   .     S
O167   Zn180   1.965   .     S
O167   Zn181   1.952   .     S
O168   Zn181   1.919   .     S
O169   Zn183   1.935   .     S
O170   Zn182   1.932   .     S
O171   Zn180   1.917   .     S
O172   Zn180   1.942   .     S
O173   Zn183   1.941   .     S
O174   Zn181   1.922   .     S
O175   Zn182   1.938   .     S
O176   Zn183   1.934   .     S
O177   Zn180   1.919   .     S
O178   Zn181   1.948   .     S
O179   Zn182   1.943   .     S
C184   O237    1.271   .     A
C184   C190    1.440   .     S
C184   O235    1.273   .     A
C185   H217    1.081   .     S
C185   C199    1.383   .     A
C185   C212    1.406   .     A
C186   H216    1.086   .     S
C186   C198    1.396   .     A
C186   C199    1.389   .     A
C187   O236    1.280   .     A
C187   O238    1.280   .     A
C187   C189    1.459   .     S
C188   C211    1.428   .     A
C188   C197    1.487   .     S
C188   C200    1.415   .     A
C189   C251    1.341   .     S
C189   C270    1.452   .     S
C190   C311    1.341   1_455 S
C190   H340    1.086   1_455 S
C191   C194    1.460   .     S
C191   C375    1.355   .     S
C191   C384    1.454   .     S
C192   C193    1.430   .     S
C193   O233    1.276   .     A
C193   O239    1.275   .     A
C194   O234    1.262   .     A
C194   O240    1.270   .     A
C195   C200    1.388   .     A
C195   C755    1.391   .     S
C195   H768    1.086   .     S
C196   O231    1.272   .     A
C196   C199    1.452   .     S
C196   O229    1.279   .     A
C197   O230    1.285   .     A
C197   O232    1.291   .     A
C198   C753    1.445   1_554 S
C198   C762    1.432   1_554 S
C200   C205    1.446   .     S
C201   N220    1.157   .     T
C202   N221    1.158   .     T
C202   C375    1.450   .     S
C203   N222    1.158   .     T
C203   C214    1.452   .     S
C204   N223    1.158   .     T
C204   C747    1.445   .     S
C205   N224    1.157   .     T
C206   C207    1.447   .     S
C206   C744    1.391   1_554 S
C206   C759    1.430   1_554 S
C207   N225    1.158   .     T
C208   C215    1.456   .     S
C208   N226    1.158   .     T
C209   N227    1.157   .     T
C209   C311    1.452   1_455 S
C210   C211    1.422   .     A
C210   C755    1.430   .     S
C210   C761    1.425   .     S
C211   C215    1.420   .     A
C212   C759    1.425   1_554 S
C212   C762    1.430   1_554 S
C213   C214    1.421   .     A
C213   C747    1.432   .     S
C213   C761    1.430   .     S
C214   C215    1.406   .     A
H218   C251    1.086   .     S
H219   C744    1.086   1_554 S
O228   Zn243   1.926   .     S
O228   Zn244   1.929   .     S
O228   Zn241   1.965   .     S
O228   Zn242   1.952   .     S
O229   Zn242   1.919   .     S
O230   Zn244   1.935   .     S
O231   Zn243   1.932   .     S
O232   Zn241   1.917   .     S
O233   Zn241   1.942   .     S
O234   Zn244   1.941   .     S
O235   Zn242   1.922   .     S
O236   Zn243   1.938   .     S
O237   Zn244   1.934   .     S
O238   Zn241   1.919   .     S
O239   Zn242   1.948   .     S
O240   Zn243   1.943   .     S
C245   O298    1.271   .     A
C245   C251    1.440   .     S
C245   O296    1.273   .     A
C246   H278    1.081   .     S
C246   C260    1.383   .     A
C246   C273    1.406   .     A
C247   H277    1.086   .     S
C247   C259    1.396   .     A
C247   C260    1.389   .     A
C248   O297    1.280   .     A
C248   O299    1.280   .     A
C248   C250    1.459   .     S
C249   C272    1.428   .     A
C249   C258    1.487   .     S
C249   C261    1.415   .     A
C250   C312    1.341   .     S
C250   C331    1.452   .     S
C252   C255    1.460   .     S
C252   C436    1.355   .     S
C252   C445    1.454   .     S
C253   C254    1.430   .     S
C254   O294    1.276   .     A
C254   O300    1.275   .     A
C255   O295    1.262   .     A
C255   O301    1.270   .     A
C256   C261    1.388   .     A
C256   C816    1.391   .     S
C256   H829    1.086   .     S
C257   O292    1.272   .     A
C257   C260    1.452   .     S
C257   O290    1.279   .     A
C258   O291    1.285   .     A
C258   O293    1.291   .     A
C259   C814    1.445   1_554 S
C259   C823    1.432   1_554 S
C261   C266    1.446   .     S
C262   N281    1.157   .     T
C263   N282    1.158   .     T
C263   C436    1.450   .     S
C264   N283    1.158   .     T
C264   C275    1.452   .     S
C265   N284    1.158   .     T
C265   C808    1.445   .     S
C266   N285    1.157   .     T
C267   C268    1.447   .     S
C267   C805    1.391   1_554 S
C267   C820    1.430   1_554 S
C268   N286    1.158   .     T
C269   C276    1.456   .     S
C269   N287    1.158   .     T
C270   N288    1.157   .     T
C271   C272    1.422   .     A
C271   C816    1.430   .     S
C271   C822    1.425   .     S
C272   C276    1.420   .     A
C273   C820    1.425   1_554 S
C273   C823    1.430   1_554 S
C274   C275    1.421   .     A
C274   C808    1.432   .     S
C274   C822    1.430   .     S
C275   C276    1.406   .     A
H279   C312    1.086   .     S
H280   C805    1.086   1_554 S
O289   Zn304   1.926   .     S
O289   Zn305   1.929   .     S
O289   Zn302   1.965   .     S
O289   Zn303   1.952   .     S
O290   Zn303   1.919   .     S
O291   Zn305   1.935   .     S
O292   Zn304   1.932   .     S
O293   Zn302   1.917   .     S
O294   Zn302   1.942   .     S
O295   Zn305   1.941   .     S
O296   Zn303   1.922   .     S
O297   Zn304   1.938   .     S
O298   Zn305   1.934   .     S
O299   Zn302   1.919   .     S
O300   Zn303   1.948   .     S
O301   Zn304   1.943   .     S
C306   O359    1.271   .     A
C306   C312    1.440   .     S
C306   O357    1.273   .     A
C307   H339    1.081   .     S
C307   C321    1.383   .     A
C307   C334    1.406   .     A
C308   H338    1.086   .     S
C308   C320    1.396   .     A
C308   C321    1.389   .     A
C309   O358    1.280   .     A
C309   O360    1.280   .     A
C309   C311    1.459   .     S
C310   C333    1.428   .     A
C310   C319    1.487   .     S
C310   C322    1.415   .     A
C311   C190    1.341   1_655 S
C311   C209    1.452   1_655 S
C313   C316    1.460   .     S
C313   C497    1.355   .     S
C313   C506    1.454   .     S
C314   C315    1.430   .     S
C315   O355    1.276   .     A
C315   O361    1.275   .     A
C316   O356    1.262   .     A
C316   O362    1.270   .     A
C317   C322    1.388   .     A
C317   C877    1.391   .     S
C317   H890    1.086   .     S
C318   O353    1.272   .     A
C318   C321    1.452   .     S
C318   O351    1.279   .     A
C319   O352    1.285   .     A
C319   O354    1.291   .     A
C320   C875    1.445   1_554 S
C320   C884    1.432   1_554 S
C322   C327    1.446   .     S
C323   N342    1.157   .     T
C324   N343    1.158   .     T
C324   C497    1.450   .     S
C325   N344    1.158   .     T
C325   C336    1.452   .     S
C326   N345    1.158   .     T
C326   C869    1.445   .     S
C327   N346    1.157   .     T
C328   C329    1.447   .     S
C328   C866    1.391   1_554 S
C328   C881    1.430   1_554 S
C329   N347    1.158   .     T
C330   C337    1.456   .     S
C330   N348    1.158   .     T
C331   N349    1.157   .     T
C332   C333    1.422   .     A
C332   C877    1.430   .     S
C332   C883    1.425   .     S
C333   C337    1.420   .     A
C334   C881    1.425   1_554 S
C334   C884    1.430   1_554 S
C335   C336    1.421   .     A
C335   C869    1.432   .     S
C335   C883    1.430   .     S
C336   C337    1.406   .     A
H340   C190    1.086   1_655 S
H341   C866    1.086   1_554 S
O350   Zn365   1.926   .     S
O350   Zn366   1.929   .     S
O350   Zn363   1.965   .     S
O350   Zn364   1.952   .     S
O351   Zn364   1.919   .     S
O352   Zn366   1.935   .     S
O353   Zn365   1.932   .     S
O354   Zn363   1.917   .     S
O355   Zn363   1.942   .     S
O356   Zn366   1.941   .     S
O357   Zn364   1.922   .     S
O358   Zn365   1.938   .     S
O359   Zn366   1.934   .     S
O360   Zn363   1.919   .     S
O361   Zn364   1.948   .     S
O362   Zn365   1.943   .     S
C367   O420    1.271   .     A
C367   C373    1.440   .     S
C367   O418    1.273   .     A
C368   H400    1.081   .     S
C368   C382    1.383   .     A
C368   C395    1.406   .     A
C369   H399    1.086   .     S
C369   C381    1.396   .     A
C369   C382    1.389   .     A
C370   O419    1.280   .     A
C370   O421    1.280   .     A
C370   C372    1.459   .     S
C371   C394    1.428   .     A
C371   C380    1.487   .     S
C371   C383    1.415   .     A
C372   C434    1.341   .     S
C372   C453    1.452   .     S
C373   C494    1.341   1_455 S
C373   H523    1.086   1_455 S
C374   C377    1.460   .     S
C374   C9      1.355   1_565 S
C374   C18     1.454   1_565 S
C375   C376    1.430   .     S
C376   O416    1.276   .     A
C376   O422    1.275   .     A
C377   O417    1.262   .     A
C377   O423    1.270   .     A
C378   C383    1.388   .     A
C378   C938    1.391   .     S
C378   H951    1.086   .     S
C379   O414    1.272   .     A
C379   C382    1.452   .     S
C379   O412    1.279   .     A
C380   O413    1.285   .     A
C380   O415    1.291   .     A
C381   C936    1.445   1_554 S
C381   C945    1.432   1_554 S
C383   C388    1.446   .     S
C384   N403    1.157   .     T
C385   N404    1.158   .     T
C385   C9      1.450   1_565 S
C386   N405    1.158   .     T
C386   C397    1.452   .     S
C387   N406    1.158   .     T
C387   C930    1.445   .     S
C388   N407    1.157   .     T
C389   C390    1.447   .     S
C389   C927    1.391   1_554 S
C389   C942    1.430   1_554 S
C390   N408    1.158   .     T
C391   C398    1.456   .     S
C391   N409    1.158   .     T
C392   N410    1.157   .     T
C392   C494    1.452   1_455 S
C393   C394    1.422   .     A
C393   C938    1.430   .     S
C393   C944    1.425   .     S
C394   C398    1.420   .     A
C395   C942    1.425   1_554 S
C395   C945    1.430   1_554 S
C396   C397    1.421   .     A
C396   C930    1.432   .     S
C396   C944    1.430   .     S
C397   C398    1.406   .     A
H401   C434    1.086   .     S
H402   C927    1.086   1_554 S
O411   Zn426   1.926   .     S
O411   Zn427   1.929   .     S
O411   Zn424   1.965   .     S
O411   Zn425   1.952   .     S
O412   Zn425   1.919   .     S
O413   Zn427   1.935   .     S
O414   Zn426   1.932   .     S
O415   Zn424   1.917   .     S
O416   Zn424   1.942   .     S
O417   Zn427   1.941   .     S
O418   Zn425   1.922   .     S
O419   Zn426   1.938   .     S
O420   Zn427   1.934   .     S
O421   Zn424   1.919   .     S
O422   Zn425   1.948   .     S
O423   Zn426   1.943   .     S
C428   O481    1.271   .     A
C428   C434    1.440   .     S
C428   O479    1.273   .     A
C429   H461    1.081   .     S
C429   C443    1.383   .     A
C429   C456    1.406   .     A
C430   H460    1.086   .     S
C430   C442    1.396   .     A
C430   C443    1.389   .     A
C431   O480    1.280   .     A
C431   O482    1.280   .     A
C431   C433    1.459   .     S
C432   C455    1.428   .     A
C432   C441    1.487   .     S
C432   C444    1.415   .     A
C433   C495    1.341   .     S
C433   C514    1.452   .     S
C435   C438    1.460   .     S
C435   C70     1.355   1_565 S
C435   C79     1.454   1_565 S
C436   C437    1.430   .     S
C437   O477    1.276   .     A
C437   O483    1.275   .     A
C438   O478    1.262   .     A
C438   O484    1.270   .     A
C439   C444    1.388   .     A
C439   C999    1.391   .     S
C439   H1012   1.086   .     S
C440   O475    1.272   .     A
C440   C443    1.452   .     S
C440   O473    1.279   .     A
C441   O474    1.285   .     A
C441   O476    1.291   .     A
C442   C997    1.445   1_554 S
C442   C1006   1.432   1_554 S
C444   C449    1.446   .     S
C445   N464    1.157   .     T
C446   N465    1.158   .     T
C446   C70     1.450   1_565 S
C447   N466    1.158   .     T
C447   C458    1.452   .     S
C448   N467    1.158   .     T
C448   C991    1.445   .     S
C449   N468    1.157   .     T
C450   C451    1.447   .     S
C450   C988    1.391   1_554 S
C450   C1003   1.430   1_554 S
C451   N469    1.158   .     T
C452   C459    1.456   .     S
C452   N470    1.158   .     T
C453   N471    1.157   .     T
C454   C455    1.422   .     A
C454   C999    1.430   .     S
C454   C1005   1.425   .     S
C455   C459    1.420   .     A
C456   C1003   1.425   1_554 S
C456   C1006   1.430   1_554 S
C457   C458    1.421   .     A
C457   C991    1.432   .     S
C457   C1005   1.430   .     S
C458   C459    1.406   .     A
H462   C495    1.086   .     S
H463   C988    1.086   1_554 S
O472   Zn487   1.926   .     S
O472   Zn488   1.929   .     S
O472   Zn485   1.965   .     S
O472   Zn486   1.952   .     S
O473   Zn486   1.919   .     S
O474   Zn488   1.935   .     S
O475   Zn487   1.932   .     S
O476   Zn485   1.917   .     S
O477   Zn485   1.942   .     S
O478   Zn488   1.941   .     S
O479   Zn486   1.922   .     S
O480   Zn487   1.938   .     S
O481   Zn488   1.934   .     S
O482   Zn485   1.919   .     S
O483   Zn486   1.948   .     S
O484   Zn487   1.943   .     S
C489   O542    1.271   .     A
C489   C495    1.440   .     S
C489   O540    1.273   .     A
C490   H522    1.081   .     S
C490   C504    1.383   .     A
C490   C517    1.406   .     A
C491   H521    1.086   .     S
C491   C503    1.396   .     A
C491   C504    1.389   .     A
C492   O541    1.280   .     A
C492   O543    1.280   .     A
C492   C494    1.459   .     S
C493   C516    1.428   .     A
C493   C502    1.487   .     S
C493   C505    1.415   .     A
C494   C373    1.341   1_655 S
C494   C392    1.452   1_655 S
C496   C499    1.460   .     S
C496   C131    1.355   1_565 S
C496   C140    1.454   1_565 S
C497   C498    1.430   .     S
C498   O538    1.276   .     A
C498   O544    1.275   .     A
C499   O539    1.262   .     A
C499   O545    1.270   .     A
C500   C505    1.388   .     A
C500   C1060   1.391   .     S
C500   H1073   1.086   .     S
C501   O536    1.272   .     A
C501   C504    1.452   .     S
C501   O534    1.279   .     A
C502   O535    1.285   .     A
C502   O537    1.291   .     A
C503   C1058   1.445   1_554 S
C503   C1067   1.432   1_554 S
C505   C510    1.446   .     S
C506   N525    1.157   .     T
C507   N526    1.158   .     T
C507   C131    1.450   1_565 S
C508   N527    1.158   .     T
C508   C519    1.452   .     S
C509   N528    1.158   .     T
C509   C1052   1.445   .     S
C510   N529    1.157   .     T
C511   C512    1.447   .     S
C511   C1049   1.391   1_554 S
C511   C1064   1.430   1_554 S
C512   N530    1.158   .     T
C513   C520    1.456   .     S
C513   N531    1.158   .     T
C514   N532    1.157   .     T
C515   C516    1.422   .     A
C515   C1060   1.430   .     S
C515   C1066   1.425   .     S
C516   C520    1.420   .     A
C517   C1064   1.425   1_554 S
C517   C1067   1.430   1_554 S
C518   C519    1.421   .     A
C518   C1052   1.432   .     S
C518   C1066   1.430   .     S
C519   C520    1.406   .     A
H523   C373    1.086   1_655 S
H524   C1049   1.086   1_554 S
O533   Zn548   1.926   .     S
O533   Zn549   1.929   .     S
O533   Zn546   1.965   .     S
O533   Zn547   1.952   .     S
O534   Zn547   1.919   .     S
O535   Zn549   1.935   .     S
O536   Zn548   1.932   .     S
O537   Zn546   1.917   .     S
O538   Zn546   1.942   .     S
O539   Zn549   1.941   .     S
O540   Zn547   1.922   .     S
O541   Zn548   1.938   .     S
O542   Zn549   1.934   .     S
O543   Zn546   1.919   .     S
O544   Zn547   1.948   .     S
O545   Zn548   1.943   .     S
C550   O603    1.271   .     A
C550   C556    1.440   .     S
C550   O601    1.273   .     A
C551   H583    1.081   .     S
C551   C565    1.383   .     A
C551   C578    1.406   .     A
C552   H582    1.086   .     S
C552   C564    1.396   .     A
C552   C565    1.389   .     A
C553   O602    1.280   .     A
C553   O604    1.280   .     A
C553   C555    1.459   .     S
C554   C577    1.428   .     A
C554   C563    1.487   .     S
C554   C566    1.415   .     A
C555   C617    1.341   .     S
C555   C636    1.452   .     S
C556   C677    1.341   1_455 S
C556   H706    1.086   1_455 S
C557   C560    1.460   .     S
C557   C741    1.355   .     S
C557   C750    1.454   .     S
C558   C559    1.430   .     S
C558   C923    1.355   1_545 S
C558   C934    1.450   1_545 S
C559   O599    1.276   .     A
C559   O605    1.275   .     A
C560   O600    1.262   .     A
C560   O606    1.270   .     A
C561   C566    1.388   .     A
C561   C23     1.391   1_556 S
C561   H36     1.086   1_556 S
C562   O597    1.272   .     A
C562   C565    1.452   .     S
C562   O595    1.279   .     A
C563   O596    1.285   .     A
C563   O598    1.291   .     A
C566   C571    1.446   .     S
C567   N586    1.157   .     T
C567   C923    1.454   1_545 S
C568   N587    1.158   .     T
C568   C741    1.450   .     S
C569   N588    1.158   .     T
C569   C580    1.452   .     S
C570   N589    1.158   .     T
C570   C15     1.445   1_556 S
C571   N590    1.157   .     T
C572   C573    1.447   .     S
C573   N591    1.158   .     T
C574   C581    1.456   .     S
C574   N592    1.158   .     T
C575   N593    1.157   .     T
C575   C677    1.452   1_455 S
C576   C577    1.422   .     A
C576   C23     1.430   1_556 S
C576   C29     1.425   1_556 S
C577   C581    1.420   .     A
C579   C580    1.421   .     A
C579   C15     1.432   1_556 S
C579   C29     1.430   1_556 S
C580   C581    1.406   .     A
H584   C617    1.086   .     S
O594   Zn609   1.926   .     S
O594   Zn610   1.929   .     S
O594   Zn607   1.965   .     S
O594   Zn608   1.952   .     S
O595   Zn608   1.919   .     S
O596   Zn610   1.935   .     S
O597   Zn609   1.932   .     S
O598   Zn607   1.917   .     S
O599   Zn607   1.942   .     S
O600   Zn610   1.941   .     S
O601   Zn608   1.922   .     S
O602   Zn609   1.938   .     S
O603   Zn610   1.934   .     S
O604   Zn607   1.919   .     S
O605   Zn608   1.948   .     S
O606   Zn609   1.943   .     S
C611   O664    1.271   .     A
C611   C617    1.440   .     S
C611   O662    1.273   .     A
C612   H644    1.081   .     S
C612   C626    1.383   .     A
C612   C639    1.406   .     A
C613   H643    1.086   .     S
C613   C625    1.396   .     A
C613   C626    1.389   .     A
C614   O663    1.280   .     A
C614   O665    1.280   .     A
C614   C616    1.459   .     S
C615   C638    1.428   .     A
C615   C624    1.487   .     S
C615   C627    1.415   .     A
C616   C678    1.341   .     S
C616   C697    1.452   .     S
C618   C621    1.460   .     S
C618   C802    1.355   .     S
C618   C811    1.454   .     S
C619   C620    1.430   .     S
C619   C984    1.355   1_545 S
C619   C995    1.450   1_545 S
C620   O660    1.276   .     A
C620   O666    1.275   .     A
C621   O661    1.262   .     A
C621   O667    1.270   .     A
C622   C627    1.388   .     A
C622   C84     1.391   1_556 S
C622   H97     1.086   1_556 S
C623   O658    1.272   .     A
C623   C626    1.452   .     S
C623   O656    1.279   .     A
C624   O657    1.285   .     A
C624   O659    1.291   .     A
C627   C632    1.446   .     S
C628   N647    1.157   .     T
C628   C984    1.454   1_545 S
C629   N648    1.158   .     T
C629   C802    1.450   .     S
C630   N649    1.158   .     T
C630   C641    1.452   .     S
C631   N650    1.158   .     T
C631   C76     1.445   1_556 S
C632   N651    1.157   .     T
C633   C634    1.447   .     S
C634   N652    1.158   .     T
C635   C642    1.456   .     S
C635   N653    1.158   .     T
C636   N654    1.157   .     T
C637   C638    1.422   .     A
C637   C84     1.430   1_556 S
C637   C90     1.425   1_556 S
C638   C642    1.420   .     A
C640   C641    1.421   .     A
C640   C76     1.432   1_556 S
C640   C90     1.430   1_556 S
C641   C642    1.406   .     A
H645   C678    1.086   .     S
O655   Zn670   1.926   .     S
O655   Zn671   1.929   .     S
O655   Zn668   1.965   .     S
O655   Zn669   1.952   .     S
O656   Zn669   1.919   .     S
O657   Zn671   1.935   .     S
O658   Zn670   1.932   .     S
O659   Zn668   1.917   .     S
O660   Zn668   1.942   .     S
O661   Zn671   1.941   .     S
O662   Zn669   1.922   .     S
O663   Zn670   1.938   .     S
O664   Zn671   1.934   .     S
O665   Zn668   1.919   .     S
O666   Zn669   1.948   .     S
O667   Zn670   1.943   .     S
C672   O725    1.271   .     A
C672   C678    1.440   .     S
C672   O723    1.273   .     A
C673   H705    1.081   .     S
C673   C687    1.383   .     A
C673   C700    1.406   .     A
C674   H704    1.086   .     S
C674   C686    1.396   .     A
C674   C687    1.389   .     A
C675   O724    1.280   .     A
C675   O726    1.280   .     A
C675   C677    1.459   .     S
C676   C699    1.428   .     A
C676   C685    1.487   .     S
C676   C688    1.415   .     A
C677   C556    1.341   1_655 S
C677   C575    1.452   1_655 S
C679   C682    1.460   .     S
C679   C863    1.355   .     S
C679   C872    1.454   .     S
C680   C681    1.430   .     S
C680   C1045   1.355   1_545 S
C680   C1056   1.450   1_545 S
C681   O721    1.276   .     A
C681   O727    1.275   .     A
C682   O722    1.262   .     A
C682   O728    1.270   .     A
C683   C688    1.388   .     A
C683   C145    1.391   1_556 S
C683   H158    1.086   1_556 S
C684   O719    1.272   .     A
C684   C687    1.452   .     S
C684   O717    1.279   .     A
C685   O718    1.285   .     A
C685   O720    1.291   .     A
C688   C693    1.446   .     S
C689   N708    1.157   .     T
C689   C1045   1.454   1_545 S
C690   N709    1.158   .     T
C690   C863    1.450   .     S
C691   N710    1.158   .     T
C691   C702    1.452   .     S
C692   N711    1.158   .     T
C692   C137    1.445   1_556 S
C693   N712    1.157   .     T
C694   C695    1.447   .     S
C695   N713    1.158   .     T
C696   C703    1.456   .     S
C696   N714    1.158   .     T
C697   N715    1.157   .     T
C698   C699    1.422   .     A
C698   C145    1.430   1_556 S
C698   C151    1.425   1_556 S
C699   C703    1.420   .     A
C701   C702    1.421   .     A
C701   C137    1.432   1_556 S
C701   C151    1.430   1_556 S
C702   C703    1.406   .     A
H706   C556    1.086   1_655 S
O716   Zn731   1.926   .     S
O716   Zn732   1.929   .     S
O716   Zn729   1.965   .     S
O716   Zn730   1.952   .     S
O717   Zn730   1.919   .     S
O718   Zn732   1.935   .     S
O719   Zn731   1.932   .     S
O720   Zn729   1.917   .     S
O721   Zn729   1.942   .     S
O722   Zn732   1.941   .     S
O723   Zn730   1.922   .     S
O724   Zn731   1.938   .     S
O725   Zn732   1.934   .     S
O726   Zn729   1.919   .     S
O727   Zn730   1.948   .     S
O728   Zn731   1.943   .     S
C733   O786    1.271   .     A
C733   C739    1.440   .     S
C733   O784    1.273   .     A
C734   H766    1.081   .     S
C734   C748    1.383   .     A
C734   C761    1.406   .     A
C735   H765    1.086   .     S
C735   C747    1.396   .     A
C735   C748    1.389   .     A
C736   O785    1.280   .     A
C736   O787    1.280   .     A
C736   C738    1.459   .     S
C737   C760    1.428   .     A
C737   C746    1.487   .     S
C737   C749    1.415   .     A
C738   C800    1.341   .     S
C738   C819    1.452   .     S
C739   C860    1.341   1_455 S
C739   H889    1.086   1_455 S
C740   C743    1.460   .     S
C740   C924    1.355   .     S
C740   C933    1.454   .     S
C741   C742    1.430   .     S
C742   O782    1.276   .     A
C742   O788    1.275   .     A
C743   O783    1.262   .     A
C743   O789    1.270   .     A
C744   C749    1.388   .     A
C744   C206    1.391   1_556 S
C744   H219    1.086   1_556 S
C745   O780    1.272   .     A
C745   C748    1.452   .     S
C745   O778    1.279   .     A
C746   O779    1.285   .     A
C746   O781    1.291   .     A
C749   C754    1.446   .     S
C750   N769    1.157   .     T
C751   N770    1.158   .     T
C751   C924    1.450   .     S
C752   N771    1.158   .     T
C752   C763    1.452   .     S
C753   N772    1.158   .     T
C753   C198    1.445   1_556 S
C754   N773    1.157   .     T
C755   C756    1.447   .     S
C756   N774    1.158   .     T
C757   C764    1.456   .     S
C757   N775    1.158   .     T
C758   N776    1.157   .     T
C758   C860    1.452   1_455 S
C759   C760    1.422   .     A
C759   C206    1.430   1_556 S
C759   C212    1.425   1_556 S
C760   C764    1.420   .     A
C762   C763    1.421   .     A
C762   C198    1.432   1_556 S
C762   C212    1.430   1_556 S
C763   C764    1.406   .     A
H767   C800    1.086   .     S
O777   Zn792   1.926   .     S
O777   Zn793   1.929   .     S
O777   Zn790   1.965   .     S
O777   Zn791   1.952   .     S
O778   Zn791   1.919   .     S
O779   Zn793   1.935   .     S
O780   Zn792   1.932   .     S
O781   Zn790   1.917   .     S
O782   Zn790   1.942   .     S
O783   Zn793   1.941   .     S
O784   Zn791   1.922   .     S
O785   Zn792   1.938   .     S
O786   Zn793   1.934   .     S
O787   Zn790   1.919   .     S
O788   Zn791   1.948   .     S
O789   Zn792   1.943   .     S
C794   O847    1.271   .     A
C794   C800    1.440   .     S
C794   O845    1.273   .     A
C795   H827    1.081   .     S
C795   C809    1.383   .     A
C795   C822    1.406   .     A
C796   H826    1.086   .     S
C796   C808    1.396   .     A
C796   C809    1.389   .     A
C797   O846    1.280   .     A
C797   O848    1.280   .     A
C797   C799    1.459   .     S
C798   C821    1.428   .     A
C798   C807    1.487   .     S
C798   C810    1.415   .     A
C799   C861    1.341   .     S
C799   C880    1.452   .     S
C801   C804    1.460   .     S
C801   C985    1.355   .     S
C801   C994    1.454   .     S
C802   C803    1.430   .     S
C803   O843    1.276   .     A
C803   O849    1.275   .     A
C804   O844    1.262   .     A
C804   O850    1.270   .     A
C805   C810    1.388   .     A
C805   C267    1.391   1_556 S
C805   H280    1.086   1_556 S
C806   O841    1.272   .     A
C806   C809    1.452   .     S
C806   O839    1.279   .     A
C807   O840    1.285   .     A
C807   O842    1.291   .     A
C810   C815    1.446   .     S
C811   N830    1.157   .     T
C812   N831    1.158   .     T
C812   C985    1.450   .     S
C813   N832    1.158   .     T
C813   C824    1.452   .     S
C814   N833    1.158   .     T
C814   C259    1.445   1_556 S
C815   N834    1.157   .     T
C816   C817    1.447   .     S
C817   N835    1.158   .     T
C818   C825    1.456   .     S
C818   N836    1.158   .     T
C819   N837    1.157   .     T
C820   C821    1.422   .     A
C820   C267    1.430   1_556 S
C820   C273    1.425   1_556 S
C821   C825    1.420   .     A
C823   C824    1.421   .     A
C823   C259    1.432   1_556 S
C823   C273    1.430   1_556 S
C824   C825    1.406   .     A
H828   C861    1.086   .     S
O838   Zn853   1.926   .     S
O838   Zn854   1.929   .     S
O838   Zn851   1.965   .     S
O838   Zn852   1.952   .     S
O839   Zn852   1.919   .     S
O840   Zn854   1.935   .     S
O841   Zn853   1.932   .     S
O842   Zn851   1.917   .     S
O843   Zn851   1.942   .     S
O844   Zn854   1.941   .     S
O845   Zn852   1.922   .     S
O846   Zn853   1.938   .     S
O847   Zn854   1.934   .     S
O848   Zn851   1.919   .     S
O849   Zn852   1.948   .     S
O850   Zn853   1.943   .     S
C855   O908    1.271   .     A
C855   C861    1.440   .     S
C855   O906    1.273   .     A
C856   H888    1.081   .     S
C856   C870    1.383   .     A
C856   C883    1.406   .     A
C857   H887    1.086   .     S
C857   C869    1.396   .     A
C857   C870    1.389   .     A
C858   O907    1.280   .     A
C858   O909    1.280   .     A
C858   C860    1.459   .     S
C859   C882    1.428   .     A
C859   C868    1.487   .     S
C859   C871    1.415   .     A
C860   C739    1.341   1_655 S
C860   C758    1.452   1_655 S
C862   C865    1.460   .     S
C862   C1046   1.355   .     S
C862   C1055   1.454   .     S
C863   C864    1.430   .     S
C864   O904    1.276   .     A
C864   O910    1.275   .     A
C865   O905    1.262   .     A
C865   O911    1.270   .     A
C866   C871    1.388   .     A
C866   C328    1.391   1_556 S
C866   H341    1.086   1_556 S
C867   O902    1.272   .     A
C867   C870    1.452   .     S
C867   O900    1.279   .     A
C868   O901    1.285   .     A
C868   O903    1.291   .     A
C871   C876    1.446   .     S
C872   N891    1.157   .     T
C873   N892    1.158   .     T
C873   C1046   1.450   .     S
C874   N893    1.158   .     T
C874   C885    1.452   .     S
C875   N894    1.158   .     T
C875   C320    1.445   1_556 S
C876   N895    1.157   .     T
C877   C878    1.447   .     S
C878   N896    1.158   .     T
C879   C886    1.456   .     S
C879   N897    1.158   .     T
C880   N898    1.157   .     T
C881   C882    1.422   .     A
C881   C328    1.430   1_556 S
C881   C334    1.425   1_556 S
C882   C886    1.420   .     A
C884   C885    1.421   .     A
C884   C320    1.432   1_556 S
C884   C334    1.430   1_556 S
C885   C886    1.406   .     A
H889   C739    1.086   1_655 S
O899   Zn914   1.926   .     S
O899   Zn915   1.929   .     S
O899   Zn912   1.965   .     S
O899   Zn913   1.952   .     S
O900   Zn913   1.919   .     S
O901   Zn915   1.935   .     S
O902   Zn914   1.932   .     S
O903   Zn912   1.917   .     S
O904   Zn912   1.942   .     S
O905   Zn915   1.941   .     S
O906   Zn913   1.922   .     S
O907   Zn914   1.938   .     S
O908   Zn915   1.934   .     S
O909   Zn912   1.919   .     S
O910   Zn913   1.948   .     S
O911   Zn914   1.943   .     S
C916   O969    1.271   .     A
C916   C922    1.440   .     S
C916   O967    1.273   .     A
C917   H949    1.081   .     S
C917   C931    1.383   .     A
C917   C944    1.406   .     A
C918   H948    1.086   .     S
C918   C930    1.396   .     A
C918   C931    1.389   .     A
C919   O968    1.280   .     A
C919   O970    1.280   .     A
C919   C921    1.459   .     S
C920   C943    1.428   .     A
C920   C929    1.487   .     S
C920   C932    1.415   .     A
C921   C983    1.341   .     S
C921   C1002   1.452   .     S
C922   C1043   1.341   1_455 S
C922   H1072   1.086   1_455 S
C923   C926    1.460   .     S
C923   C558    1.355   1_565 S
C923   C567    1.454   1_565 S
C924   C925    1.430   .     S
C925   O965    1.276   .     A
C925   O971    1.275   .     A
C926   O966    1.262   .     A
C926   O972    1.270   .     A
C927   C932    1.388   .     A
C927   C389    1.391   1_556 S
C927   H402    1.086   1_556 S
C928   O963    1.272   .     A
C928   C931    1.452   .     S
C928   O961    1.279   .     A
C929   O962    1.285   .     A
C929   O964    1.291   .     A
C932   C937    1.446   .     S
C933   N952    1.157   .     T
C934   N953    1.158   .     T
C934   C558    1.450   1_565 S
C935   N954    1.158   .     T
C935   C946    1.452   .     S
C936   N955    1.158   .     T
C936   C381    1.445   1_556 S
C937   N956    1.157   .     T
C938   C939    1.447   .     S
C939   N957    1.158   .     T
C940   C947    1.456   .     S
C940   N958    1.158   .     T
C941   N959    1.157   .     T
C941   C1043   1.452   1_455 S
C942   C943    1.422   .     A
C942   C389    1.430   1_556 S
C942   C395    1.425   1_556 S
C943   C947    1.420   .     A
C945   C946    1.421   .     A
C945   C381    1.432   1_556 S
C945   C395    1.430   1_556 S
C946   C947    1.406   .     A
H950   C983    1.086   .     S
O960   Zn975   1.926   .     S
O960   Zn976   1.929   .     S
O960   Zn973   1.965   .     S
O960   Zn974   1.952   .     S
O961   Zn974   1.919   .     S
O962   Zn976   1.935   .     S
O963   Zn975   1.932   .     S
O964   Zn973   1.917   .     S
O965   Zn973   1.942   .     S
O966   Zn976   1.941   .     S
O967   Zn974   1.922   .     S
O968   Zn975   1.938   .     S
O969   Zn976   1.934   .     S
O970   Zn973   1.919   .     S
O971   Zn974   1.948   .     S
O972   Zn975   1.943   .     S
C977   O1030   1.271   .     A
C977   C983    1.440   .     S
C977   O1028   1.273   .     A
C978   H1010   1.081   .     S
C978   C992    1.383   .     A
C978   C1005   1.406   .     A
C979   H1009   1.086   .     S
C979   C991    1.396   .     A
C979   C992    1.389   .     A
C980   O1029   1.280   .     A
C980   O1031   1.280   .     A
C980   C982    1.459   .     S
C981   C1004   1.428   .     A
C981   C990    1.487   .     S
C981   C993    1.415   .     A
C982   C1044   1.341   .     S
C982   C1063   1.452   .     S
C984   C987    1.460   .     S
C984   C619    1.355   1_565 S
C984   C628    1.454   1_565 S
C985   C986    1.430   .     S
C986   O1026   1.276   .     A
C986   O1032   1.275   .     A
C987   O1027   1.262   .     A
C987   O1033   1.270   .     A
C988   C993    1.388   .     A
C988   C450    1.391   1_556 S
C988   H463    1.086   1_556 S
C989   O1024   1.272   .     A
C989   C992    1.452   .     S
C989   O1022   1.279   .     A
C990   O1023   1.285   .     A
C990   O1025   1.291   .     A
C993   C998    1.446   .     S
C994   N1013   1.157   .     T
C995   N1014   1.158   .     T
C995   C619    1.450   1_565 S
C996   N1015   1.158   .     T
C996   C1007   1.452   .     S
C997   N1016   1.158   .     T
C997   C442    1.445   1_556 S
C998   N1017   1.157   .     T
C999   C1000   1.447   .     S
C1000  N1018   1.158   .     T
C1001  C1008   1.456   .     S
C1001  N1019   1.158   .     T
C1002  N1020   1.157   .     T
C1003  C1004   1.422   .     A
C1003  C450    1.430   1_556 S
C1003  C456    1.425   1_556 S
C1004  C1008   1.420   .     A
C1006  C1007   1.421   .     A
C1006  C442    1.432   1_556 S
C1006  C456    1.430   1_556 S
C1007  C1008   1.406   .     A
H1011  C1044   1.086   .     S
O1021  Zn1036  1.926   .     S
O1021  Zn1037  1.929   .     S
O1021  Zn1034  1.965   .     S
O1021  Zn1035  1.952   .     S
O1022  Zn1035  1.919   .     S
O1023  Zn1037  1.935   .     S
O1024  Zn1036  1.932   .     S
O1025  Zn1034  1.917   .     S
O1026  Zn1034  1.942   .     S
O1027  Zn1037  1.941   .     S
O1028  Zn1035  1.922   .     S
O1029  Zn1036  1.938   .     S
O1030  Zn1037  1.934   .     S
O1031  Zn1034  1.919   .     S
O1032  Zn1035  1.948   .     S
O1033  Zn1036  1.943   .     S
C1038  O1091   1.271   .     A
C1038  C1044   1.440   .     S
C1038  O1089   1.273   .     A
C1039  H1071   1.081   .     S
C1039  C1053   1.383   .     A
C1039  C1066   1.406   .     A
C1040  H1070   1.086   .     S
C1040  C1052   1.396   .     A
C1040  C1053   1.389   .     A
C1041  O1090   1.280   .     A
C1041  O1092   1.280   .     A
C1041  C1043   1.459   .     S
C1042  C1065   1.428   .     A
C1042  C1051   1.487   .     S
C1042  C1054   1.415   .     A
C1043  C922    1.341   1_655 S
C1043  C941    1.452   1_655 S
C1045  C1048   1.460   .     S
C1045  C680    1.355   1_565 S
C1045  C689    1.454   1_565 S
C1046  C1047   1.430   .     S
C1047  O1087   1.276   .     A
C1047  O1093   1.275   .     A
C1048  O1088   1.262   .     A
C1048  O1094   1.270   .     A
C1049  C1054   1.388   .     A
C1049  C511    1.391   1_556 S
C1049  H524    1.086   1_556 S
C1050  O1085   1.272   .     A
C1050  C1053   1.452   .     S
C1050  O1083   1.279   .     A
C1051  O1084   1.285   .     A
C1051  O1086   1.291   .     A
C1054  C1059   1.446   .     S
C1055  N1074   1.157   .     T
C1056  N1075   1.158   .     T
C1056  C680    1.450   1_565 S
C1057  N1076   1.158   .     T
C1057  C1068   1.452   .     S
C1058  N1077   1.158   .     T
C1058  C503    1.445   1_556 S
C1059  N1078   1.157   .     T
C1060  C1061   1.447   .     S
C1061  N1079   1.158   .     T
C1062  C1069   1.456   .     S
C1062  N1080   1.158   .     T
C1063  N1081   1.157   .     T
C1064  C1065   1.422   .     A
C1064  C511    1.430   1_556 S
C1064  C517    1.425   1_556 S
C1065  C1069   1.420   .     A
C1067  C1068   1.421   .     A
C1067  C503    1.432   1_556 S
C1067  C517    1.430   1_556 S
C1068  C1069   1.406   .     A
H1072  C922    1.086   1_655 S
O1082  Zn1097  1.926   .     S
O1082  Zn1098  1.929   .     S
O1082  Zn1095  1.965   .     S
O1082  Zn1096  1.952   .     S
O1083  Zn1096  1.919   .     S
O1084  Zn1098  1.935   .     S
O1085  Zn1097  1.932   .     S
O1086  Zn1095  1.917   .     S
O1087  Zn1095  1.942   .     S
O1088  Zn1098  1.941   .     S
O1089  Zn1096  1.922   .     S
O1090  Zn1097  1.938   .     S
O1091  Zn1098  1.934   .     S
O1092  Zn1095  1.919   .     S
O1093  Zn1096  1.948   .     S
O1094  Zn1097  1.943   .     S
