data_str_m2_o1_o17_pcu_sym.198
_audit_creation_date              2020-01-03
_audit_creation_method            'Materials Studio'
_symmetry_space_group_name_H-M    'P1'
_symmetry_Int_Tables_number       1
_symmetry_cell_setting            triclinic
loop_
_symmetry_equiv_pos_as_xyz
  x,y,z
_cell_length_a                    32.4702
_cell_length_b                    28.5281
_cell_length_c                    30.1292
_cell_angle_alpha                 89.9687
_cell_angle_beta                  91.6946
_cell_angle_gamma                 89.6071
loop_
_atom_site_label
_atom_site_type_symbol
_atom_site_fract_x
_atom_site_fract_y
_atom_site_fract_z
_atom_site_U_iso_or_equiv
_atom_site_adp_type
_atom_site_occupancy
C1     C     0.08740   0.16682   0.24969   0.00000  Uiso   1.00
C2     C     0.24593   0.16652   0.25031   0.00000  Uiso   1.00
C3     C     0.10878   0.21849   0.02553   0.00000  Uiso   1.00
C4     C     0.22454   0.11480   0.47447   0.00000  Uiso   1.00
C5     C     0.02289   0.14404   0.28454   0.00000  Uiso   1.00
C6     C     0.31044   0.18930   0.21547   0.00000  Uiso   1.00
C7     C     0.31316   0.14355   0.28447   0.00000  Uiso   1.00
C8     C     0.02017   0.18979   0.21554   0.00000  Uiso   1.00
C9     C     0.29053   0.16628   0.25003   0.00000  Uiso   1.00
C10    C     0.04280   0.16706   0.24997   0.00000  Uiso   1.00
C11    C     0.14269   0.02503   0.22004   0.00000  Uiso   1.00
C12    C     0.19064   0.30830   0.27996   0.00000  Uiso   1.00
C13    C     0.19061   0.02459   0.27998   0.00000  Uiso   1.00
C14    C     0.14273   0.30874   0.22002   0.00000  Uiso   1.00
C15    C     0.16909   0.16657   0.16448   0.00000  Uiso   1.00
C16    C     0.16425   0.16676   0.33552   0.00000  Uiso   1.00
C17    C     0.18786   0.13585   0.40700   0.00000  Uiso   1.00
C18    C     0.14545   0.19745   0.09300   0.00000  Uiso   1.00
C19    C     0.16153   0.16653   0.38386   0.00000  Uiso   1.00
C20    C     0.17182   0.16680   0.11614   0.00000  Uiso   1.00
C21    C     0.13450   0.19652   0.40692   0.00000  Uiso   1.00
C22    C     0.19887   0.13684   0.09309   0.00000  Uiso   1.00
C23    C     0.13315   0.19281   0.45392   0.00000  Uiso   1.00
C24    C     0.20021   0.14053   0.04608   0.00000  Uiso   1.00
C25    C     0.16460   0.16617   0.47665   0.00000  Uiso   1.00
C26    C     0.16875   0.16716   0.02335   0.00000  Uiso   1.00
C27    C     0.19182   0.13807   0.45278   0.00000  Uiso   1.00
C28    C     0.14151   0.19524   0.04722   0.00000  Uiso   1.00
C29    C     0.10275   0.21507   0.47972   0.00000  Uiso   1.00
C30    C     0.23059   0.11825   0.02027   0.00000  Uiso   1.00
Cu31   Cu    0.16667   0.21355   0.25000   0.00000  Uiso   1.00
Cu32   Cu    0.16667   0.11978   0.25000   0.00000  Uiso   1.00
H33    H     0.20771   0.11249   0.38900   0.00000  Uiso   1.00
H34    H     0.12557   0.22078   0.11099   0.00000  Uiso   1.00
H35    H     0.08583   0.23646   0.04482   0.00000  Uiso   1.00
H36    H     0.24746   0.09680   0.45518   0.00000  Uiso   1.00
H37    H     0.12348   0.04392   0.19605   0.00000  Uiso   1.00
H38    H     0.20985   0.28942   0.30395   0.00000  Uiso   1.00
H39    H     0.20970   0.04311   0.30405   0.00000  Uiso   1.00
H40    H     0.12363   0.29022   0.19595   0.00000  Uiso   1.00
N41    N     0.16667   0.28402   0.25000   0.00000  Uiso   1.00
N42    N     0.16667   0.04931   0.25000   0.00000  Uiso   1.00
O43    O     0.10655   0.20625   0.24999   0.00000  Uiso   1.00
O44    O     0.22679   0.12709   0.25001   0.00000  Uiso   1.00
O45    O     0.22679   0.20625   0.25001   0.00000  Uiso   1.00
O46    O     0.10655   0.12709   0.25000   0.00000  Uiso   1.00
O47    O     0.16666   0.20627   0.18513   0.00000  Uiso   1.00
O48    O     0.16668   0.12707   0.31487   0.00000  Uiso   1.00
O49    O     0.16668   0.20627   0.31487   0.00000  Uiso   1.00
O50    O     0.16666   0.12707   0.18513   0.00000  Uiso   1.00
I51    I     0.10389   0.25275   0.37106   0.00000  Uiso   1.00
I52    I     0.22954   0.08067   0.12898   0.00000  Uiso   1.00
I53    I     0.04063   0.22967   0.45879   0.00000  Uiso   1.00
I54    I     0.29272   0.10363   0.04117   0.00000  Uiso   1.00
I55    I     0.05807   0.11225   0.33827   0.00000  Uiso   1.00
I56    I     0.27526   0.22110   0.16175   0.00000  Uiso   1.00
I57    I     0.28245   0.11038   0.33767   0.00000  Uiso   1.00
I58    I     0.05088   0.22297   0.16234   0.00000  Uiso   1.00
C59    C     0.42074   0.16682   0.24969   0.00000  Uiso   1.00
C60    C     0.57926   0.16652   0.25031   0.00000  Uiso   1.00
C61    C     0.44212   0.21849   0.02553   0.00000  Uiso   1.00
C62    C     0.55787   0.11480   0.47447   0.00000  Uiso   1.00
C63    C     0.35622   0.14404   0.28454   0.00000  Uiso   1.00
C64    C     0.64378   0.18930   0.21547   0.00000  Uiso   1.00
C65    C     0.64649   0.14355   0.28447   0.00000  Uiso   1.00
C66    C     0.35351   0.18979   0.21554   0.00000  Uiso   1.00
C67    C     0.62387   0.16628   0.25003   0.00000  Uiso   1.00
C68    C     0.37613   0.16706   0.24997   0.00000  Uiso   1.00
C69    C     0.47602   0.02503   0.22004   0.00000  Uiso   1.00
C70    C     0.52398   0.30830   0.27996   0.00000  Uiso   1.00
C71    C     0.52394   0.02459   0.27998   0.00000  Uiso   1.00
C72    C     0.47606   0.30874   0.22002   0.00000  Uiso   1.00
C73    C     0.50242   0.16657   0.16448   0.00000  Uiso   1.00
C74    C     0.49758   0.16676   0.33552   0.00000  Uiso   1.00
C75    C     0.52119   0.13585   0.40700   0.00000  Uiso   1.00
C76    C     0.47879   0.19745   0.09300   0.00000  Uiso   1.00
C77    C     0.49486   0.16653   0.38386   0.00000  Uiso   1.00
C78    C     0.50515   0.16680   0.11614   0.00000  Uiso   1.00
C79    C     0.46783   0.19652   0.40692   0.00000  Uiso   1.00
C80    C     0.53221   0.13684   0.09309   0.00000  Uiso   1.00
C81    C     0.46648   0.19281   0.45392   0.00000  Uiso   1.00
C82    C     0.53355   0.14053   0.04608   0.00000  Uiso   1.00
C83    C     0.49793   0.16617   0.47665   0.00000  Uiso   1.00
C84    C     0.50208   0.16716   0.02335   0.00000  Uiso   1.00
C85    C     0.52515   0.13807   0.45278   0.00000  Uiso   1.00
C86    C     0.47484   0.19524   0.04722   0.00000  Uiso   1.00
C87    C     0.43608   0.21507   0.47972   0.00000  Uiso   1.00
C88    C     0.56393   0.11825   0.02027   0.00000  Uiso   1.00
Cu89   Cu    0.50000   0.21355   0.25000   0.00000  Uiso   1.00
Cu90   Cu    0.50000   0.11978   0.25000   0.00000  Uiso   1.00
H91    H     0.54105   0.11249   0.38900   0.00000  Uiso   1.00
H92    H     0.45890   0.22078   0.11099   0.00000  Uiso   1.00
H93    H     0.41917   0.23646   0.04482   0.00000  Uiso   1.00
H94    H     0.58080   0.09680   0.45518   0.00000  Uiso   1.00
H95    H     0.45681   0.04392   0.19605   0.00000  Uiso   1.00
H96    H     0.54319   0.28942   0.30395   0.00000  Uiso   1.00
H97    H     0.54303   0.04311   0.30405   0.00000  Uiso   1.00
H98    H     0.45697   0.29022   0.19595   0.00000  Uiso   1.00
N99    N     0.50000   0.28402   0.25000   0.00000  Uiso   1.00
N100   N     0.50000   0.04931   0.25000   0.00000  Uiso   1.00
O101   O     0.43988   0.20625   0.24999   0.00000  Uiso   1.00
O102   O     0.56012   0.12709   0.25001   0.00000  Uiso   1.00
O103   O     0.56012   0.20625   0.25001   0.00000  Uiso   1.00
O104   O     0.43988   0.12709   0.25000   0.00000  Uiso   1.00
O105   O     0.49999   0.20627   0.18513   0.00000  Uiso   1.00
O106   O     0.50001   0.12707   0.31487   0.00000  Uiso   1.00
O107   O     0.50001   0.20627   0.31487   0.00000  Uiso   1.00
O108   O     0.49999   0.12707   0.18513   0.00000  Uiso   1.00
I109   I     0.43722   0.25275   0.37106   0.00000  Uiso   1.00
I110   I     0.56287   0.08067   0.12898   0.00000  Uiso   1.00
I111   I     0.37397   0.22967   0.45879   0.00000  Uiso   1.00
I112   I     0.62606   0.10363   0.04117   0.00000  Uiso   1.00
I113   I     0.39141   0.11225   0.33827   0.00000  Uiso   1.00
I114   I     0.60859   0.22110   0.16175   0.00000  Uiso   1.00
I115   I     0.61578   0.11038   0.33767   0.00000  Uiso   1.00
I116   I     0.38421   0.22297   0.16234   0.00000  Uiso   1.00
C117   C     0.75407   0.16682   0.24969   0.00000  Uiso   1.00
C118   C     0.91260   0.16652   0.25031   0.00000  Uiso   1.00
C119   C     0.77545   0.21849   0.02553   0.00000  Uiso   1.00
C120   C     0.89120   0.11480   0.47447   0.00000  Uiso   1.00
C121   C     0.68956   0.14404   0.28454   0.00000  Uiso   1.00
C122   C     0.97711   0.18930   0.21547   0.00000  Uiso   1.00
C123   C     0.97983   0.14355   0.28447   0.00000  Uiso   1.00
C124   C     0.68684   0.18979   0.21554   0.00000  Uiso   1.00
C125   C     0.95720   0.16628   0.25003   0.00000  Uiso   1.00
C126   C     0.70947   0.16706   0.24997   0.00000  Uiso   1.00
C127   C     0.80936   0.02503   0.22004   0.00000  Uiso   1.00
C128   C     0.85731   0.30830   0.27996   0.00000  Uiso   1.00
C129   C     0.85727   0.02459   0.27998   0.00000  Uiso   1.00
C130   C     0.80939   0.30874   0.22002   0.00000  Uiso   1.00
C131   C     0.83576   0.16657   0.16448   0.00000  Uiso   1.00
C132   C     0.83092   0.16676   0.33552   0.00000  Uiso   1.00
C133   C     0.85453   0.13585   0.40700   0.00000  Uiso   1.00
C134   C     0.81212   0.19745   0.09300   0.00000  Uiso   1.00
C135   C     0.82820   0.16653   0.38386   0.00000  Uiso   1.00
C136   C     0.83848   0.16680   0.11614   0.00000  Uiso   1.00
C137   C     0.80117   0.19652   0.40692   0.00000  Uiso   1.00
C138   C     0.86554   0.13684   0.09309   0.00000  Uiso   1.00
C139   C     0.79981   0.19281   0.45392   0.00000  Uiso   1.00
C140   C     0.86688   0.14053   0.04608   0.00000  Uiso   1.00
C141   C     0.83127   0.16617   0.47665   0.00000  Uiso   1.00
C142   C     0.83542   0.16716   0.02335   0.00000  Uiso   1.00
C143   C     0.85848   0.13807   0.45278   0.00000  Uiso   1.00
C144   C     0.80818   0.19524   0.04722   0.00000  Uiso   1.00
C145   C     0.76942   0.21507   0.47972   0.00000  Uiso   1.00
C146   C     0.89726   0.11825   0.02027   0.00000  Uiso   1.00
Cu147  Cu    0.83333   0.21355   0.25000   0.00000  Uiso   1.00
Cu148  Cu    0.83333   0.11978   0.25000   0.00000  Uiso   1.00
H149   H     0.87438   0.11249   0.38900   0.00000  Uiso   1.00
H150   H     0.79224   0.22078   0.11099   0.00000  Uiso   1.00
H151   H     0.75250   0.23646   0.04482   0.00000  Uiso   1.00
H152   H     0.91413   0.09680   0.45518   0.00000  Uiso   1.00
H153   H     0.79015   0.04392   0.19605   0.00000  Uiso   1.00
H154   H     0.87652   0.28942   0.30395   0.00000  Uiso   1.00
H155   H     0.87637   0.04311   0.30405   0.00000  Uiso   1.00
H156   H     0.79030   0.29022   0.19595   0.00000  Uiso   1.00
N157   N     0.83333   0.28402   0.25000   0.00000  Uiso   1.00
N158   N     0.83333   0.04931   0.25000   0.00000  Uiso   1.00
O159   O     0.77321   0.20625   0.24999   0.00000  Uiso   1.00
O160   O     0.89345   0.12709   0.25001   0.00000  Uiso   1.00
O161   O     0.89345   0.20625   0.25001   0.00000  Uiso   1.00
O162   O     0.77321   0.12709   0.25000   0.00000  Uiso   1.00
O163   O     0.83332   0.20627   0.18513   0.00000  Uiso   1.00
O164   O     0.83334   0.12707   0.31487   0.00000  Uiso   1.00
O165   O     0.83334   0.20627   0.31487   0.00000  Uiso   1.00
O166   O     0.83332   0.12707   0.18513   0.00000  Uiso   1.00
I167   I     0.77056   0.25275   0.37106   0.00000  Uiso   1.00
I168   I     0.89620   0.08067   0.12898   0.00000  Uiso   1.00
I169   I     0.70730   0.22967   0.45879   0.00000  Uiso   1.00
I170   I     0.95939   0.10363   0.04117   0.00000  Uiso   1.00
I171   I     0.72474   0.11225   0.33827   0.00000  Uiso   1.00
I172   I     0.94192   0.22110   0.16175   0.00000  Uiso   1.00
I173   I     0.94912   0.11038   0.33767   0.00000  Uiso   1.00
I174   I     0.71755   0.22297   0.16234   0.00000  Uiso   1.00
C175   C     0.08740   0.50015   0.24969   0.00000  Uiso   1.00
C176   C     0.24593   0.49985   0.25031   0.00000  Uiso   1.00
C177   C     0.10878   0.55183   0.02553   0.00000  Uiso   1.00
C178   C     0.22454   0.44813   0.47447   0.00000  Uiso   1.00
C179   C     0.02289   0.47737   0.28454   0.00000  Uiso   1.00
C180   C     0.31044   0.52264   0.21547   0.00000  Uiso   1.00
C181   C     0.31316   0.47688   0.28447   0.00000  Uiso   1.00
C182   C     0.02017   0.52312   0.21554   0.00000  Uiso   1.00
C183   C     0.29053   0.49961   0.25003   0.00000  Uiso   1.00
C184   C     0.04280   0.50039   0.24997   0.00000  Uiso   1.00
C185   C     0.14269   0.35836   0.22004   0.00000  Uiso   1.00
C186   C     0.19064   0.64164   0.27996   0.00000  Uiso   1.00
C187   C     0.19061   0.35793   0.27998   0.00000  Uiso   1.00
C188   C     0.14273   0.64207   0.22002   0.00000  Uiso   1.00
C189   C     0.16909   0.49990   0.16448   0.00000  Uiso   1.00
C190   C     0.16425   0.50010   0.33552   0.00000  Uiso   1.00
C191   C     0.18786   0.46918   0.40700   0.00000  Uiso   1.00
C192   C     0.14545   0.53078   0.09300   0.00000  Uiso   1.00
C193   C     0.16153   0.49987   0.38386   0.00000  Uiso   1.00
C194   C     0.17182   0.50013   0.11614   0.00000  Uiso   1.00
C195   C     0.13450   0.52985   0.40692   0.00000  Uiso   1.00
C196   C     0.19887   0.47018   0.09309   0.00000  Uiso   1.00
C197   C     0.13315   0.52614   0.45392   0.00000  Uiso   1.00
C198   C     0.20021   0.47387   0.04608   0.00000  Uiso   1.00
C199   C     0.16460   0.49951   0.47665   0.00000  Uiso   1.00
C200   C     0.16875   0.50050   0.02335   0.00000  Uiso   1.00
C201   C     0.19182   0.47140   0.45278   0.00000  Uiso   1.00
C202   C     0.14151   0.52858   0.04722   0.00000  Uiso   1.00
C203   C     0.10275   0.54840   0.47972   0.00000  Uiso   1.00
C204   C     0.23059   0.45159   0.02027   0.00000  Uiso   1.00
Cu205  Cu    0.16667   0.54689   0.25000   0.00000  Uiso   1.00
Cu206  Cu    0.16667   0.45311   0.25000   0.00000  Uiso   1.00
H207   H     0.20771   0.44582   0.38900   0.00000  Uiso   1.00
H208   H     0.12557   0.55411   0.11099   0.00000  Uiso   1.00
H209   H     0.08583   0.56979   0.04482   0.00000  Uiso   1.00
H210   H     0.24746   0.43013   0.45518   0.00000  Uiso   1.00
H211   H     0.12348   0.37725   0.19605   0.00000  Uiso   1.00
H212   H     0.20985   0.62275   0.30395   0.00000  Uiso   1.00
H213   H     0.20970   0.37645   0.30405   0.00000  Uiso   1.00
H214   H     0.12363   0.62355   0.19595   0.00000  Uiso   1.00
N215   N     0.16667   0.61736   0.25000   0.00000  Uiso   1.00
N216   N     0.16667   0.38264   0.25000   0.00000  Uiso   1.00
O217   O     0.10655   0.53958   0.24999   0.00000  Uiso   1.00
O218   O     0.22679   0.46042   0.25001   0.00000  Uiso   1.00
O219   O     0.22679   0.53958   0.25001   0.00000  Uiso   1.00
O220   O     0.10655   0.46042   0.25000   0.00000  Uiso   1.00
O221   O     0.16666   0.53960   0.18513   0.00000  Uiso   1.00
O222   O     0.16668   0.46040   0.31487   0.00000  Uiso   1.00
O223   O     0.16668   0.53960   0.31487   0.00000  Uiso   1.00
O224   O     0.16666   0.46040   0.18513   0.00000  Uiso   1.00
I225   I     0.10389   0.58609   0.37106   0.00000  Uiso   1.00
I226   I     0.22954   0.41400   0.12898   0.00000  Uiso   1.00
I227   I     0.04063   0.56300   0.45879   0.00000  Uiso   1.00
I228   I     0.29272   0.43696   0.04117   0.00000  Uiso   1.00
I229   I     0.05807   0.44559   0.33827   0.00000  Uiso   1.00
I230   I     0.27526   0.55443   0.16175   0.00000  Uiso   1.00
I231   I     0.28245   0.44371   0.33767   0.00000  Uiso   1.00
I232   I     0.05088   0.55631   0.16234   0.00000  Uiso   1.00
C233   C     0.42074   0.50015   0.24969   0.00000  Uiso   1.00
C234   C     0.57926   0.49985   0.25031   0.00000  Uiso   1.00
C235   C     0.44212   0.55183   0.02553   0.00000  Uiso   1.00
C236   C     0.55787   0.44813   0.47447   0.00000  Uiso   1.00
C237   C     0.35622   0.47737   0.28454   0.00000  Uiso   1.00
C238   C     0.64378   0.52264   0.21547   0.00000  Uiso   1.00
C239   C     0.64649   0.47688   0.28447   0.00000  Uiso   1.00
C240   C     0.35351   0.52312   0.21554   0.00000  Uiso   1.00
C241   C     0.62387   0.49961   0.25003   0.00000  Uiso   1.00
C242   C     0.37613   0.50039   0.24997   0.00000  Uiso   1.00
C243   C     0.47602   0.35836   0.22004   0.00000  Uiso   1.00
C244   C     0.52398   0.64164   0.27996   0.00000  Uiso   1.00
C245   C     0.52394   0.35793   0.27998   0.00000  Uiso   1.00
C246   C     0.47606   0.64207   0.22002   0.00000  Uiso   1.00
C247   C     0.50242   0.49990   0.16448   0.00000  Uiso   1.00
C248   C     0.49758   0.50010   0.33552   0.00000  Uiso   1.00
C249   C     0.52119   0.46918   0.40700   0.00000  Uiso   1.00
C250   C     0.47879   0.53078   0.09300   0.00000  Uiso   1.00
C251   C     0.49486   0.49987   0.38386   0.00000  Uiso   1.00
C252   C     0.50515   0.50013   0.11614   0.00000  Uiso   1.00
C253   C     0.46783   0.52985   0.40692   0.00000  Uiso   1.00
C254   C     0.53221   0.47018   0.09309   0.00000  Uiso   1.00
C255   C     0.46648   0.52614   0.45392   0.00000  Uiso   1.00
C256   C     0.53355   0.47387   0.04608   0.00000  Uiso   1.00
C257   C     0.49793   0.49951   0.47665   0.00000  Uiso   1.00
C258   C     0.50208   0.50050   0.02335   0.00000  Uiso   1.00
C259   C     0.52515   0.47140   0.45278   0.00000  Uiso   1.00
C260   C     0.47484   0.52858   0.04722   0.00000  Uiso   1.00
C261   C     0.43608   0.54840   0.47972   0.00000  Uiso   1.00
C262   C     0.56393   0.45159   0.02027   0.00000  Uiso   1.00
Cu263  Cu    0.50000   0.54689   0.25000   0.00000  Uiso   1.00
Cu264  Cu    0.50000   0.45311   0.25000   0.00000  Uiso   1.00
H265   H     0.54105   0.44582   0.38900   0.00000  Uiso   1.00
H266   H     0.45890   0.55411   0.11099   0.00000  Uiso   1.00
H267   H     0.41917   0.56979   0.04482   0.00000  Uiso   1.00
H268   H     0.58080   0.43013   0.45518   0.00000  Uiso   1.00
H269   H     0.45681   0.37725   0.19605   0.00000  Uiso   1.00
H270   H     0.54319   0.62275   0.30395   0.00000  Uiso   1.00
H271   H     0.54303   0.37645   0.30405   0.00000  Uiso   1.00
H272   H     0.45697   0.62355   0.19595   0.00000  Uiso   1.00
N273   N     0.50000   0.61736   0.25000   0.00000  Uiso   1.00
N274   N     0.50000   0.38264   0.25000   0.00000  Uiso   1.00
O275   O     0.43988   0.53958   0.24999   0.00000  Uiso   1.00
O276   O     0.56012   0.46042   0.25001   0.00000  Uiso   1.00
O277   O     0.56012   0.53958   0.25001   0.00000  Uiso   1.00
O278   O     0.43988   0.46042   0.25000   0.00000  Uiso   1.00
O279   O     0.49999   0.53960   0.18513   0.00000  Uiso   1.00
O280   O     0.50001   0.46040   0.31487   0.00000  Uiso   1.00
O281   O     0.50001   0.53960   0.31487   0.00000  Uiso   1.00
O282   O     0.49999   0.46040   0.18513   0.00000  Uiso   1.00
I283   I     0.43722   0.58609   0.37106   0.00000  Uiso   1.00
I284   I     0.56287   0.41400   0.12898   0.00000  Uiso   1.00
I285   I     0.37397   0.56300   0.45879   0.00000  Uiso   1.00
I286   I     0.62606   0.43696   0.04117   0.00000  Uiso   1.00
I287   I     0.39141   0.44559   0.33827   0.00000  Uiso   1.00
I288   I     0.60859   0.55443   0.16175   0.00000  Uiso   1.00
I289   I     0.61578   0.44371   0.33767   0.00000  Uiso   1.00
I290   I     0.38421   0.55631   0.16234   0.00000  Uiso   1.00
C291   C     0.75407   0.50015   0.24969   0.00000  Uiso   1.00
C292   C     0.91260   0.49985   0.25031   0.00000  Uiso   1.00
C293   C     0.77545   0.55183   0.02553   0.00000  Uiso   1.00
C294   C     0.89120   0.44813   0.47447   0.00000  Uiso   1.00
C295   C     0.68956   0.47737   0.28454   0.00000  Uiso   1.00
C296   C     0.97711   0.52264   0.21547   0.00000  Uiso   1.00
C297   C     0.97983   0.47688   0.28447   0.00000  Uiso   1.00
C298   C     0.68684   0.52312   0.21554   0.00000  Uiso   1.00
C299   C     0.95720   0.49961   0.25003   0.00000  Uiso   1.00
C300   C     0.70947   0.50039   0.24997   0.00000  Uiso   1.00
C301   C     0.80936   0.35836   0.22004   0.00000  Uiso   1.00
C302   C     0.85731   0.64164   0.27996   0.00000  Uiso   1.00
C303   C     0.85727   0.35793   0.27998   0.00000  Uiso   1.00
C304   C     0.80939   0.64207   0.22002   0.00000  Uiso   1.00
C305   C     0.83576   0.49990   0.16448   0.00000  Uiso   1.00
C306   C     0.83092   0.50010   0.33552   0.00000  Uiso   1.00
C307   C     0.85453   0.46918   0.40700   0.00000  Uiso   1.00
C308   C     0.81212   0.53078   0.09300   0.00000  Uiso   1.00
C309   C     0.82820   0.49987   0.38386   0.00000  Uiso   1.00
C310   C     0.83848   0.50013   0.11614   0.00000  Uiso   1.00
C311   C     0.80117   0.52985   0.40692   0.00000  Uiso   1.00
C312   C     0.86554   0.47018   0.09309   0.00000  Uiso   1.00
C313   C     0.79981   0.52614   0.45392   0.00000  Uiso   1.00
C314   C     0.86688   0.47387   0.04608   0.00000  Uiso   1.00
C315   C     0.83127   0.49951   0.47665   0.00000  Uiso   1.00
C316   C     0.83542   0.50050   0.02335   0.00000  Uiso   1.00
C317   C     0.85848   0.47140   0.45278   0.00000  Uiso   1.00
C318   C     0.80818   0.52858   0.04722   0.00000  Uiso   1.00
C319   C     0.76942   0.54840   0.47972   0.00000  Uiso   1.00
C320   C     0.89726   0.45159   0.02027   0.00000  Uiso   1.00
Cu321  Cu    0.83333   0.54689   0.25000   0.00000  Uiso   1.00
Cu322  Cu    0.83333   0.45311   0.25000   0.00000  Uiso   1.00
H323   H     0.87438   0.44582   0.38900   0.00000  Uiso   1.00
H324   H     0.79224   0.55411   0.11099   0.00000  Uiso   1.00
H325   H     0.75250   0.56979   0.04482   0.00000  Uiso   1.00
H326   H     0.91413   0.43013   0.45518   0.00000  Uiso   1.00
H327   H     0.79015   0.37725   0.19605   0.00000  Uiso   1.00
H328   H     0.87652   0.62275   0.30395   0.00000  Uiso   1.00
H329   H     0.87637   0.37645   0.30405   0.00000  Uiso   1.00
H330   H     0.79030   0.62355   0.19595   0.00000  Uiso   1.00
N331   N     0.83333   0.61736   0.25000   0.00000  Uiso   1.00
N332   N     0.83333   0.38264   0.25000   0.00000  Uiso   1.00
O333   O     0.77321   0.53958   0.24999   0.00000  Uiso   1.00
O334   O     0.89345   0.46042   0.25001   0.00000  Uiso   1.00
O335   O     0.89345   0.53958   0.25001   0.00000  Uiso   1.00
O336   O     0.77321   0.46042   0.25000   0.00000  Uiso   1.00
O337   O     0.83332   0.53960   0.18513   0.00000  Uiso   1.00
O338   O     0.83334   0.46040   0.31487   0.00000  Uiso   1.00
O339   O     0.83334   0.53960   0.31487   0.00000  Uiso   1.00
O340   O     0.83332   0.46040   0.18513   0.00000  Uiso   1.00
I341   I     0.77056   0.58609   0.37106   0.00000  Uiso   1.00
I342   I     0.89620   0.41400   0.12898   0.00000  Uiso   1.00
I343   I     0.70730   0.56300   0.45879   0.00000  Uiso   1.00
I344   I     0.95939   0.43696   0.04117   0.00000  Uiso   1.00
I345   I     0.72474   0.44559   0.33827   0.00000  Uiso   1.00
I346   I     0.94192   0.55443   0.16175   0.00000  Uiso   1.00
I347   I     0.94912   0.44371   0.33767   0.00000  Uiso   1.00
I348   I     0.71755   0.55631   0.16234   0.00000  Uiso   1.00
C349   C     0.08740   0.83348   0.24969   0.00000  Uiso   1.00
C350   C     0.24593   0.83318   0.25031   0.00000  Uiso   1.00
C351   C     0.10878   0.88516   0.02553   0.00000  Uiso   1.00
C352   C     0.22454   0.78147   0.47447   0.00000  Uiso   1.00
C353   C     0.02289   0.81071   0.28454   0.00000  Uiso   1.00
C354   C     0.31044   0.85597   0.21547   0.00000  Uiso   1.00
C355   C     0.31316   0.81022   0.28447   0.00000  Uiso   1.00
C356   C     0.02017   0.85646   0.21554   0.00000  Uiso   1.00
C357   C     0.29053   0.83294   0.25003   0.00000  Uiso   1.00
C358   C     0.04280   0.83373   0.24997   0.00000  Uiso   1.00
C359   C     0.14269   0.69170   0.22004   0.00000  Uiso   1.00
C360   C     0.19064   0.97497   0.27996   0.00000  Uiso   1.00
C361   C     0.19061   0.69126   0.27998   0.00000  Uiso   1.00
C362   C     0.14273   0.97541   0.22002   0.00000  Uiso   1.00
C363   C     0.16909   0.83324   0.16448   0.00000  Uiso   1.00
C364   C     0.16425   0.83343   0.33552   0.00000  Uiso   1.00
C365   C     0.18786   0.80252   0.40700   0.00000  Uiso   1.00
C366   C     0.14545   0.86411   0.09300   0.00000  Uiso   1.00
C367   C     0.16153   0.83320   0.38386   0.00000  Uiso   1.00
C368   C     0.17182   0.83347   0.11614   0.00000  Uiso   1.00
C369   C     0.13450   0.86318   0.40692   0.00000  Uiso   1.00
C370   C     0.19887   0.80351   0.09309   0.00000  Uiso   1.00
C371   C     0.13315   0.85948   0.45392   0.00000  Uiso   1.00
C372   C     0.20021   0.80720   0.04608   0.00000  Uiso   1.00
C373   C     0.16460   0.83284   0.47665   0.00000  Uiso   1.00
C374   C     0.16875   0.83383   0.02335   0.00000  Uiso   1.00
C375   C     0.19182   0.80473   0.45278   0.00000  Uiso   1.00
C376   C     0.14151   0.86191   0.04722   0.00000  Uiso   1.00
C377   C     0.10275   0.88173   0.47972   0.00000  Uiso   1.00
C378   C     0.23059   0.78492   0.02027   0.00000  Uiso   1.00
Cu379  Cu    0.16667   0.88022   0.25000   0.00000  Uiso   1.00
Cu380  Cu    0.16667   0.78645   0.25000   0.00000  Uiso   1.00
H381   H     0.20771   0.77916   0.38900   0.00000  Uiso   1.00
H382   H     0.12557   0.88744   0.11099   0.00000  Uiso   1.00
H383   H     0.08583   0.90312   0.04482   0.00000  Uiso   1.00
H384   H     0.24746   0.76347   0.45518   0.00000  Uiso   1.00
H385   H     0.12348   0.71058   0.19605   0.00000  Uiso   1.00
H386   H     0.20985   0.95608   0.30395   0.00000  Uiso   1.00
H387   H     0.20970   0.70978   0.30405   0.00000  Uiso   1.00
H388   H     0.12363   0.95689   0.19595   0.00000  Uiso   1.00
N389   N     0.16667   0.95069   0.25000   0.00000  Uiso   1.00
N390   N     0.16667   0.71598   0.25000   0.00000  Uiso   1.00
O391   O     0.10655   0.87291   0.24999   0.00000  Uiso   1.00
O392   O     0.22679   0.79375   0.25001   0.00000  Uiso   1.00
O393   O     0.22679   0.87291   0.25001   0.00000  Uiso   1.00
O394   O     0.10655   0.79375   0.25000   0.00000  Uiso   1.00
O395   O     0.16666   0.87293   0.18513   0.00000  Uiso   1.00
O396   O     0.16668   0.79373   0.31487   0.00000  Uiso   1.00
O397   O     0.16668   0.87293   0.31487   0.00000  Uiso   1.00
O398   O     0.16666   0.79373   0.18513   0.00000  Uiso   1.00
I399   I     0.10389   0.91942   0.37106   0.00000  Uiso   1.00
I400   I     0.22954   0.74733   0.12898   0.00000  Uiso   1.00
I401   I     0.04063   0.89634   0.45879   0.00000  Uiso   1.00
I402   I     0.29272   0.77029   0.04117   0.00000  Uiso   1.00
I403   I     0.05807   0.77892   0.33827   0.00000  Uiso   1.00
I404   I     0.27526   0.88777   0.16175   0.00000  Uiso   1.00
I405   I     0.28245   0.77705   0.33767   0.00000  Uiso   1.00
I406   I     0.05088   0.88964   0.16234   0.00000  Uiso   1.00
C407   C     0.42074   0.83348   0.24969   0.00000  Uiso   1.00
C408   C     0.57926   0.83318   0.25031   0.00000  Uiso   1.00
C409   C     0.44212   0.88516   0.02553   0.00000  Uiso   1.00
C410   C     0.55787   0.78147   0.47447   0.00000  Uiso   1.00
C411   C     0.35622   0.81071   0.28454   0.00000  Uiso   1.00
C412   C     0.64378   0.85597   0.21547   0.00000  Uiso   1.00
C413   C     0.64649   0.81022   0.28447   0.00000  Uiso   1.00
C414   C     0.35351   0.85646   0.21554   0.00000  Uiso   1.00
C415   C     0.62387   0.83294   0.25003   0.00000  Uiso   1.00
C416   C     0.37613   0.83373   0.24997   0.00000  Uiso   1.00
C417   C     0.47602   0.69170   0.22004   0.00000  Uiso   1.00
C418   C     0.52398   0.97497   0.27996   0.00000  Uiso   1.00
C419   C     0.52394   0.69126   0.27998   0.00000  Uiso   1.00
C420   C     0.47606   0.97541   0.22002   0.00000  Uiso   1.00
C421   C     0.50242   0.83324   0.16448   0.00000  Uiso   1.00
C422   C     0.49758   0.83343   0.33552   0.00000  Uiso   1.00
C423   C     0.52119   0.80252   0.40700   0.00000  Uiso   1.00
C424   C     0.47879   0.86411   0.09300   0.00000  Uiso   1.00
C425   C     0.49486   0.83320   0.38386   0.00000  Uiso   1.00
C426   C     0.50515   0.83347   0.11614   0.00000  Uiso   1.00
C427   C     0.46783   0.86318   0.40692   0.00000  Uiso   1.00
C428   C     0.53221   0.80351   0.09309   0.00000  Uiso   1.00
C429   C     0.46648   0.85948   0.45392   0.00000  Uiso   1.00
C430   C     0.53355   0.80720   0.04608   0.00000  Uiso   1.00
C431   C     0.49793   0.83284   0.47665   0.00000  Uiso   1.00
C432   C     0.50208   0.83383   0.02335   0.00000  Uiso   1.00
C433   C     0.52515   0.80473   0.45278   0.00000  Uiso   1.00
C434   C     0.47484   0.86191   0.04722   0.00000  Uiso   1.00
C435   C     0.43608   0.88173   0.47972   0.00000  Uiso   1.00
C436   C     0.56393   0.78492   0.02027   0.00000  Uiso   1.00
Cu437  Cu    0.50000   0.88022   0.25000   0.00000  Uiso   1.00
Cu438  Cu    0.50000   0.78645   0.25000   0.00000  Uiso   1.00
H439   H     0.54105   0.77916   0.38900   0.00000  Uiso   1.00
H440   H     0.45890   0.88744   0.11099   0.00000  Uiso   1.00
H441   H     0.41917   0.90312   0.04482   0.00000  Uiso   1.00
H442   H     0.58080   0.76347   0.45518   0.00000  Uiso   1.00
H443   H     0.45681   0.71058   0.19605   0.00000  Uiso   1.00
H444   H     0.54319   0.95608   0.30395   0.00000  Uiso   1.00
H445   H     0.54303   0.70978   0.30405   0.00000  Uiso   1.00
H446   H     0.45697   0.95689   0.19595   0.00000  Uiso   1.00
N447   N     0.50000   0.95069   0.25000   0.00000  Uiso   1.00
N448   N     0.50000   0.71598   0.25000   0.00000  Uiso   1.00
O449   O     0.43988   0.87291   0.24999   0.00000  Uiso   1.00
O450   O     0.56012   0.79375   0.25001   0.00000  Uiso   1.00
O451   O     0.56012   0.87291   0.25001   0.00000  Uiso   1.00
O452   O     0.43988   0.79375   0.25000   0.00000  Uiso   1.00
O453   O     0.49999   0.87293   0.18513   0.00000  Uiso   1.00
O454   O     0.50001   0.79373   0.31487   0.00000  Uiso   1.00
O455   O     0.50001   0.87293   0.31487   0.00000  Uiso   1.00
O456   O     0.49999   0.79373   0.18513   0.00000  Uiso   1.00
I457   I     0.43722   0.91942   0.37106   0.00000  Uiso   1.00
I458   I     0.56287   0.74733   0.12898   0.00000  Uiso   1.00
I459   I     0.37397   0.89634   0.45879   0.00000  Uiso   1.00
I460   I     0.62606   0.77029   0.04117   0.00000  Uiso   1.00
I461   I     0.39141   0.77892   0.33827   0.00000  Uiso   1.00
I462   I     0.60859   0.88777   0.16175   0.00000  Uiso   1.00
I463   I     0.61578   0.77705   0.33767   0.00000  Uiso   1.00
I464   I     0.38421   0.88964   0.16234   0.00000  Uiso   1.00
C465   C     0.75407   0.83348   0.24969   0.00000  Uiso   1.00
C466   C     0.91260   0.83318   0.25031   0.00000  Uiso   1.00
C467   C     0.77545   0.88516   0.02553   0.00000  Uiso   1.00
C468   C     0.89120   0.78147   0.47447   0.00000  Uiso   1.00
C469   C     0.68956   0.81071   0.28454   0.00000  Uiso   1.00
C470   C     0.97711   0.85597   0.21547   0.00000  Uiso   1.00
C471   C     0.97983   0.81022   0.28447   0.00000  Uiso   1.00
C472   C     0.68684   0.85646   0.21554   0.00000  Uiso   1.00
C473   C     0.95720   0.83294   0.25003   0.00000  Uiso   1.00
C474   C     0.70947   0.83373   0.24997   0.00000  Uiso   1.00
C475   C     0.80936   0.69170   0.22004   0.00000  Uiso   1.00
C476   C     0.85731   0.97497   0.27996   0.00000  Uiso   1.00
C477   C     0.85727   0.69126   0.27998   0.00000  Uiso   1.00
C478   C     0.80939   0.97541   0.22002   0.00000  Uiso   1.00
C479   C     0.83576   0.83324   0.16448   0.00000  Uiso   1.00
C480   C     0.83092   0.83343   0.33552   0.00000  Uiso   1.00
C481   C     0.85453   0.80252   0.40700   0.00000  Uiso   1.00
C482   C     0.81212   0.86411   0.09300   0.00000  Uiso   1.00
C483   C     0.82820   0.83320   0.38386   0.00000  Uiso   1.00
C484   C     0.83848   0.83347   0.11614   0.00000  Uiso   1.00
C485   C     0.80117   0.86318   0.40692   0.00000  Uiso   1.00
C486   C     0.86554   0.80351   0.09309   0.00000  Uiso   1.00
C487   C     0.79981   0.85948   0.45392   0.00000  Uiso   1.00
C488   C     0.86688   0.80720   0.04608   0.00000  Uiso   1.00
C489   C     0.83127   0.83284   0.47665   0.00000  Uiso   1.00
C490   C     0.83542   0.83383   0.02335   0.00000  Uiso   1.00
C491   C     0.85848   0.80473   0.45278   0.00000  Uiso   1.00
C492   C     0.80818   0.86191   0.04722   0.00000  Uiso   1.00
C493   C     0.76942   0.88173   0.47972   0.00000  Uiso   1.00
C494   C     0.89726   0.78492   0.02027   0.00000  Uiso   1.00
Cu495  Cu    0.83333   0.88022   0.25000   0.00000  Uiso   1.00
Cu496  Cu    0.83333   0.78645   0.25000   0.00000  Uiso   1.00
H497   H     0.87438   0.77916   0.38900   0.00000  Uiso   1.00
H498   H     0.79224   0.88744   0.11099   0.00000  Uiso   1.00
H499   H     0.75250   0.90312   0.04482   0.00000  Uiso   1.00
H500   H     0.91413   0.76347   0.45518   0.00000  Uiso   1.00
H501   H     0.79015   0.71058   0.19605   0.00000  Uiso   1.00
H502   H     0.87652   0.95608   0.30395   0.00000  Uiso   1.00
H503   H     0.87637   0.70978   0.30405   0.00000  Uiso   1.00
H504   H     0.79030   0.95689   0.19595   0.00000  Uiso   1.00
N505   N     0.83333   0.95069   0.25000   0.00000  Uiso   1.00
N506   N     0.83333   0.71598   0.25000   0.00000  Uiso   1.00
O507   O     0.77321   0.87291   0.24999   0.00000  Uiso   1.00
O508   O     0.89345   0.79375   0.25001   0.00000  Uiso   1.00
O509   O     0.89345   0.87291   0.25001   0.00000  Uiso   1.00
O510   O     0.77321   0.79375   0.25000   0.00000  Uiso   1.00
O511   O     0.83332   0.87293   0.18513   0.00000  Uiso   1.00
O512   O     0.83334   0.79373   0.31487   0.00000  Uiso   1.00
O513   O     0.83334   0.87293   0.31487   0.00000  Uiso   1.00
O514   O     0.83332   0.79373   0.18513   0.00000  Uiso   1.00
I515   I     0.77056   0.91942   0.37106   0.00000  Uiso   1.00
I516   I     0.89620   0.74733   0.12898   0.00000  Uiso   1.00
I517   I     0.70730   0.89634   0.45879   0.00000  Uiso   1.00
I518   I     0.95939   0.77029   0.04117   0.00000  Uiso   1.00
I519   I     0.72474   0.77892   0.33827   0.00000  Uiso   1.00
I520   I     0.94192   0.88777   0.16175   0.00000  Uiso   1.00
I521   I     0.94912   0.77705   0.33767   0.00000  Uiso   1.00
I522   I     0.71755   0.88964   0.16234   0.00000  Uiso   1.00
C523   C     0.08740   0.16682   0.74969   0.00000  Uiso   1.00
C524   C     0.24593   0.16652   0.75031   0.00000  Uiso   1.00
C525   C     0.10878   0.21849   0.52553   0.00000  Uiso   1.00
C526   C     0.22454   0.11480   0.97447   0.00000  Uiso   1.00
C527   C     0.02289   0.14404   0.78454   0.00000  Uiso   1.00
C528   C     0.31044   0.18930   0.71547   0.00000  Uiso   1.00
C529   C     0.31316   0.14355   0.78447   0.00000  Uiso   1.00
C530   C     0.02017   0.18979   0.71554   0.00000  Uiso   1.00
C531   C     0.29053   0.16628   0.75003   0.00000  Uiso   1.00
C532   C     0.04280   0.16706   0.74997   0.00000  Uiso   1.00
C533   C     0.14269   0.02503   0.72004   0.00000  Uiso   1.00
C534   C     0.19064   0.30830   0.77996   0.00000  Uiso   1.00
C535   C     0.19061   0.02459   0.77998   0.00000  Uiso   1.00
C536   C     0.14273   0.30874   0.72002   0.00000  Uiso   1.00
C537   C     0.16909   0.16657   0.66448   0.00000  Uiso   1.00
C538   C     0.16425   0.16676   0.83552   0.00000  Uiso   1.00
C539   C     0.18786   0.13585   0.90700   0.00000  Uiso   1.00
C540   C     0.14545   0.19745   0.59300   0.00000  Uiso   1.00
C541   C     0.16153   0.16653   0.88386   0.00000  Uiso   1.00
C542   C     0.17182   0.16680   0.61614   0.00000  Uiso   1.00
C543   C     0.13450   0.19652   0.90692   0.00000  Uiso   1.00
C544   C     0.19887   0.13684   0.59309   0.00000  Uiso   1.00
C545   C     0.13315   0.19281   0.95392   0.00000  Uiso   1.00
C546   C     0.20021   0.14053   0.54608   0.00000  Uiso   1.00
C547   C     0.16460   0.16617   0.97665   0.00000  Uiso   1.00
C548   C     0.16875   0.16716   0.52335   0.00000  Uiso   1.00
C549   C     0.19182   0.13807   0.95278   0.00000  Uiso   1.00
C550   C     0.14151   0.19524   0.54722   0.00000  Uiso   1.00
C551   C     0.10275   0.21507   0.97972   0.00000  Uiso   1.00
C552   C     0.23059   0.11825   0.52027   0.00000  Uiso   1.00
Cu553  Cu    0.16667   0.21355   0.75000   0.00000  Uiso   1.00
Cu554  Cu    0.16667   0.11978   0.75000   0.00000  Uiso   1.00
H555   H     0.20771   0.11249   0.88900   0.00000  Uiso   1.00
H556   H     0.12557   0.22078   0.61099   0.00000  Uiso   1.00
H557   H     0.08583   0.23646   0.54482   0.00000  Uiso   1.00
H558   H     0.24746   0.09680   0.95518   0.00000  Uiso   1.00
H559   H     0.12348   0.04392   0.69605   0.00000  Uiso   1.00
H560   H     0.20985   0.28942   0.80395   0.00000  Uiso   1.00
H561   H     0.20970   0.04311   0.80405   0.00000  Uiso   1.00
H562   H     0.12363   0.29022   0.69595   0.00000  Uiso   1.00
N563   N     0.16667   0.28402   0.75000   0.00000  Uiso   1.00
N564   N     0.16667   0.04931   0.75000   0.00000  Uiso   1.00
O565   O     0.10655   0.20625   0.74999   0.00000  Uiso   1.00
O566   O     0.22679   0.12709   0.75001   0.00000  Uiso   1.00
O567   O     0.22679   0.20625   0.75001   0.00000  Uiso   1.00
O568   O     0.10655   0.12709   0.75000   0.00000  Uiso   1.00
O569   O     0.16666   0.20627   0.68513   0.00000  Uiso   1.00
O570   O     0.16668   0.12707   0.81487   0.00000  Uiso   1.00
O571   O     0.16668   0.20627   0.81487   0.00000  Uiso   1.00
O572   O     0.16666   0.12707   0.68513   0.00000  Uiso   1.00
I573   I     0.10389   0.25275   0.87106   0.00000  Uiso   1.00
I574   I     0.22954   0.08067   0.62898   0.00000  Uiso   1.00
I575   I     0.04063   0.22967   0.95879   0.00000  Uiso   1.00
I576   I     0.29272   0.10363   0.54117   0.00000  Uiso   1.00
I577   I     0.05807   0.11225   0.83827   0.00000  Uiso   1.00
I578   I     0.27526   0.22110   0.66175   0.00000  Uiso   1.00
I579   I     0.28245   0.11038   0.83767   0.00000  Uiso   1.00
I580   I     0.05088   0.22297   0.66234   0.00000  Uiso   1.00
C581   C     0.42074   0.16682   0.74969   0.00000  Uiso   1.00
C582   C     0.57926   0.16652   0.75031   0.00000  Uiso   1.00
C583   C     0.44212   0.21849   0.52553   0.00000  Uiso   1.00
C584   C     0.55787   0.11480   0.97447   0.00000  Uiso   1.00
C585   C     0.35622   0.14404   0.78454   0.00000  Uiso   1.00
C586   C     0.64378   0.18930   0.71547   0.00000  Uiso   1.00
C587   C     0.64649   0.14355   0.78447   0.00000  Uiso   1.00
C588   C     0.35351   0.18979   0.71554   0.00000  Uiso   1.00
C589   C     0.62387   0.16628   0.75003   0.00000  Uiso   1.00
C590   C     0.37613   0.16706   0.74997   0.00000  Uiso   1.00
C591   C     0.47602   0.02503   0.72004   0.00000  Uiso   1.00
C592   C     0.52398   0.30830   0.77996   0.00000  Uiso   1.00
C593   C     0.52394   0.02459   0.77998   0.00000  Uiso   1.00
C594   C     0.47606   0.30874   0.72002   0.00000  Uiso   1.00
C595   C     0.50242   0.16657   0.66448   0.00000  Uiso   1.00
C596   C     0.49758   0.16676   0.83552   0.00000  Uiso   1.00
C597   C     0.52119   0.13585   0.90700   0.00000  Uiso   1.00
C598   C     0.47879   0.19745   0.59300   0.00000  Uiso   1.00
C599   C     0.49486   0.16653   0.88386   0.00000  Uiso   1.00
C600   C     0.50515   0.16680   0.61614   0.00000  Uiso   1.00
C601   C     0.46783   0.19652   0.90692   0.00000  Uiso   1.00
C602   C     0.53221   0.13684   0.59309   0.00000  Uiso   1.00
C603   C     0.46648   0.19281   0.95392   0.00000  Uiso   1.00
C604   C     0.53355   0.14053   0.54608   0.00000  Uiso   1.00
C605   C     0.49793   0.16617   0.97665   0.00000  Uiso   1.00
C606   C     0.50208   0.16716   0.52335   0.00000  Uiso   1.00
C607   C     0.52515   0.13807   0.95278   0.00000  Uiso   1.00
C608   C     0.47484   0.19524   0.54722   0.00000  Uiso   1.00
C609   C     0.43608   0.21507   0.97972   0.00000  Uiso   1.00
C610   C     0.56393   0.11825   0.52027   0.00000  Uiso   1.00
Cu611  Cu    0.50000   0.21355   0.75000   0.00000  Uiso   1.00
Cu612  Cu    0.50000   0.11978   0.75000   0.00000  Uiso   1.00
H613   H     0.54105   0.11249   0.88900   0.00000  Uiso   1.00
H614   H     0.45890   0.22078   0.61099   0.00000  Uiso   1.00
H615   H     0.41917   0.23646   0.54482   0.00000  Uiso   1.00
H616   H     0.58080   0.09680   0.95518   0.00000  Uiso   1.00
H617   H     0.45681   0.04392   0.69605   0.00000  Uiso   1.00
H618   H     0.54319   0.28942   0.80395   0.00000  Uiso   1.00
H619   H     0.54303   0.04311   0.80405   0.00000  Uiso   1.00
H620   H     0.45697   0.29022   0.69595   0.00000  Uiso   1.00
N621   N     0.50000   0.28402   0.75000   0.00000  Uiso   1.00
N622   N     0.50000   0.04931   0.75000   0.00000  Uiso   1.00
O623   O     0.43988   0.20625   0.74999   0.00000  Uiso   1.00
O624   O     0.56012   0.12709   0.75001   0.00000  Uiso   1.00
O625   O     0.56012   0.20625   0.75001   0.00000  Uiso   1.00
O626   O     0.43988   0.12709   0.75000   0.00000  Uiso   1.00
O627   O     0.49999   0.20627   0.68513   0.00000  Uiso   1.00
O628   O     0.50001   0.12707   0.81487   0.00000  Uiso   1.00
O629   O     0.50001   0.20627   0.81487   0.00000  Uiso   1.00
O630   O     0.49999   0.12707   0.68513   0.00000  Uiso   1.00
I631   I     0.43722   0.25275   0.87106   0.00000  Uiso   1.00
I632   I     0.56287   0.08067   0.62898   0.00000  Uiso   1.00
I633   I     0.37397   0.22967   0.95879   0.00000  Uiso   1.00
I634   I     0.62606   0.10363   0.54117   0.00000  Uiso   1.00
I635   I     0.39141   0.11225   0.83827   0.00000  Uiso   1.00
I636   I     0.60859   0.22110   0.66175   0.00000  Uiso   1.00
I637   I     0.61578   0.11038   0.83767   0.00000  Uiso   1.00
I638   I     0.38421   0.22297   0.66234   0.00000  Uiso   1.00
C639   C     0.75407   0.16682   0.74969   0.00000  Uiso   1.00
C640   C     0.91260   0.16652   0.75031   0.00000  Uiso   1.00
C641   C     0.77545   0.21849   0.52553   0.00000  Uiso   1.00
C642   C     0.89120   0.11480   0.97447   0.00000  Uiso   1.00
C643   C     0.68956   0.14404   0.78454   0.00000  Uiso   1.00
C644   C     0.97711   0.18930   0.71547   0.00000  Uiso   1.00
C645   C     0.97983   0.14355   0.78447   0.00000  Uiso   1.00
C646   C     0.68684   0.18979   0.71554   0.00000  Uiso   1.00
C647   C     0.95720   0.16628   0.75003   0.00000  Uiso   1.00
C648   C     0.70947   0.16706   0.74997   0.00000  Uiso   1.00
C649   C     0.80936   0.02503   0.72004   0.00000  Uiso   1.00
C650   C     0.85731   0.30830   0.77996   0.00000  Uiso   1.00
C651   C     0.85727   0.02459   0.77998   0.00000  Uiso   1.00
C652   C     0.80939   0.30874   0.72002   0.00000  Uiso   1.00
C653   C     0.83576   0.16657   0.66448   0.00000  Uiso   1.00
C654   C     0.83092   0.16676   0.83552   0.00000  Uiso   1.00
C655   C     0.85453   0.13585   0.90700   0.00000  Uiso   1.00
C656   C     0.81212   0.19745   0.59300   0.00000  Uiso   1.00
C657   C     0.82820   0.16653   0.88386   0.00000  Uiso   1.00
C658   C     0.83848   0.16680   0.61614   0.00000  Uiso   1.00
C659   C     0.80117   0.19652   0.90692   0.00000  Uiso   1.00
C660   C     0.86554   0.13684   0.59309   0.00000  Uiso   1.00
C661   C     0.79981   0.19281   0.95392   0.00000  Uiso   1.00
C662   C     0.86688   0.14053   0.54608   0.00000  Uiso   1.00
C663   C     0.83127   0.16617   0.97665   0.00000  Uiso   1.00
C664   C     0.83542   0.16716   0.52335   0.00000  Uiso   1.00
C665   C     0.85848   0.13807   0.95278   0.00000  Uiso   1.00
C666   C     0.80818   0.19524   0.54722   0.00000  Uiso   1.00
C667   C     0.76942   0.21507   0.97972   0.00000  Uiso   1.00
C668   C     0.89726   0.11825   0.52027   0.00000  Uiso   1.00
Cu669  Cu    0.83333   0.21355   0.75000   0.00000  Uiso   1.00
Cu670  Cu    0.83333   0.11978   0.75000   0.00000  Uiso   1.00
H671   H     0.87438   0.11249   0.88900   0.00000  Uiso   1.00
H672   H     0.79224   0.22078   0.61099   0.00000  Uiso   1.00
H673   H     0.75250   0.23646   0.54482   0.00000  Uiso   1.00
H674   H     0.91413   0.09680   0.95518   0.00000  Uiso   1.00
H675   H     0.79015   0.04392   0.69605   0.00000  Uiso   1.00
H676   H     0.87652   0.28942   0.80395   0.00000  Uiso   1.00
H677   H     0.87637   0.04311   0.80405   0.00000  Uiso   1.00
H678   H     0.79030   0.29022   0.69595   0.00000  Uiso   1.00
N679   N     0.83333   0.28402   0.75000   0.00000  Uiso   1.00
N680   N     0.83333   0.04931   0.75000   0.00000  Uiso   1.00
O681   O     0.77321   0.20625   0.74999   0.00000  Uiso   1.00
O682   O     0.89345   0.12709   0.75001   0.00000  Uiso   1.00
O683   O     0.89345   0.20625   0.75001   0.00000  Uiso   1.00
O684   O     0.77321   0.12709   0.75000   0.00000  Uiso   1.00
O685   O     0.83332   0.20627   0.68513   0.00000  Uiso   1.00
O686   O     0.83334   0.12707   0.81487   0.00000  Uiso   1.00
O687   O     0.83334   0.20627   0.81487   0.00000  Uiso   1.00
O688   O     0.83332   0.12707   0.68513   0.00000  Uiso   1.00
I689   I     0.77056   0.25275   0.87106   0.00000  Uiso   1.00
I690   I     0.89620   0.08067   0.62898   0.00000  Uiso   1.00
I691   I     0.70730   0.22967   0.95879   0.00000  Uiso   1.00
I692   I     0.95939   0.10363   0.54117   0.00000  Uiso   1.00
I693   I     0.72474   0.11225   0.83827   0.00000  Uiso   1.00
I694   I     0.94192   0.22110   0.66175   0.00000  Uiso   1.00
I695   I     0.94912   0.11038   0.83767   0.00000  Uiso   1.00
I696   I     0.71755   0.22297   0.66234   0.00000  Uiso   1.00
C697   C     0.08740   0.50015   0.74969   0.00000  Uiso   1.00
C698   C     0.24593   0.49985   0.75031   0.00000  Uiso   1.00
C699   C     0.10878   0.55183   0.52553   0.00000  Uiso   1.00
C700   C     0.22454   0.44813   0.97447   0.00000  Uiso   1.00
C701   C     0.02289   0.47737   0.78454   0.00000  Uiso   1.00
C702   C     0.31044   0.52264   0.71547   0.00000  Uiso   1.00
C703   C     0.31316   0.47688   0.78447   0.00000  Uiso   1.00
C704   C     0.02017   0.52312   0.71554   0.00000  Uiso   1.00
C705   C     0.29053   0.49961   0.75003   0.00000  Uiso   1.00
C706   C     0.04280   0.50039   0.74997   0.00000  Uiso   1.00
C707   C     0.14269   0.35836   0.72004   0.00000  Uiso   1.00
C708   C     0.19064   0.64164   0.77996   0.00000  Uiso   1.00
C709   C     0.19061   0.35793   0.77998   0.00000  Uiso   1.00
C710   C     0.14273   0.64207   0.72002   0.00000  Uiso   1.00
C711   C     0.16909   0.49990   0.66448   0.00000  Uiso   1.00
C712   C     0.16425   0.50010   0.83552   0.00000  Uiso   1.00
C713   C     0.18786   0.46918   0.90700   0.00000  Uiso   1.00
C714   C     0.14545   0.53078   0.59300   0.00000  Uiso   1.00
C715   C     0.16153   0.49987   0.88386   0.00000  Uiso   1.00
C716   C     0.17182   0.50013   0.61614   0.00000  Uiso   1.00
C717   C     0.13450   0.52985   0.90692   0.00000  Uiso   1.00
C718   C     0.19887   0.47018   0.59309   0.00000  Uiso   1.00
C719   C     0.13315   0.52614   0.95392   0.00000  Uiso   1.00
C720   C     0.20021   0.47387   0.54608   0.00000  Uiso   1.00
C721   C     0.16460   0.49951   0.97665   0.00000  Uiso   1.00
C722   C     0.16875   0.50050   0.52335   0.00000  Uiso   1.00
C723   C     0.19182   0.47140   0.95278   0.00000  Uiso   1.00
C724   C     0.14151   0.52858   0.54722   0.00000  Uiso   1.00
C725   C     0.10275   0.54840   0.97972   0.00000  Uiso   1.00
C726   C     0.23059   0.45159   0.52027   0.00000  Uiso   1.00
Cu727  Cu    0.16667   0.54689   0.75000   0.00000  Uiso   1.00
Cu728  Cu    0.16667   0.45311   0.75000   0.00000  Uiso   1.00
H729   H     0.20771   0.44582   0.88900   0.00000  Uiso   1.00
H730   H     0.12557   0.55411   0.61099   0.00000  Uiso   1.00
H731   H     0.08583   0.56979   0.54482   0.00000  Uiso   1.00
H732   H     0.24746   0.43013   0.95518   0.00000  Uiso   1.00
H733   H     0.12348   0.37725   0.69605   0.00000  Uiso   1.00
H734   H     0.20985   0.62275   0.80395   0.00000  Uiso   1.00
H735   H     0.20970   0.37645   0.80405   0.00000  Uiso   1.00
H736   H     0.12363   0.62355   0.69595   0.00000  Uiso   1.00
N737   N     0.16667   0.61736   0.75000   0.00000  Uiso   1.00
N738   N     0.16667   0.38264   0.75000   0.00000  Uiso   1.00
O739   O     0.10655   0.53958   0.74999   0.00000  Uiso   1.00
O740   O     0.22679   0.46042   0.75001   0.00000  Uiso   1.00
O741   O     0.22679   0.53958   0.75001   0.00000  Uiso   1.00
O742   O     0.10655   0.46042   0.75000   0.00000  Uiso   1.00
O743   O     0.16666   0.53960   0.68513   0.00000  Uiso   1.00
O744   O     0.16668   0.46040   0.81487   0.00000  Uiso   1.00
O745   O     0.16668   0.53960   0.81487   0.00000  Uiso   1.00
O746   O     0.16666   0.46040   0.68513   0.00000  Uiso   1.00
I747   I     0.10389   0.58609   0.87106   0.00000  Uiso   1.00
I748   I     0.22954   0.41400   0.62898   0.00000  Uiso   1.00
I749   I     0.04063   0.56300   0.95879   0.00000  Uiso   1.00
I750   I     0.29272   0.43696   0.54117   0.00000  Uiso   1.00
I751   I     0.05807   0.44559   0.83827   0.00000  Uiso   1.00
I752   I     0.27526   0.55443   0.66175   0.00000  Uiso   1.00
I753   I     0.28245   0.44371   0.83767   0.00000  Uiso   1.00
I754   I     0.05088   0.55631   0.66234   0.00000  Uiso   1.00
C755   C     0.42074   0.50015   0.74969   0.00000  Uiso   1.00
C756   C     0.57926   0.49985   0.75031   0.00000  Uiso   1.00
C757   C     0.44212   0.55183   0.52553   0.00000  Uiso   1.00
C758   C     0.55787   0.44813   0.97447   0.00000  Uiso   1.00
C759   C     0.35622   0.47737   0.78454   0.00000  Uiso   1.00
C760   C     0.64378   0.52264   0.71547   0.00000  Uiso   1.00
C761   C     0.64649   0.47688   0.78447   0.00000  Uiso   1.00
C762   C     0.35351   0.52312   0.71554   0.00000  Uiso   1.00
C763   C     0.62387   0.49961   0.75003   0.00000  Uiso   1.00
C764   C     0.37613   0.50039   0.74997   0.00000  Uiso   1.00
C765   C     0.47602   0.35836   0.72004   0.00000  Uiso   1.00
C766   C     0.52398   0.64164   0.77996   0.00000  Uiso   1.00
C767   C     0.52394   0.35793   0.77998   0.00000  Uiso   1.00
C768   C     0.47606   0.64207   0.72002   0.00000  Uiso   1.00
C769   C     0.50242   0.49990   0.66448   0.00000  Uiso   1.00
C770   C     0.49758   0.50010   0.83552   0.00000  Uiso   1.00
C771   C     0.52119   0.46918   0.90700   0.00000  Uiso   1.00
C772   C     0.47879   0.53078   0.59300   0.00000  Uiso   1.00
C773   C     0.49486   0.49987   0.88386   0.00000  Uiso   1.00
C774   C     0.50515   0.50013   0.61614   0.00000  Uiso   1.00
C775   C     0.46783   0.52985   0.90692   0.00000  Uiso   1.00
C776   C     0.53221   0.47018   0.59309   0.00000  Uiso   1.00
C777   C     0.46648   0.52614   0.95392   0.00000  Uiso   1.00
C778   C     0.53355   0.47387   0.54608   0.00000  Uiso   1.00
C779   C     0.49793   0.49951   0.97665   0.00000  Uiso   1.00
C780   C     0.50208   0.50050   0.52335   0.00000  Uiso   1.00
C781   C     0.52515   0.47140   0.95278   0.00000  Uiso   1.00
C782   C     0.47484   0.52858   0.54722   0.00000  Uiso   1.00
C783   C     0.43608   0.54840   0.97972   0.00000  Uiso   1.00
C784   C     0.56393   0.45159   0.52027   0.00000  Uiso   1.00
Cu785  Cu    0.50000   0.54689   0.75000   0.00000  Uiso   1.00
Cu786  Cu    0.50000   0.45311   0.75000   0.00000  Uiso   1.00
H787   H     0.54105   0.44582   0.88900   0.00000  Uiso   1.00
H788   H     0.45890   0.55411   0.61099   0.00000  Uiso   1.00
H789   H     0.41917   0.56979   0.54482   0.00000  Uiso   1.00
H790   H     0.58080   0.43013   0.95518   0.00000  Uiso   1.00
H791   H     0.45681   0.37725   0.69605   0.00000  Uiso   1.00
H792   H     0.54319   0.62275   0.80395   0.00000  Uiso   1.00
H793   H     0.54303   0.37645   0.80405   0.00000  Uiso   1.00
H794   H     0.45697   0.62355   0.69595   0.00000  Uiso   1.00
N795   N     0.50000   0.61736   0.75000   0.00000  Uiso   1.00
N796   N     0.50000   0.38264   0.75000   0.00000  Uiso   1.00
O797   O     0.43988   0.53958   0.74999   0.00000  Uiso   1.00
O798   O     0.56012   0.46042   0.75001   0.00000  Uiso   1.00
O799   O     0.56012   0.53958   0.75001   0.00000  Uiso   1.00
O800   O     0.43988   0.46042   0.75000   0.00000  Uiso   1.00
O801   O     0.49999   0.53960   0.68513   0.00000  Uiso   1.00
O802   O     0.50001   0.46040   0.81487   0.00000  Uiso   1.00
O803   O     0.50001   0.53960   0.81487   0.00000  Uiso   1.00
O804   O     0.49999   0.46040   0.68513   0.00000  Uiso   1.00
I805   I     0.43722   0.58609   0.87106   0.00000  Uiso   1.00
I806   I     0.56287   0.41400   0.62898   0.00000  Uiso   1.00
I807   I     0.37397   0.56300   0.95879   0.00000  Uiso   1.00
I808   I     0.62606   0.43696   0.54117   0.00000  Uiso   1.00
I809   I     0.39141   0.44559   0.83827   0.00000  Uiso   1.00
I810   I     0.60859   0.55443   0.66175   0.00000  Uiso   1.00
I811   I     0.61578   0.44371   0.83767   0.00000  Uiso   1.00
I812   I     0.38421   0.55631   0.66234   0.00000  Uiso   1.00
C813   C     0.75407   0.50015   0.74969   0.00000  Uiso   1.00
C814   C     0.91260   0.49985   0.75031   0.00000  Uiso   1.00
C815   C     0.77545   0.55183   0.52553   0.00000  Uiso   1.00
C816   C     0.89120   0.44813   0.97447   0.00000  Uiso   1.00
C817   C     0.68956   0.47737   0.78454   0.00000  Uiso   1.00
C818   C     0.97711   0.52264   0.71547   0.00000  Uiso   1.00
C819   C     0.97983   0.47688   0.78447   0.00000  Uiso   1.00
C820   C     0.68684   0.52312   0.71554   0.00000  Uiso   1.00
C821   C     0.95720   0.49961   0.75003   0.00000  Uiso   1.00
C822   C     0.70947   0.50039   0.74997   0.00000  Uiso   1.00
C823   C     0.80936   0.35836   0.72004   0.00000  Uiso   1.00
C824   C     0.85731   0.64164   0.77996   0.00000  Uiso   1.00
C825   C     0.85727   0.35793   0.77998   0.00000  Uiso   1.00
C826   C     0.80939   0.64207   0.72002   0.00000  Uiso   1.00
C827   C     0.83576   0.49990   0.66448   0.00000  Uiso   1.00
C828   C     0.83092   0.50010   0.83552   0.00000  Uiso   1.00
C829   C     0.85453   0.46918   0.90700   0.00000  Uiso   1.00
C830   C     0.81212   0.53078   0.59300   0.00000  Uiso   1.00
C831   C     0.82820   0.49987   0.88386   0.00000  Uiso   1.00
C832   C     0.83848   0.50013   0.61614   0.00000  Uiso   1.00
C833   C     0.80117   0.52985   0.90692   0.00000  Uiso   1.00
C834   C     0.86554   0.47018   0.59309   0.00000  Uiso   1.00
C835   C     0.79981   0.52614   0.95392   0.00000  Uiso   1.00
C836   C     0.86688   0.47387   0.54608   0.00000  Uiso   1.00
C837   C     0.83127   0.49951   0.97665   0.00000  Uiso   1.00
C838   C     0.83542   0.50050   0.52335   0.00000  Uiso   1.00
C839   C     0.85848   0.47140   0.95278   0.00000  Uiso   1.00
C840   C     0.80818   0.52858   0.54722   0.00000  Uiso   1.00
C841   C     0.76942   0.54840   0.97972   0.00000  Uiso   1.00
C842   C     0.89726   0.45159   0.52027   0.00000  Uiso   1.00
Cu843  Cu    0.83333   0.54689   0.75000   0.00000  Uiso   1.00
Cu844  Cu    0.83333   0.45311   0.75000   0.00000  Uiso   1.00
H845   H     0.87438   0.44582   0.88900   0.00000  Uiso   1.00
H846   H     0.79224   0.55411   0.61099   0.00000  Uiso   1.00
H847   H     0.75250   0.56979   0.54482   0.00000  Uiso   1.00
H848   H     0.91413   0.43013   0.95518   0.00000  Uiso   1.00
H849   H     0.79015   0.37725   0.69605   0.00000  Uiso   1.00
H850   H     0.87652   0.62275   0.80395   0.00000  Uiso   1.00
H851   H     0.87637   0.37645   0.80405   0.00000  Uiso   1.00
H852   H     0.79030   0.62355   0.69595   0.00000  Uiso   1.00
N853   N     0.83333   0.61736   0.75000   0.00000  Uiso   1.00
N854   N     0.83333   0.38264   0.75000   0.00000  Uiso   1.00
O855   O     0.77321   0.53958   0.74999   0.00000  Uiso   1.00
O856   O     0.89345   0.46042   0.75001   0.00000  Uiso   1.00
O857   O     0.89345   0.53958   0.75001   0.00000  Uiso   1.00
O858   O     0.77321   0.46042   0.75000   0.00000  Uiso   1.00
O859   O     0.83332   0.53960   0.68513   0.00000  Uiso   1.00
O860   O     0.83334   0.46040   0.81487   0.00000  Uiso   1.00
O861   O     0.83334   0.53960   0.81487   0.00000  Uiso   1.00
O862   O     0.83332   0.46040   0.68513   0.00000  Uiso   1.00
I863   I     0.77056   0.58609   0.87106   0.00000  Uiso   1.00
I864   I     0.89620   0.41400   0.62898   0.00000  Uiso   1.00
I865   I     0.70730   0.56300   0.95879   0.00000  Uiso   1.00
I866   I     0.95939   0.43696   0.54117   0.00000  Uiso   1.00
I867   I     0.72474   0.44559   0.83827   0.00000  Uiso   1.00
I868   I     0.94192   0.55443   0.66175   0.00000  Uiso   1.00
I869   I     0.94912   0.44371   0.83767   0.00000  Uiso   1.00
I870   I     0.71755   0.55631   0.66234   0.00000  Uiso   1.00
C871   C     0.08740   0.83348   0.74969   0.00000  Uiso   1.00
C872   C     0.24593   0.83318   0.75031   0.00000  Uiso   1.00
C873   C     0.10878   0.88516   0.52553   0.00000  Uiso   1.00
C874   C     0.22454   0.78147   0.97447   0.00000  Uiso   1.00
C875   C     0.02289   0.81071   0.78454   0.00000  Uiso   1.00
C876   C     0.31044   0.85597   0.71547   0.00000  Uiso   1.00
C877   C     0.31316   0.81022   0.78447   0.00000  Uiso   1.00
C878   C     0.02017   0.85646   0.71554   0.00000  Uiso   1.00
C879   C     0.29053   0.83294   0.75003   0.00000  Uiso   1.00
C880   C     0.04280   0.83373   0.74997   0.00000  Uiso   1.00
C881   C     0.14269   0.69170   0.72004   0.00000  Uiso   1.00
C882   C     0.19064   0.97497   0.77996   0.00000  Uiso   1.00
C883   C     0.19061   0.69126   0.77998   0.00000  Uiso   1.00
C884   C     0.14273   0.97541   0.72002   0.00000  Uiso   1.00
C885   C     0.16909   0.83324   0.66448   0.00000  Uiso   1.00
C886   C     0.16425   0.83343   0.83552   0.00000  Uiso   1.00
C887   C     0.18786   0.80252   0.90700   0.00000  Uiso   1.00
C888   C     0.14545   0.86411   0.59300   0.00000  Uiso   1.00
C889   C     0.16153   0.83320   0.88386   0.00000  Uiso   1.00
C890   C     0.17182   0.83347   0.61614   0.00000  Uiso   1.00
C891   C     0.13450   0.86318   0.90692   0.00000  Uiso   1.00
C892   C     0.19887   0.80351   0.59309   0.00000  Uiso   1.00
C893   C     0.13315   0.85948   0.95392   0.00000  Uiso   1.00
C894   C     0.20021   0.80720   0.54608   0.00000  Uiso   1.00
C895   C     0.16460   0.83284   0.97665   0.00000  Uiso   1.00
C896   C     0.16875   0.83383   0.52335   0.00000  Uiso   1.00
C897   C     0.19182   0.80473   0.95278   0.00000  Uiso   1.00
C898   C     0.14151   0.86191   0.54722   0.00000  Uiso   1.00
C899   C     0.10275   0.88173   0.97972   0.00000  Uiso   1.00
C900   C     0.23059   0.78492   0.52027   0.00000  Uiso   1.00
Cu901  Cu    0.16667   0.88022   0.75000   0.00000  Uiso   1.00
Cu902  Cu    0.16667   0.78645   0.75000   0.00000  Uiso   1.00
H903   H     0.20771   0.77916   0.88900   0.00000  Uiso   1.00
H904   H     0.12557   0.88744   0.61099   0.00000  Uiso   1.00
H905   H     0.08583   0.90312   0.54482   0.00000  Uiso   1.00
H906   H     0.24746   0.76347   0.95518   0.00000  Uiso   1.00
H907   H     0.12348   0.71058   0.69605   0.00000  Uiso   1.00
H908   H     0.20985   0.95608   0.80395   0.00000  Uiso   1.00
H909   H     0.20970   0.70978   0.80405   0.00000  Uiso   1.00
H910   H     0.12363   0.95689   0.69595   0.00000  Uiso   1.00
N911   N     0.16667   0.95069   0.75000   0.00000  Uiso   1.00
N912   N     0.16667   0.71598   0.75000   0.00000  Uiso   1.00
O913   O     0.10655   0.87291   0.74999   0.00000  Uiso   1.00
O914   O     0.22679   0.79375   0.75001   0.00000  Uiso   1.00
O915   O     0.22679   0.87291   0.75001   0.00000  Uiso   1.00
O916   O     0.10655   0.79375   0.75000   0.00000  Uiso   1.00
O917   O     0.16666   0.87293   0.68513   0.00000  Uiso   1.00
O918   O     0.16668   0.79373   0.81487   0.00000  Uiso   1.00
O919   O     0.16668   0.87293   0.81487   0.00000  Uiso   1.00
O920   O     0.16666   0.79373   0.68513   0.00000  Uiso   1.00
I921   I     0.10389   0.91942   0.87106   0.00000  Uiso   1.00
I922   I     0.22954   0.74733   0.62898   0.00000  Uiso   1.00
I923   I     0.04063   0.89634   0.95879   0.00000  Uiso   1.00
I924   I     0.29272   0.77029   0.54117   0.00000  Uiso   1.00
I925   I     0.05807   0.77892   0.83827   0.00000  Uiso   1.00
I926   I     0.27526   0.88777   0.66175   0.00000  Uiso   1.00
I927   I     0.28245   0.77705   0.83767   0.00000  Uiso   1.00
I928   I     0.05088   0.88964   0.66234   0.00000  Uiso   1.00
C929   C     0.42074   0.83348   0.74969   0.00000  Uiso   1.00
C930   C     0.57926   0.83318   0.75031   0.00000  Uiso   1.00
C931   C     0.44212   0.88516   0.52553   0.00000  Uiso   1.00
C932   C     0.55787   0.78147   0.97447   0.00000  Uiso   1.00
C933   C     0.35622   0.81071   0.78454   0.00000  Uiso   1.00
C934   C     0.64378   0.85597   0.71547   0.00000  Uiso   1.00
C935   C     0.64649   0.81022   0.78447   0.00000  Uiso   1.00
C936   C     0.35351   0.85646   0.71554   0.00000  Uiso   1.00
C937   C     0.62387   0.83294   0.75003   0.00000  Uiso   1.00
C938   C     0.37613   0.83373   0.74997   0.00000  Uiso   1.00
C939   C     0.47602   0.69170   0.72004   0.00000  Uiso   1.00
C940   C     0.52398   0.97497   0.77996   0.00000  Uiso   1.00
C941   C     0.52394   0.69126   0.77998   0.00000  Uiso   1.00
C942   C     0.47606   0.97541   0.72002   0.00000  Uiso   1.00
C943   C     0.50242   0.83324   0.66448   0.00000  Uiso   1.00
C944   C     0.49758   0.83343   0.83552   0.00000  Uiso   1.00
C945   C     0.52119   0.80252   0.90700   0.00000  Uiso   1.00
C946   C     0.47879   0.86411   0.59300   0.00000  Uiso   1.00
C947   C     0.49486   0.83320   0.88386   0.00000  Uiso   1.00
C948   C     0.50515   0.83347   0.61614   0.00000  Uiso   1.00
C949   C     0.46783   0.86318   0.90692   0.00000  Uiso   1.00
C950   C     0.53221   0.80351   0.59309   0.00000  Uiso   1.00
C951   C     0.46648   0.85948   0.95392   0.00000  Uiso   1.00
C952   C     0.53355   0.80720   0.54608   0.00000  Uiso   1.00
C953   C     0.49793   0.83284   0.97665   0.00000  Uiso   1.00
C954   C     0.50208   0.83383   0.52335   0.00000  Uiso   1.00
C955   C     0.52515   0.80473   0.95278   0.00000  Uiso   1.00
C956   C     0.47484   0.86191   0.54722   0.00000  Uiso   1.00
C957   C     0.43608   0.88173   0.97972   0.00000  Uiso   1.00
C958   C     0.56393   0.78492   0.52027   0.00000  Uiso   1.00
Cu959  Cu    0.50000   0.88022   0.75000   0.00000  Uiso   1.00
Cu960  Cu    0.50000   0.78645   0.75000   0.00000  Uiso   1.00
H961   H     0.54105   0.77916   0.88900   0.00000  Uiso   1.00
H962   H     0.45890   0.88744   0.61099   0.00000  Uiso   1.00
H963   H     0.41917   0.90312   0.54482   0.00000  Uiso   1.00
H964   H     0.58080   0.76347   0.95518   0.00000  Uiso   1.00
H965   H     0.45681   0.71058   0.69605   0.00000  Uiso   1.00
H966   H     0.54319   0.95608   0.80395   0.00000  Uiso   1.00
H967   H     0.54303   0.70978   0.80405   0.00000  Uiso   1.00
H968   H     0.45697   0.95689   0.69595   0.00000  Uiso   1.00
N969   N     0.50000   0.95069   0.75000   0.00000  Uiso   1.00
N970   N     0.50000   0.71598   0.75000   0.00000  Uiso   1.00
O971   O     0.43988   0.87291   0.74999   0.00000  Uiso   1.00
O972   O     0.56012   0.79375   0.75001   0.00000  Uiso   1.00
O973   O     0.56012   0.87291   0.75001   0.00000  Uiso   1.00
O974   O     0.43988   0.79375   0.75000   0.00000  Uiso   1.00
O975   O     0.49999   0.87293   0.68513   0.00000  Uiso   1.00
O976   O     0.50001   0.79373   0.81487   0.00000  Uiso   1.00
O977   O     0.50001   0.87293   0.81487   0.00000  Uiso   1.00
O978   O     0.49999   0.79373   0.68513   0.00000  Uiso   1.00
I979   I     0.43722   0.91942   0.87106   0.00000  Uiso   1.00
I980   I     0.56287   0.74733   0.62898   0.00000  Uiso   1.00
I981   I     0.37397   0.89634   0.95879   0.00000  Uiso   1.00
I982   I     0.62606   0.77029   0.54117   0.00000  Uiso   1.00
I983   I     0.39141   0.77892   0.83827   0.00000  Uiso   1.00
I984   I     0.60859   0.88777   0.66175   0.00000  Uiso   1.00
I985   I     0.61578   0.77705   0.83767   0.00000  Uiso   1.00
I986   I     0.38421   0.88964   0.66234   0.00000  Uiso   1.00
C987   C     0.75407   0.83348   0.74969   0.00000  Uiso   1.00
C988   C     0.91260   0.83318   0.75031   0.00000  Uiso   1.00
C989   C     0.77545   0.88516   0.52553   0.00000  Uiso   1.00
C990   C     0.89120   0.78147   0.97447   0.00000  Uiso   1.00
C991   C     0.68956   0.81071   0.78454   0.00000  Uiso   1.00
C992   C     0.97711   0.85597   0.71547   0.00000  Uiso   1.00
C993   C     0.97983   0.81022   0.78447   0.00000  Uiso   1.00
C994   C     0.68684   0.85646   0.71554   0.00000  Uiso   1.00
C995   C     0.95720   0.83294   0.75003   0.00000  Uiso   1.00
C996   C     0.70947   0.83373   0.74997   0.00000  Uiso   1.00
C997   C     0.80936   0.69170   0.72004   0.00000  Uiso   1.00
C998   C     0.85731   0.97497   0.77996   0.00000  Uiso   1.00
C999   C     0.85727   0.69126   0.77998   0.00000  Uiso   1.00
C1000  C     0.80939   0.97541   0.72002   0.00000  Uiso   1.00
C1001  C     0.83576   0.83324   0.66448   0.00000  Uiso   1.00
C1002  C     0.83092   0.83343   0.83552   0.00000  Uiso   1.00
C1003  C     0.85453   0.80252   0.90700   0.00000  Uiso   1.00
C1004  C     0.81212   0.86411   0.59300   0.00000  Uiso   1.00
C1005  C     0.82820   0.83320   0.88386   0.00000  Uiso   1.00
C1006  C     0.83848   0.83347   0.61614   0.00000  Uiso   1.00
C1007  C     0.80117   0.86318   0.90692   0.00000  Uiso   1.00
C1008  C     0.86554   0.80351   0.59309   0.00000  Uiso   1.00
C1009  C     0.79981   0.85948   0.95392   0.00000  Uiso   1.00
C1010  C     0.86688   0.80720   0.54608   0.00000  Uiso   1.00
C1011  C     0.83127   0.83284   0.97665   0.00000  Uiso   1.00
C1012  C     0.83542   0.83383   0.52335   0.00000  Uiso   1.00
C1013  C     0.85848   0.80473   0.95278   0.00000  Uiso   1.00
C1014  C     0.80818   0.86191   0.54722   0.00000  Uiso   1.00
C1015  C     0.76942   0.88173   0.97972   0.00000  Uiso   1.00
C1016  C     0.89726   0.78492   0.52027   0.00000  Uiso   1.00
Cu1017 Cu    0.83333   0.88022   0.75000   0.00000  Uiso   1.00
Cu1018 Cu    0.83333   0.78645   0.75000   0.00000  Uiso   1.00
H1019  H     0.87438   0.77916   0.88900   0.00000  Uiso   1.00
H1020  H     0.79224   0.88744   0.61099   0.00000  Uiso   1.00
H1021  H     0.75250   0.90312   0.54482   0.00000  Uiso   1.00
H1022  H     0.91413   0.76347   0.95518   0.00000  Uiso   1.00
H1023  H     0.79015   0.71058   0.69605   0.00000  Uiso   1.00
H1024  H     0.87652   0.95608   0.80395   0.00000  Uiso   1.00
H1025  H     0.87637   0.70978   0.80405   0.00000  Uiso   1.00
H1026  H     0.79030   0.95689   0.69595   0.00000  Uiso   1.00
N1027  N     0.83333   0.95069   0.75000   0.00000  Uiso   1.00
N1028  N     0.83333   0.71598   0.75000   0.00000  Uiso   1.00
O1029  O     0.77321   0.87291   0.74999   0.00000  Uiso   1.00
O1030  O     0.89345   0.79375   0.75001   0.00000  Uiso   1.00
O1031  O     0.89345   0.87291   0.75001   0.00000  Uiso   1.00
O1032  O     0.77321   0.79375   0.75000   0.00000  Uiso   1.00
O1033  O     0.83332   0.87293   0.68513   0.00000  Uiso   1.00
O1034  O     0.83334   0.79373   0.81487   0.00000  Uiso   1.00
O1035  O     0.83334   0.87293   0.81487   0.00000  Uiso   1.00
O1036  O     0.83332   0.79373   0.68513   0.00000  Uiso   1.00
I1037  I     0.77056   0.91942   0.87106   0.00000  Uiso   1.00
I1038  I     0.89620   0.74733   0.62898   0.00000  Uiso   1.00
I1039  I     0.70730   0.89634   0.95879   0.00000  Uiso   1.00
I1040  I     0.95939   0.77029   0.54117   0.00000  Uiso   1.00
I1041  I     0.72474   0.77892   0.83827   0.00000  Uiso   1.00
I1042  I     0.94192   0.88777   0.66175   0.00000  Uiso   1.00
I1043  I     0.94912   0.77705   0.83767   0.00000  Uiso   1.00
I1044  I     0.71755   0.88964   0.66234   0.00000  Uiso   1.00
loop_
_geom_bond_atom_site_label_1
_geom_bond_atom_site_label_2
_geom_bond_distance
_geom_bond_site_symmetry_2
_ccdc_geom_bond_type
C1     O46     1.289   .     A
C1     O43     1.289   .     A
C1     C10     1.448   .     S
C2     O45     1.289   .     A
C2     O44     1.289   .     A
C2     C9      1.448   .     S
C3     H35     1.085   .     S
C3     C28     1.395   .     A
C3     C551    1.392   1_554 S
C4     H36     1.085   .     S
C4     C27     1.395   .     A
C4     C552    1.392   .     S
C5     C10     1.407   .     A
C5     I55     2.150   .     S
C5     C123    1.398   1_455 S
C6     C9      1.407   .     A
C6     I56     2.150   .     S
C6     C66     1.398   .     S
C7     I57     2.136   .     S
C7     C9      1.409   .     A
C7     C63     1.398   .     S
C8     C10     1.409   .     A
C8     I58     2.137   .     S
C8     C122    1.398   1_455 S
C11    N42     1.367   .     A
C11    H37     1.082   .     S
C11    C362    1.416   1_545 S
C12    N41     1.367   .     A
C12    H38     1.082   .     S
C12    C187    1.416   .     S
C13    H39     1.081   .     S
C13    N42     1.367   .     A
C13    C360    1.416   1_545 S
C14    N41     1.367   .     A
C14    H40     1.081   .     S
C14    C185    1.416   .     S
C15    O47     1.295   .     A
C15    C20     1.462   .     S
C15    O50     1.291   .     A
C16    O48     1.295   .     A
C16    C19     1.462   .     S
C16    O49     1.291   .     A
C17    H33     1.081   .     S
C17    C19     1.392   .     A
C17    C27     1.383   .     A
C18    H34     1.081   .     S
C18    C20     1.392   .     A
C18    C28     1.383   .     A
C19    C21     1.418   .     A
C20    C22     1.418   .     A
C21    C23     1.422   .     A
C21    I51     2.154   .     S
C22    I52     2.155   .     S
C22    C24     1.422   .     A
C23    C25     1.427   .     A
C23    C29     1.421   .     A
C24    C30     1.421   .     A
C24    C26     1.427   .     A
C25    C27     1.403   .     A
C25    C548    1.410   .     S
C26    C28     1.403   .     A
C26    C547    1.410   1_554 S
C29    I53     2.134   .     S
C29    C525    1.392   .     S
C30    I54     2.134   .     S
C30    C526    1.392   1_554 S
Cu31   Cu32    2.675   .     S
Cu31   O47     1.966   .     S
Cu31   O43     1.965   .     S
Cu31   O49     1.965   .     S
Cu31   O45     1.962   .     S
Cu31   N41     2.010   .     S
Cu32   O48     1.966   .     S
Cu32   O44     1.965   .     S
Cu32   O50     1.965   .     S
Cu32   N42     2.010   .     S
Cu32   O46     1.962   .     S
C59    O104    1.289   .     A
C59    O101    1.289   .     A
C59    C68     1.448   .     S
C60    O103    1.289   .     A
C60    O102    1.289   .     A
C60    C67     1.448   .     S
C61    H93     1.085   .     S
C61    C86     1.395   .     A
C61    C609    1.392   1_554 S
C62    H94     1.085   .     S
C62    C85     1.395   .     A
C62    C610    1.392   .     S
C63    C68     1.407   .     A
C63    I113    2.150   .     S
C64    C67     1.407   .     A
C64    I114    2.150   .     S
C64    C124    1.398   .     S
C65    I115    2.136   .     S
C65    C67     1.409   .     A
C65    C121    1.398   .     S
C66    C68     1.409   .     A
C66    I116    2.137   .     S
C69    N100    1.367   .     A
C69    H95     1.082   .     S
C69    C420    1.416   1_545 S
C70    N99     1.367   .     A
C70    H96     1.082   .     S
C70    C245    1.416   .     S
C71    H97     1.081   .     S
C71    N100    1.367   .     A
C71    C418    1.416   1_545 S
C72    N99     1.367   .     A
C72    H98     1.081   .     S
C72    C243    1.416   .     S
C73    O105    1.295   .     A
C73    C78     1.462   .     S
C73    O108    1.291   .     A
C74    O106    1.295   .     A
C74    C77     1.462   .     S
C74    O107    1.291   .     A
C75    H91     1.081   .     S
C75    C77     1.392   .     A
C75    C85     1.383   .     A
C76    H92     1.081   .     S
C76    C78     1.392   .     A
C76    C86     1.383   .     A
C77    C79     1.418   .     A
C78    C80     1.418   .     A
C79    C81     1.422   .     A
C79    I109    2.154   .     S
C80    I110    2.155   .     S
C80    C82     1.422   .     A
C81    C83     1.427   .     A
C81    C87     1.421   .     A
C82    C88     1.421   .     A
C82    C84     1.427   .     A
C83    C85     1.403   .     A
C83    C606    1.410   .     S
C84    C86     1.403   .     A
C84    C605    1.410   1_554 S
C87    I111    2.134   .     S
C87    C583    1.392   .     S
C88    I112    2.134   .     S
C88    C584    1.392   1_554 S
Cu89   Cu90    2.675   .     S
Cu89   O105    1.966   .     S
Cu89   O101    1.965   .     S
Cu89   O107    1.965   .     S
Cu89   O103    1.962   .     S
Cu89   N99     2.010   .     S
Cu90   O106    1.966   .     S
Cu90   O102    1.965   .     S
Cu90   O108    1.965   .     S
Cu90   N100    2.010   .     S
Cu90   O104    1.962   .     S
C117   O162    1.289   .     A
C117   O159    1.289   .     A
C117   C126    1.448   .     S
C118   O161    1.289   .     A
C118   O160    1.289   .     A
C118   C125    1.448   .     S
C119   H151    1.085   .     S
C119   C144    1.395   .     A
C119   C667    1.392   1_554 S
C120   H152    1.085   .     S
C120   C143    1.395   .     A
C120   C668    1.392   .     S
C121   C126    1.407   .     A
C121   I171    2.150   .     S
C122   C125    1.407   .     A
C122   I172    2.150   .     S
C122   C8      1.398   1_655 S
C123   I173    2.136   .     S
C123   C125    1.409   .     A
C123   C5      1.398   1_655 S
C124   C126    1.409   .     A
C124   I174    2.137   .     S
C127   N158    1.367   .     A
C127   H153    1.082   .     S
C127   C478    1.416   1_545 S
C128   N157    1.367   .     A
C128   H154    1.082   .     S
C128   C303    1.416   .     S
C129   H155    1.081   .     S
C129   N158    1.367   .     A
C129   C476    1.416   1_545 S
C130   N157    1.367   .     A
C130   H156    1.081   .     S
C130   C301    1.416   .     S
C131   O163    1.295   .     A
C131   C136    1.462   .     S
C131   O166    1.291   .     A
C132   O164    1.295   .     A
C132   C135    1.462   .     S
C132   O165    1.291   .     A
C133   H149    1.081   .     S
C133   C135    1.392   .     A
C133   C143    1.383   .     A
C134   H150    1.081   .     S
C134   C136    1.392   .     A
C134   C144    1.383   .     A
C135   C137    1.418   .     A
C136   C138    1.418   .     A
C137   C139    1.422   .     A
C137   I167    2.154   .     S
C138   I168    2.155   .     S
C138   C140    1.422   .     A
C139   C141    1.427   .     A
C139   C145    1.421   .     A
C140   C146    1.421   .     A
C140   C142    1.427   .     A
C141   C143    1.403   .     A
C141   C664    1.410   .     S
C142   C144    1.403   .     A
C142   C663    1.410   1_554 S
C145   I169    2.134   .     S
C145   C641    1.392   .     S
C146   I170    2.134   .     S
C146   C642    1.392   1_554 S
Cu147  Cu148   2.675   .     S
Cu147  O163    1.966   .     S
Cu147  O159    1.965   .     S
Cu147  O165    1.965   .     S
Cu147  O161    1.962   .     S
Cu147  N157    2.010   .     S
Cu148  O164    1.966   .     S
Cu148  O160    1.965   .     S
Cu148  O166    1.965   .     S
Cu148  N158    2.010   .     S
Cu148  O162    1.962   .     S
C175   O220    1.289   .     A
C175   O217    1.289   .     A
C175   C184    1.448   .     S
C176   O219    1.289   .     A
C176   O218    1.289   .     A
C176   C183    1.448   .     S
C177   H209    1.085   .     S
C177   C202    1.395   .     A
C177   C725    1.392   1_554 S
C178   H210    1.085   .     S
C178   C201    1.395   .     A
C178   C726    1.392   .     S
C179   C184    1.407   .     A
C179   I229    2.150   .     S
C179   C297    1.398   1_455 S
C180   C183    1.407   .     A
C180   I230    2.150   .     S
C180   C240    1.398   .     S
C181   I231    2.136   .     S
C181   C183    1.409   .     A
C181   C237    1.398   .     S
C182   C184    1.409   .     A
C182   I232    2.137   .     S
C182   C296    1.398   1_455 S
C185   N216    1.367   .     A
C185   H211    1.082   .     S
C186   N215    1.367   .     A
C186   H212    1.082   .     S
C186   C361    1.416   .     S
C187   H213    1.081   .     S
C187   N216    1.367   .     A
C188   N215    1.367   .     A
C188   H214    1.081   .     S
C188   C359    1.416   .     S
C189   O221    1.295   .     A
C189   C194    1.462   .     S
C189   O224    1.291   .     A
C190   O222    1.295   .     A
C190   C193    1.462   .     S
C190   O223    1.291   .     A
C191   H207    1.081   .     S
C191   C193    1.392   .     A
C191   C201    1.383   .     A
C192   H208    1.081   .     S
C192   C194    1.392   .     A
C192   C202    1.383   .     A
C193   C195    1.418   .     A
C194   C196    1.418   .     A
C195   C197    1.422   .     A
C195   I225    2.154   .     S
C196   I226    2.155   .     S
C196   C198    1.422   .     A
C197   C199    1.427   .     A
C197   C203    1.421   .     A
C198   C204    1.421   .     A
C198   C200    1.427   .     A
C199   C201    1.403   .     A
C199   C722    1.410   .     S
C200   C202    1.403   .     A
C200   C721    1.410   1_554 S
C203   I227    2.134   .     S
C203   C699    1.392   .     S
C204   I228    2.134   .     S
C204   C700    1.392   1_554 S
Cu205  Cu206   2.675   .     S
Cu205  O221    1.966   .     S
Cu205  O217    1.965   .     S
Cu205  O223    1.965   .     S
Cu205  O219    1.962   .     S
Cu205  N215    2.010   .     S
Cu206  O222    1.966   .     S
Cu206  O218    1.965   .     S
Cu206  O224    1.965   .     S
Cu206  N216    2.010   .     S
Cu206  O220    1.962   .     S
C233   O278    1.289   .     A
C233   O275    1.289   .     A
C233   C242    1.448   .     S
C234   O277    1.289   .     A
C234   O276    1.289   .     A
C234   C241    1.448   .     S
C235   H267    1.085   .     S
C235   C260    1.395   .     A
C235   C783    1.392   1_554 S
C236   H268    1.085   .     S
C236   C259    1.395   .     A
C236   C784    1.392   .     S
C237   C242    1.407   .     A
C237   I287    2.150   .     S
C238   C241    1.407   .     A
C238   I288    2.150   .     S
C238   C298    1.398   .     S
C239   I289    2.136   .     S
C239   C241    1.409   .     A
C239   C295    1.398   .     S
C240   C242    1.409   .     A
C240   I290    2.137   .     S
C243   N274    1.367   .     A
C243   H269    1.082   .     S
C244   N273    1.367   .     A
C244   H270    1.082   .     S
C244   C419    1.416   .     S
C245   H271    1.081   .     S
C245   N274    1.367   .     A
C246   N273    1.367   .     A
C246   H272    1.081   .     S
C246   C417    1.416   .     S
C247   O279    1.295   .     A
C247   C252    1.462   .     S
C247   O282    1.291   .     A
C248   O280    1.295   .     A
C248   C251    1.462   .     S
C248   O281    1.291   .     A
C249   H265    1.081   .     S
C249   C251    1.392   .     A
C249   C259    1.383   .     A
C250   H266    1.081   .     S
C250   C252    1.392   .     A
C250   C260    1.383   .     A
C251   C253    1.418   .     A
C252   C254    1.418   .     A
C253   C255    1.422   .     A
C253   I283    2.154   .     S
C254   I284    2.155   .     S
C254   C256    1.422   .     A
C255   C257    1.427   .     A
C255   C261    1.421   .     A
C256   C262    1.421   .     A
C256   C258    1.427   .     A
C257   C259    1.403   .     A
C257   C780    1.410   .     S
C258   C260    1.403   .     A
C258   C779    1.410   1_554 S
C261   I285    2.134   .     S
C261   C757    1.392   .     S
C262   I286    2.134   .     S
C262   C758    1.392   1_554 S
Cu263  Cu264   2.675   .     S
Cu263  O279    1.966   .     S
Cu263  O275    1.965   .     S
Cu263  O281    1.965   .     S
Cu263  O277    1.962   .     S
Cu263  N273    2.010   .     S
Cu264  O280    1.966   .     S
Cu264  O276    1.965   .     S
Cu264  O282    1.965   .     S
Cu264  N274    2.010   .     S
Cu264  O278    1.962   .     S
C291   O336    1.289   .     A
C291   O333    1.289   .     A
C291   C300    1.448   .     S
C292   O335    1.289   .     A
C292   O334    1.289   .     A
C292   C299    1.448   .     S
C293   H325    1.085   .     S
C293   C318    1.395   .     A
C293   C841    1.392   1_554 S
C294   H326    1.085   .     S
C294   C317    1.395   .     A
C294   C842    1.392   .     S
C295   C300    1.407   .     A
C295   I345    2.150   .     S
C296   C299    1.407   .     A
C296   I346    2.150   .     S
C296   C182    1.398   1_655 S
C297   I347    2.136   .     S
C297   C299    1.409   .     A
C297   C179    1.398   1_655 S
C298   C300    1.409   .     A
C298   I348    2.137   .     S
C301   N332    1.367   .     A
C301   H327    1.082   .     S
C302   N331    1.367   .     A
C302   H328    1.082   .     S
C302   C477    1.416   .     S
C303   H329    1.081   .     S
C303   N332    1.367   .     A
C304   N331    1.367   .     A
C304   H330    1.081   .     S
C304   C475    1.416   .     S
C305   O337    1.295   .     A
C305   C310    1.462   .     S
C305   O340    1.291   .     A
C306   O338    1.295   .     A
C306   C309    1.462   .     S
C306   O339    1.291   .     A
C307   H323    1.081   .     S
C307   C309    1.392   .     A
C307   C317    1.383   .     A
C308   H324    1.081   .     S
C308   C310    1.392   .     A
C308   C318    1.383   .     A
C309   C311    1.418   .     A
C310   C312    1.418   .     A
C311   C313    1.422   .     A
C311   I341    2.154   .     S
C312   I342    2.155   .     S
C312   C314    1.422   .     A
C313   C315    1.427   .     A
C313   C319    1.421   .     A
C314   C320    1.421   .     A
C314   C316    1.427   .     A
C315   C317    1.403   .     A
C315   C838    1.410   .     S
C316   C318    1.403   .     A
C316   C837    1.410   1_554 S
C319   I343    2.134   .     S
C319   C815    1.392   .     S
C320   I344    2.134   .     S
C320   C816    1.392   1_554 S
Cu321  Cu322   2.675   .     S
Cu321  O337    1.966   .     S
Cu321  O333    1.965   .     S
Cu321  O339    1.965   .     S
Cu321  O335    1.962   .     S
Cu321  N331    2.010   .     S
Cu322  O338    1.966   .     S
Cu322  O334    1.965   .     S
Cu322  O340    1.965   .     S
Cu322  N332    2.010   .     S
Cu322  O336    1.962   .     S
C349   O394    1.289   .     A
C349   O391    1.289   .     A
C349   C358    1.448   .     S
C350   O393    1.289   .     A
C350   O392    1.289   .     A
C350   C357    1.448   .     S
C351   H383    1.085   .     S
C351   C376    1.395   .     A
C351   C899    1.392   1_554 S
C352   H384    1.085   .     S
C352   C375    1.395   .     A
C352   C900    1.392   .     S
C353   C358    1.407   .     A
C353   I403    2.150   .     S
C353   C471    1.398   1_455 S
C354   C357    1.407   .     A
C354   I404    2.150   .     S
C354   C414    1.398   .     S
C355   I405    2.136   .     S
C355   C357    1.409   .     A
C355   C411    1.398   .     S
C356   C358    1.409   .     A
C356   I406    2.137   .     S
C356   C470    1.398   1_455 S
C359   N390    1.367   .     A
C359   H385    1.082   .     S
C360   N389    1.367   .     A
C360   H386    1.082   .     S
C360   C13     1.416   1_565 S
C361   H387    1.081   .     S
C361   N390    1.367   .     A
C362   N389    1.367   .     A
C362   H388    1.081   .     S
C362   C11     1.416   1_565 S
C363   O395    1.295   .     A
C363   C368    1.462   .     S
C363   O398    1.291   .     A
C364   O396    1.295   .     A
C364   C367    1.462   .     S
C364   O397    1.291   .     A
C365   H381    1.081   .     S
C365   C367    1.392   .     A
C365   C375    1.383   .     A
C366   H382    1.081   .     S
C366   C368    1.392   .     A
C366   C376    1.383   .     A
C367   C369    1.418   .     A
C368   C370    1.418   .     A
C369   C371    1.422   .     A
C369   I399    2.154   .     S
C370   I400    2.155   .     S
C370   C372    1.422   .     A
C371   C373    1.427   .     A
C371   C377    1.421   .     A
C372   C378    1.421   .     A
C372   C374    1.427   .     A
C373   C375    1.403   .     A
C373   C896    1.410   .     S
C374   C376    1.403   .     A
C374   C895    1.410   1_554 S
C377   I401    2.134   .     S
C377   C873    1.392   .     S
C378   I402    2.134   .     S
C378   C874    1.392   1_554 S
Cu379  Cu380   2.675   .     S
Cu379  O395    1.966   .     S
Cu379  O391    1.965   .     S
Cu379  O397    1.965   .     S
Cu379  O393    1.962   .     S
Cu379  N389    2.010   .     S
Cu380  O396    1.966   .     S
Cu380  O392    1.965   .     S
Cu380  O398    1.965   .     S
Cu380  N390    2.010   .     S
Cu380  O394    1.962   .     S
C407   O452    1.289   .     A
C407   O449    1.289   .     A
C407   C416    1.448   .     S
C408   O451    1.289   .     A
C408   O450    1.289   .     A
C408   C415    1.448   .     S
C409   H441    1.085   .     S
C409   C434    1.395   .     A
C409   C957    1.392   1_554 S
C410   H442    1.085   .     S
C410   C433    1.395   .     A
C410   C958    1.392   .     S
C411   C416    1.407   .     A
C411   I461    2.150   .     S
C412   C415    1.407   .     A
C412   I462    2.150   .     S
C412   C472    1.398   .     S
C413   I463    2.136   .     S
C413   C415    1.409   .     A
C413   C469    1.398   .     S
C414   C416    1.409   .     A
C414   I464    2.137   .     S
C417   N448    1.367   .     A
C417   H443    1.082   .     S
C418   N447    1.367   .     A
C418   H444    1.082   .     S
C418   C71     1.416   1_565 S
C419   H445    1.081   .     S
C419   N448    1.367   .     A
C420   N447    1.367   .     A
C420   H446    1.081   .     S
C420   C69     1.416   1_565 S
C421   O453    1.295   .     A
C421   C426    1.462   .     S
C421   O456    1.291   .     A
C422   O454    1.295   .     A
C422   C425    1.462   .     S
C422   O455    1.291   .     A
C423   H439    1.081   .     S
C423   C425    1.392   .     A
C423   C433    1.383   .     A
C424   H440    1.081   .     S
C424   C426    1.392   .     A
C424   C434    1.383   .     A
C425   C427    1.418   .     A
C426   C428    1.418   .     A
C427   C429    1.422   .     A
C427   I457    2.154   .     S
C428   I458    2.155   .     S
C428   C430    1.422   .     A
C429   C431    1.427   .     A
C429   C435    1.421   .     A
C430   C436    1.421   .     A
C430   C432    1.427   .     A
C431   C433    1.403   .     A
C431   C954    1.410   .     S
C432   C434    1.403   .     A
C432   C953    1.410   1_554 S
C435   I459    2.134   .     S
C435   C931    1.392   .     S
C436   I460    2.134   .     S
C436   C932    1.392   1_554 S
Cu437  Cu438   2.675   .     S
Cu437  O453    1.966   .     S
Cu437  O449    1.965   .     S
Cu437  O455    1.965   .     S
Cu437  O451    1.962   .     S
Cu437  N447    2.010   .     S
Cu438  O454    1.966   .     S
Cu438  O450    1.965   .     S
Cu438  O456    1.965   .     S
Cu438  N448    2.010   .     S
Cu438  O452    1.962   .     S
C465   O510    1.289   .     A
C465   O507    1.289   .     A
C465   C474    1.448   .     S
C466   O509    1.289   .     A
C466   O508    1.289   .     A
C466   C473    1.448   .     S
C467   H499    1.085   .     S
C467   C492    1.395   .     A
C467   C1015   1.392   1_554 S
C468   H500    1.085   .     S
C468   C491    1.395   .     A
C468   C1016   1.392   .     S
C469   C474    1.407   .     A
C469   I519    2.150   .     S
C470   C473    1.407   .     A
C470   I520    2.150   .     S
C470   C356    1.398   1_655 S
C471   I521    2.136   .     S
C471   C473    1.409   .     A
C471   C353    1.398   1_655 S
C472   C474    1.409   .     A
C472   I522    2.137   .     S
C475   N506    1.367   .     A
C475   H501    1.082   .     S
C476   N505    1.367   .     A
C476   H502    1.082   .     S
C476   C129    1.416   1_565 S
C477   H503    1.081   .     S
C477   N506    1.367   .     A
C478   N505    1.367   .     A
C478   H504    1.081   .     S
C478   C127    1.416   1_565 S
C479   O511    1.295   .     A
C479   C484    1.462   .     S
C479   O514    1.291   .     A
C480   O512    1.295   .     A
C480   C483    1.462   .     S
C480   O513    1.291   .     A
C481   H497    1.081   .     S
C481   C483    1.392   .     A
C481   C491    1.383   .     A
C482   H498    1.081   .     S
C482   C484    1.392   .     A
C482   C492    1.383   .     A
C483   C485    1.418   .     A
C484   C486    1.418   .     A
C485   C487    1.422   .     A
C485   I515    2.154   .     S
C486   I516    2.155   .     S
C486   C488    1.422   .     A
C487   C489    1.427   .     A
C487   C493    1.421   .     A
C488   C494    1.421   .     A
C488   C490    1.427   .     A
C489   C491    1.403   .     A
C489   C1012   1.410   .     S
C490   C492    1.403   .     A
C490   C1011   1.410   1_554 S
C493   I517    2.134   .     S
C493   C989    1.392   .     S
C494   I518    2.134   .     S
C494   C990    1.392   1_554 S
Cu495  Cu496   2.675   .     S
Cu495  O511    1.966   .     S
Cu495  O507    1.965   .     S
Cu495  O513    1.965   .     S
Cu495  O509    1.962   .     S
Cu495  N505    2.010   .     S
Cu496  O512    1.966   .     S
Cu496  O508    1.965   .     S
Cu496  O514    1.965   .     S
Cu496  N506    2.010   .     S
Cu496  O510    1.962   .     S
C523   O568    1.289   .     A
C523   O565    1.289   .     A
C523   C532    1.448   .     S
C524   O567    1.289   .     A
C524   O566    1.289   .     A
C524   C531    1.448   .     S
C525   H557    1.085   .     S
C525   C550    1.395   .     A
C526   H558    1.085   .     S
C526   C549    1.395   .     A
C526   C30     1.392   1_556 S
C527   C532    1.407   .     A
C527   I577    2.150   .     S
C527   C645    1.398   1_455 S
C528   C531    1.407   .     A
C528   I578    2.150   .     S
C528   C588    1.398   .     S
C529   I579    2.136   .     S
C529   C531    1.409   .     A
C529   C585    1.398   .     S
C530   C532    1.409   .     A
C530   I580    2.137   .     S
C530   C644    1.398   1_455 S
C533   N564    1.367   .     A
C533   H559    1.082   .     S
C533   C884    1.416   1_545 S
C534   N563    1.367   .     A
C534   H560    1.082   .     S
C534   C709    1.416   .     S
C535   H561    1.081   .     S
C535   N564    1.367   .     A
C535   C882    1.416   1_545 S
C536   N563    1.367   .     A
C536   H562    1.081   .     S
C536   C707    1.416   .     S
C537   O569    1.295   .     A
C537   C542    1.462   .     S
C537   O572    1.291   .     A
C538   O570    1.295   .     A
C538   C541    1.462   .     S
C538   O571    1.291   .     A
C539   H555    1.081   .     S
C539   C541    1.392   .     A
C539   C549    1.383   .     A
C540   H556    1.081   .     S
C540   C542    1.392   .     A
C540   C550    1.383   .     A
C541   C543    1.418   .     A
C542   C544    1.418   .     A
C543   C545    1.422   .     A
C543   I573    2.154   .     S
C544   I574    2.155   .     S
C544   C546    1.422   .     A
C545   C547    1.427   .     A
C545   C551    1.421   .     A
C546   C552    1.421   .     A
C546   C548    1.427   .     A
C547   C549    1.403   .     A
C547   C26     1.410   1_556 S
C548   C550    1.403   .     A
C551   I575    2.134   .     S
C551   C3      1.392   1_556 S
C552   I576    2.134   .     S
Cu553  Cu554   2.675   .     S
Cu553  O569    1.966   .     S
Cu553  O565    1.965   .     S
Cu553  O571    1.965   .     S
Cu553  O567    1.962   .     S
Cu553  N563    2.010   .     S
Cu554  O570    1.966   .     S
Cu554  O566    1.965   .     S
Cu554  O572    1.965   .     S
Cu554  N564    2.010   .     S
Cu554  O568    1.962   .     S
C581   O626    1.289   .     A
C581   O623    1.289   .     A
C581   C590    1.448   .     S
C582   O625    1.289   .     A
C582   O624    1.289   .     A
C582   C589    1.448   .     S
C583   H615    1.085   .     S
C583   C608    1.395   .     A
C584   H616    1.085   .     S
C584   C607    1.395   .     A
C584   C88     1.392   1_556 S
C585   C590    1.407   .     A
C585   I635    2.150   .     S
C586   C589    1.407   .     A
C586   I636    2.150   .     S
C586   C646    1.398   .     S
C587   I637    2.136   .     S
C587   C589    1.409   .     A
C587   C643    1.398   .     S
C588   C590    1.409   .     A
C588   I638    2.137   .     S
C591   N622    1.367   .     A
C591   H617    1.082   .     S
C591   C942    1.416   1_545 S
C592   N621    1.367   .     A
C592   H618    1.082   .     S
C592   C767    1.416   .     S
C593   H619    1.081   .     S
C593   N622    1.367   .     A
C593   C940    1.416   1_545 S
C594   N621    1.367   .     A
C594   H620    1.081   .     S
C594   C765    1.416   .     S
C595   O627    1.295   .     A
C595   C600    1.462   .     S
C595   O630    1.291   .     A
C596   O628    1.295   .     A
C596   C599    1.462   .     S
C596   O629    1.291   .     A
C597   H613    1.081   .     S
C597   C599    1.392   .     A
C597   C607    1.383   .     A
C598   H614    1.081   .     S
C598   C600    1.392   .     A
C598   C608    1.383   .     A
C599   C601    1.418   .     A
C600   C602    1.418   .     A
C601   C603    1.422   .     A
C601   I631    2.154   .     S
C602   I632    2.155   .     S
C602   C604    1.422   .     A
C603   C605    1.427   .     A
C603   C609    1.421   .     A
C604   C610    1.421   .     A
C604   C606    1.427   .     A
C605   C607    1.403   .     A
C605   C84     1.410   1_556 S
C606   C608    1.403   .     A
C609   I633    2.134   .     S
C609   C61     1.392   1_556 S
C610   I634    2.134   .     S
Cu611  Cu612   2.675   .     S
Cu611  O627    1.966   .     S
Cu611  O623    1.965   .     S
Cu611  O629    1.965   .     S
Cu611  O625    1.962   .     S
Cu611  N621    2.010   .     S
Cu612  O628    1.966   .     S
Cu612  O624    1.965   .     S
Cu612  O630    1.965   .     S
Cu612  N622    2.010   .     S
Cu612  O626    1.962   .     S
C639   O684    1.289   .     A
C639   O681    1.289   .     A
C639   C648    1.448   .     S
C640   O683    1.289   .     A
C640   O682    1.289   .     A
C640   C647    1.448   .     S
C641   H673    1.085   .     S
C641   C666    1.395   .     A
C642   H674    1.085   .     S
C642   C665    1.395   .     A
C642   C146    1.392   1_556 S
C643   C648    1.407   .     A
C643   I693    2.150   .     S
C644   C647    1.407   .     A
C644   I694    2.150   .     S
C644   C530    1.398   1_655 S
C645   I695    2.136   .     S
C645   C647    1.409   .     A
C645   C527    1.398   1_655 S
C646   C648    1.409   .     A
C646   I696    2.137   .     S
C649   N680    1.367   .     A
C649   H675    1.082   .     S
C649   C1000   1.416   1_545 S
C650   N679    1.367   .     A
C650   H676    1.082   .     S
C650   C825    1.416   .     S
C651   H677    1.081   .     S
C651   N680    1.367   .     A
C651   C998    1.416   1_545 S
C652   N679    1.367   .     A
C652   H678    1.081   .     S
C652   C823    1.416   .     S
C653   O685    1.295   .     A
C653   C658    1.462   .     S
C653   O688    1.291   .     A
C654   O686    1.295   .     A
C654   C657    1.462   .     S
C654   O687    1.291   .     A
C655   H671    1.081   .     S
C655   C657    1.392   .     A
C655   C665    1.383   .     A
C656   H672    1.081   .     S
C656   C658    1.392   .     A
C656   C666    1.383   .     A
C657   C659    1.418   .     A
C658   C660    1.418   .     A
C659   C661    1.422   .     A
C659   I689    2.154   .     S
C660   I690    2.155   .     S
C660   C662    1.422   .     A
C661   C663    1.427   .     A
C661   C667    1.421   .     A
C662   C668    1.421   .     A
C662   C664    1.427   .     A
C663   C665    1.403   .     A
C663   C142    1.410   1_556 S
C664   C666    1.403   .     A
C667   I691    2.134   .     S
C667   C119    1.392   1_556 S
C668   I692    2.134   .     S
Cu669  Cu670   2.675   .     S
Cu669  O685    1.966   .     S
Cu669  O681    1.965   .     S
Cu669  O687    1.965   .     S
Cu669  O683    1.962   .     S
Cu669  N679    2.010   .     S
Cu670  O686    1.966   .     S
Cu670  O682    1.965   .     S
Cu670  O688    1.965   .     S
Cu670  N680    2.010   .     S
Cu670  O684    1.962   .     S
C697   O742    1.289   .     A
C697   O739    1.289   .     A
C697   C706    1.448   .     S
C698   O741    1.289   .     A
C698   O740    1.289   .     A
C698   C705    1.448   .     S
C699   H731    1.085   .     S
C699   C724    1.395   .     A
C700   H732    1.085   .     S
C700   C723    1.395   .     A
C700   C204    1.392   1_556 S
C701   C706    1.407   .     A
C701   I751    2.150   .     S
C701   C819    1.398   1_455 S
C702   C705    1.407   .     A
C702   I752    2.150   .     S
C702   C762    1.398   .     S
C703   I753    2.136   .     S
C703   C705    1.409   .     A
C703   C759    1.398   .     S
C704   C706    1.409   .     A
C704   I754    2.137   .     S
C704   C818    1.398   1_455 S
C707   N738    1.367   .     A
C707   H733    1.082   .     S
C708   N737    1.367   .     A
C708   H734    1.082   .     S
C708   C883    1.416   .     S
C709   H735    1.081   .     S
C709   N738    1.367   .     A
C710   N737    1.367   .     A
C710   H736    1.081   .     S
C710   C881    1.416   .     S
C711   O743    1.295   .     A
C711   C716    1.462   .     S
C711   O746    1.291   .     A
C712   O744    1.295   .     A
C712   C715    1.462   .     S
C712   O745    1.291   .     A
C713   H729    1.081   .     S
C713   C715    1.392   .     A
C713   C723    1.383   .     A
C714   H730    1.081   .     S
C714   C716    1.392   .     A
C714   C724    1.383   .     A
C715   C717    1.418   .     A
C716   C718    1.418   .     A
C717   C719    1.422   .     A
C717   I747    2.154   .     S
C718   I748    2.155   .     S
C718   C720    1.422   .     A
C719   C721    1.427   .     A
C719   C725    1.421   .     A
C720   C726    1.421   .     A
C720   C722    1.427   .     A
C721   C723    1.403   .     A
C721   C200    1.410   1_556 S
C722   C724    1.403   .     A
C725   I749    2.134   .     S
C725   C177    1.392   1_556 S
C726   I750    2.134   .     S
Cu727  Cu728   2.675   .     S
Cu727  O743    1.966   .     S
Cu727  O739    1.965   .     S
Cu727  O745    1.965   .     S
Cu727  O741    1.962   .     S
Cu727  N737    2.010   .     S
Cu728  O744    1.966   .     S
Cu728  O740    1.965   .     S
Cu728  O746    1.965   .     S
Cu728  N738    2.010   .     S
Cu728  O742    1.962   .     S
C755   O800    1.289   .     A
C755   O797    1.289   .     A
C755   C764    1.448   .     S
C756   O799    1.289   .     A
C756   O798    1.289   .     A
C756   C763    1.448   .     S
C757   H789    1.085   .     S
C757   C782    1.395   .     A
C758   H790    1.085   .     S
C758   C781    1.395   .     A
C758   C262    1.392   1_556 S
C759   C764    1.407   .     A
C759   I809    2.150   .     S
C760   C763    1.407   .     A
C760   I810    2.150   .     S
C760   C820    1.398   .     S
C761   I811    2.136   .     S
C761   C763    1.409   .     A
C761   C817    1.398   .     S
C762   C764    1.409   .     A
C762   I812    2.137   .     S
C765   N796    1.367   .     A
C765   H791    1.082   .     S
C766   N795    1.367   .     A
C766   H792    1.082   .     S
C766   C941    1.416   .     S
C767   H793    1.081   .     S
C767   N796    1.367   .     A
C768   N795    1.367   .     A
C768   H794    1.081   .     S
C768   C939    1.416   .     S
C769   O801    1.295   .     A
C769   C774    1.462   .     S
C769   O804    1.291   .     A
C770   O802    1.295   .     A
C770   C773    1.462   .     S
C770   O803    1.291   .     A
C771   H787    1.081   .     S
C771   C773    1.392   .     A
C771   C781    1.383   .     A
C772   H788    1.081   .     S
C772   C774    1.392   .     A
C772   C782    1.383   .     A
C773   C775    1.418   .     A
C774   C776    1.418   .     A
C775   C777    1.422   .     A
C775   I805    2.154   .     S
C776   I806    2.155   .     S
C776   C778    1.422   .     A
C777   C779    1.427   .     A
C777   C783    1.421   .     A
C778   C784    1.421   .     A
C778   C780    1.427   .     A
C779   C781    1.403   .     A
C779   C258    1.410   1_556 S
C780   C782    1.403   .     A
C783   I807    2.134   .     S
C783   C235    1.392   1_556 S
C784   I808    2.134   .     S
Cu785  Cu786   2.675   .     S
Cu785  O801    1.966   .     S
Cu785  O797    1.965   .     S
Cu785  O803    1.965   .     S
Cu785  O799    1.962   .     S
Cu785  N795    2.010   .     S
Cu786  O802    1.966   .     S
Cu786  O798    1.965   .     S
Cu786  O804    1.965   .     S
Cu786  N796    2.010   .     S
Cu786  O800    1.962   .     S
C813   O858    1.289   .     A
C813   O855    1.289   .     A
C813   C822    1.448   .     S
C814   O857    1.289   .     A
C814   O856    1.289   .     A
C814   C821    1.448   .     S
C815   H847    1.085   .     S
C815   C840    1.395   .     A
C816   H848    1.085   .     S
C816   C839    1.395   .     A
C816   C320    1.392   1_556 S
C817   C822    1.407   .     A
C817   I867    2.150   .     S
C818   C821    1.407   .     A
C818   I868    2.150   .     S
C818   C704    1.398   1_655 S
C819   I869    2.136   .     S
C819   C821    1.409   .     A
C819   C701    1.398   1_655 S
C820   C822    1.409   .     A
C820   I870    2.137   .     S
C823   N854    1.367   .     A
C823   H849    1.082   .     S
C824   N853    1.367   .     A
C824   H850    1.082   .     S
C824   C999    1.416   .     S
C825   H851    1.081   .     S
C825   N854    1.367   .     A
C826   N853    1.367   .     A
C826   H852    1.081   .     S
C826   C997    1.416   .     S
C827   O859    1.295   .     A
C827   C832    1.462   .     S
C827   O862    1.291   .     A
C828   O860    1.295   .     A
C828   C831    1.462   .     S
C828   O861    1.291   .     A
C829   H845    1.081   .     S
C829   C831    1.392   .     A
C829   C839    1.383   .     A
C830   H846    1.081   .     S
C830   C832    1.392   .     A
C830   C840    1.383   .     A
C831   C833    1.418   .     A
C832   C834    1.418   .     A
C833   C835    1.422   .     A
C833   I863    2.154   .     S
C834   I864    2.155   .     S
C834   C836    1.422   .     A
C835   C837    1.427   .     A
C835   C841    1.421   .     A
C836   C842    1.421   .     A
C836   C838    1.427   .     A
C837   C839    1.403   .     A
C837   C316    1.410   1_556 S
C838   C840    1.403   .     A
C841   I865    2.134   .     S
C841   C293    1.392   1_556 S
C842   I866    2.134   .     S
Cu843  Cu844   2.675   .     S
Cu843  O859    1.966   .     S
Cu843  O855    1.965   .     S
Cu843  O861    1.965   .     S
Cu843  O857    1.962   .     S
Cu843  N853    2.010   .     S
Cu844  O860    1.966   .     S
Cu844  O856    1.965   .     S
Cu844  O862    1.965   .     S
Cu844  N854    2.010   .     S
Cu844  O858    1.962   .     S
C871   O916    1.289   .     A
C871   O913    1.289   .     A
C871   C880    1.448   .     S
C872   O915    1.289   .     A
C872   O914    1.289   .     A
C872   C879    1.448   .     S
C873   H905    1.085   .     S
C873   C898    1.395   .     A
C874   H906    1.085   .     S
C874   C897    1.395   .     A
C874   C378    1.392   1_556 S
C875   C880    1.407   .     A
C875   I925    2.150   .     S
C875   C993    1.398   1_455 S
C876   C879    1.407   .     A
C876   I926    2.150   .     S
C876   C936    1.398   .     S
C877   I927    2.136   .     S
C877   C879    1.409   .     A
C877   C933    1.398   .     S
C878   C880    1.409   .     A
C878   I928    2.137   .     S
C878   C992    1.398   1_455 S
C881   N912    1.367   .     A
C881   H907    1.082   .     S
C882   N911    1.367   .     A
C882   H908    1.082   .     S
C882   C535    1.416   1_565 S
C883   H909    1.081   .     S
C883   N912    1.367   .     A
C884   N911    1.367   .     A
C884   H910    1.081   .     S
C884   C533    1.416   1_565 S
C885   O917    1.295   .     A
C885   C890    1.462   .     S
C885   O920    1.291   .     A
C886   O918    1.295   .     A
C886   C889    1.462   .     S
C886   O919    1.291   .     A
C887   H903    1.081   .     S
C887   C889    1.392   .     A
C887   C897    1.383   .     A
C888   H904    1.081   .     S
C888   C890    1.392   .     A
C888   C898    1.383   .     A
C889   C891    1.418   .     A
C890   C892    1.418   .     A
C891   C893    1.422   .     A
C891   I921    2.154   .     S
C892   I922    2.155   .     S
C892   C894    1.422   .     A
C893   C895    1.427   .     A
C893   C899    1.421   .     A
C894   C900    1.421   .     A
C894   C896    1.427   .     A
C895   C897    1.403   .     A
C895   C374    1.410   1_556 S
C896   C898    1.403   .     A
C899   I923    2.134   .     S
C899   C351    1.392   1_556 S
C900   I924    2.134   .     S
Cu901  Cu902   2.675   .     S
Cu901  O917    1.966   .     S
Cu901  O913    1.965   .     S
Cu901  O919    1.965   .     S
Cu901  O915    1.962   .     S
Cu901  N911    2.010   .     S
Cu902  O918    1.966   .     S
Cu902  O914    1.965   .     S
Cu902  O920    1.965   .     S
Cu902  N912    2.010   .     S
Cu902  O916    1.962   .     S
C929   O974    1.289   .     A
C929   O971    1.289   .     A
C929   C938    1.448   .     S
C930   O973    1.289   .     A
C930   O972    1.289   .     A
C930   C937    1.448   .     S
C931   H963    1.085   .     S
C931   C956    1.395   .     A
C932   H964    1.085   .     S
C932   C955    1.395   .     A
C932   C436    1.392   1_556 S
C933   C938    1.407   .     A
C933   I983    2.150   .     S
C934   C937    1.407   .     A
C934   I984    2.150   .     S
C934   C994    1.398   .     S
C935   I985    2.136   .     S
C935   C937    1.409   .     A
C935   C991    1.398   .     S
C936   C938    1.409   .     A
C936   I986    2.137   .     S
C939   N970    1.367   .     A
C939   H965    1.082   .     S
C940   N969    1.367   .     A
C940   H966    1.082   .     S
C940   C593    1.416   1_565 S
C941   H967    1.081   .     S
C941   N970    1.367   .     A
C942   N969    1.367   .     A
C942   H968    1.081   .     S
C942   C591    1.416   1_565 S
C943   O975    1.295   .     A
C943   C948    1.462   .     S
C943   O978    1.291   .     A
C944   O976    1.295   .     A
C944   C947    1.462   .     S
C944   O977    1.291   .     A
C945   H961    1.081   .     S
C945   C947    1.392   .     A
C945   C955    1.383   .     A
C946   H962    1.081   .     S
C946   C948    1.392   .     A
C946   C956    1.383   .     A
C947   C949    1.418   .     A
C948   C950    1.418   .     A
C949   C951    1.422   .     A
C949   I979    2.154   .     S
C950   I980    2.155   .     S
C950   C952    1.422   .     A
C951   C953    1.427   .     A
C951   C957    1.421   .     A
C952   C958    1.421   .     A
C952   C954    1.427   .     A
C953   C955    1.403   .     A
C953   C432    1.410   1_556 S
C954   C956    1.403   .     A
C957   I981    2.134   .     S
C957   C409    1.392   1_556 S
C958   I982    2.134   .     S
Cu959  Cu960   2.675   .     S
Cu959  O975    1.966   .     S
Cu959  O971    1.965   .     S
Cu959  O977    1.965   .     S
Cu959  O973    1.962   .     S
Cu959  N969    2.010   .     S
Cu960  O976    1.966   .     S
Cu960  O972    1.965   .     S
Cu960  O978    1.965   .     S
Cu960  N970    2.010   .     S
Cu960  O974    1.962   .     S
C987   O1032   1.289   .     A
C987   O1029   1.289   .     A
C987   C996    1.448   .     S
C988   O1031   1.289   .     A
C988   O1030   1.289   .     A
C988   C995    1.448   .     S
C989   H1021   1.085   .     S
C989   C1014   1.395   .     A
C990   H1022   1.085   .     S
C990   C1013   1.395   .     A
C990   C494    1.392   1_556 S
C991   C996    1.407   .     A
C991   I1041   2.150   .     S
C992   C995    1.407   .     A
C992   I1042   2.150   .     S
C992   C878    1.398   1_655 S
C993   I1043   2.136   .     S
C993   C995    1.409   .     A
C993   C875    1.398   1_655 S
C994   C996    1.409   .     A
C994   I1044   2.137   .     S
C997   N1028   1.367   .     A
C997   H1023   1.082   .     S
C998   N1027   1.367   .     A
C998   H1024   1.082   .     S
C998   C651    1.416   1_565 S
C999   H1025   1.081   .     S
C999   N1028   1.367   .     A
C1000  N1027   1.367   .     A
C1000  H1026   1.081   .     S
C1000  C649    1.416   1_565 S
C1001  O1033   1.295   .     A
C1001  C1006   1.462   .     S
C1001  O1036   1.291   .     A
C1002  O1034   1.295   .     A
C1002  C1005   1.462   .     S
C1002  O1035   1.291   .     A
C1003  H1019   1.081   .     S
C1003  C1005   1.392   .     A
C1003  C1013   1.383   .     A
C1004  H1020   1.081   .     S
C1004  C1006   1.392   .     A
C1004  C1014   1.383   .     A
C1005  C1007   1.418   .     A
C1006  C1008   1.418   .     A
C1007  C1009   1.422   .     A
C1007  I1037   2.154   .     S
C1008  I1038   2.155   .     S
C1008  C1010   1.422   .     A
C1009  C1011   1.427   .     A
C1009  C1015   1.421   .     A
C1010  C1016   1.421   .     A
C1010  C1012   1.427   .     A
C1011  C1013   1.403   .     A
C1011  C490    1.410   1_556 S
C1012  C1014   1.403   .     A
C1015  I1039   2.134   .     S
C1015  C467    1.392   1_556 S
C1016  I1040   2.134   .     S
Cu1017 Cu1018  2.675   .     S
Cu1017 O1033   1.966   .     S
Cu1017 O1029   1.965   .     S
Cu1017 O1035   1.965   .     S
Cu1017 O1031   1.962   .     S
Cu1017 N1027   2.010   .     S
Cu1018 O1034   1.966   .     S
Cu1018 O1030   1.965   .     S
Cu1018 O1036   1.965   .     S
Cu1018 N1028   2.010   .     S
Cu1018 O1032   1.962   .     S
