data_str_m2_o1_o2_pcu_sym.136
_audit_creation_date              2020-01-03
_audit_creation_method            'Materials Studio'
_symmetry_space_group_name_H-M    'P1'
_symmetry_Int_Tables_number       1
_symmetry_cell_setting            triclinic
loop_
_symmetry_equiv_pos_as_xyz
  x,y,z
_cell_length_a                    32.3722
_cell_length_b                    28.4792
_cell_length_c                    30.4276
_cell_angle_alpha                 90.2813
_cell_angle_beta                  88.5693
_cell_angle_gamma                 90.4847
loop_
_atom_site_label
_atom_site_type_symbol
_atom_site_fract_x
_atom_site_fract_y
_atom_site_fract_z
_atom_site_U_iso_or_equiv
_atom_site_adp_type
_atom_site_occupancy
C1     C     0.08744   0.16652   0.25041   0.00000  Uiso   1.00
C2     C     0.24592   0.16679   0.25026   0.00000  Uiso   1.00
C3     C     0.16645   0.16660   0.16479   0.00000  Uiso   1.00
C4     C     0.16445   0.16672   0.33529   0.00000  Uiso   1.00
C5     C     0.13605   0.02439   0.23012   0.00000  Uiso   1.00
C6     C     0.19697   0.30889   0.27047   0.00000  Uiso   1.00
C7     C     0.19707   0.02520   0.27029   0.00000  Uiso   1.00
C8     C     0.13625   0.30811   0.22973   0.00000  Uiso   1.00
C9     C     0.02060   0.15475   0.28921   0.00000  Uiso   1.00
C10    C     0.31293   0.17762   0.21169   0.00000  Uiso   1.00
C11    C     0.31075   0.15529   0.28929   0.00000  Uiso   1.00
C12    C     0.02270   0.17804   0.21180   0.00000  Uiso   1.00
C13    C     0.17793   0.20321   0.04539   0.00000  Uiso   1.00
C14    C     0.16157   0.12611   0.45423   0.00000  Uiso   1.00
C15    C     0.14054   0.20800   0.45253   0.00000  Uiso   1.00
C16    C     0.13221   0.13482   0.05065   0.00000  Uiso   1.00
C17    C     0.17952   0.20470   0.09124   0.00000  Uiso   1.00
C18    C     0.16432   0.12501   0.40833   0.00000  Uiso   1.00
C19    C     0.14582   0.20820   0.40666   0.00000  Uiso   1.00
C20    C     0.14185   0.13006   0.09484   0.00000  Uiso   1.00
C21    C     0.16332   0.16669   0.11646   0.00000  Uiso   1.00
C22    C     0.15852   0.16675   0.38385   0.00000  Uiso   1.00
C23    C     0.15237   0.16947   0.02495   0.00000  Uiso   1.00
C24    C     0.14986   0.16753   0.47650   0.00000  Uiso   1.00
C25    C     0.29055   0.16687   0.25050   0.00000  Uiso   1.00
C26    C     0.04289   0.16628   0.25047   0.00000  Uiso   1.00
Cu27   Cu    0.16667   0.21355   0.25000   0.00000  Uiso   1.00
Cu28   Cu    0.16667   0.11978   0.25000   0.00000  Uiso   1.00
H29    H     0.11131   0.04271   0.21454   0.00000  Uiso   1.00
H30    H     0.22110   0.29051   0.28709   0.00000  Uiso   1.00
H31    H     0.22135   0.04418   0.28671   0.00000  Uiso   1.00
H32    H     0.11199   0.28913   0.21328   0.00000  Uiso   1.00
N33    N     0.16667   0.28402   0.25000   0.00000  Uiso   1.00
N34    N     0.16667   0.04931   0.25000   0.00000  Uiso   1.00
O35    O     0.10655   0.20625   0.25000   0.00000  Uiso   1.00
O36    O     0.22679   0.12709   0.25000   0.00000  Uiso   1.00
O37    O     0.22679   0.20625   0.25001   0.00000  Uiso   1.00
O38    O     0.10655   0.12709   0.24999   0.00000  Uiso   1.00
O39    O     0.16666   0.20626   0.18573   0.00000  Uiso   1.00
O40    O     0.16667   0.12707   0.31427   0.00000  Uiso   1.00
O41    O     0.16667   0.20626   0.31427   0.00000  Uiso   1.00
O42    O     0.16666   0.12707   0.18573   0.00000  Uiso   1.00
O43    O     0.19818   0.23829   0.02154   0.00000  Uiso   1.00
C44    C     0.23281   0.22021   0.49789   0.00000  Uiso   1.00
H45    H     0.23796   0.24274   0.46852   0.00000  Uiso   1.00
H46    H     0.22830   0.18388   0.48534   0.00000  Uiso   1.00
C47    C     0.27140   0.22188   0.02577   0.00000  Uiso   1.00
H48    H     0.27505   0.25724   0.04075   0.00000  Uiso   1.00
H49    H     0.26785   0.19599   0.05276   0.00000  Uiso   1.00
C50    C     0.30991   0.21049   0.49790   0.00000  Uiso   1.00
H51    H     0.30747   0.17460   0.48375   0.00000  Uiso   1.00
H52    H     0.00423   0.21257   0.01860   0.00000  Uiso   1.00
H53    H     0.31376   0.23596   0.47059   0.00000  Uiso   1.00
O54    O     0.16916   0.08543   0.47740   0.00000  Uiso   1.00
C55    C     0.21181   0.08192   0.48566   0.00000  Uiso   1.00
H56    H     0.21853   0.09969   0.01735   0.00000  Uiso   1.00
H57    H     0.23181   0.09795   0.45919   0.00000  Uiso   1.00
C58    C     0.22261   0.02992   0.48893   0.00000  Uiso   1.00
H59    H     0.20444   0.01350   0.01637   0.00000  Uiso   1.00
H60    H     0.21432   0.01173   0.45795   0.00000  Uiso   1.00
C61    C     0.26853   0.02314   0.49636   0.00000  Uiso   1.00
H62    H     0.28751   0.04451   0.47289   0.00000  Uiso   1.00
H63    H     0.27645   0.31913   0.49092   0.00000  Uiso   1.00
H64    H     0.27604   0.03295   0.03059   0.00000  Uiso   1.00
O65    O     0.13244   0.24986   0.47426   0.00000  Uiso   1.00
C66    C     0.08946   0.25640   0.47935   0.00000  Uiso   1.00
H67    H     0.07802   0.23755   0.00916   0.00000  Uiso   1.00
H68    H     0.07204   0.24360   0.45035   0.00000  Uiso   1.00
C69    C     0.08172   0.30900   0.48532   0.00000  Uiso   1.00
H70    H     0.09598   0.32145   0.01619   0.00000  Uiso   1.00
H71    H     0.09647   0.32846   0.45742   0.00000  Uiso   1.00
C72    C     0.03576   0.32006   0.48704   0.00000  Uiso   1.00
H73    H     0.02085   0.30741   0.45667   0.00000  Uiso   1.00
H74    H     0.03157   0.02528   0.48924   0.00000  Uiso   1.00
H75    H     0.02063   0.30343   0.01626   0.00000  Uiso   1.00
O76    O     0.10537   0.10287   0.03173   0.00000  Uiso   1.00
C77    C     0.06494   0.12159   0.03154   0.00000  Uiso   1.00
H78    H     0.05221   0.11475   0.49853   0.00000  Uiso   1.00
H79    H     0.06360   0.16036   0.03690   0.00000  Uiso   1.00
C80    C     0.03747   0.09686   0.06620   0.00000  Uiso   1.00
H81    H     0.03911   0.05822   0.06152   0.00000  Uiso   1.00
H82    H     0.04843   0.10559   0.09947   0.00000  Uiso   1.00
C83    C     0.32604   0.11231   0.06408   0.00000  Uiso   1.00
H84    H     0.32389   0.14992   0.07318   0.00000  Uiso   1.00
H85    H     0.30671   0.09170   0.08781   0.00000  Uiso   1.00
H86    H     0.31414   0.10682   0.03056   0.00000  Uiso   1.00
Br87   Br    0.20538   0.25963   0.11654   0.00000  Uiso   1.00
Br88   Br    0.17723   0.06440   0.38248   0.00000  Uiso   1.00
Br89   Br    0.13456   0.26722   0.37806   0.00000  Uiso   1.00
Br90   Br    0.12540   0.07177   0.12257   0.00000  Uiso   1.00
Br91   Br    0.04924   0.13975   0.34221   0.00000  Uiso   1.00
Br92   Br    0.28465   0.18939   0.15803   0.00000  Uiso   1.00
Br93   Br    0.27929   0.14109   0.34242   0.00000  Uiso   1.00
Br94   Br    0.05405   0.19393   0.15901   0.00000  Uiso   1.00
C95    C     0.42078   0.16652   0.25041   0.00000  Uiso   1.00
C96    C     0.57925   0.16679   0.25026   0.00000  Uiso   1.00
C97    C     0.49978   0.16660   0.16479   0.00000  Uiso   1.00
C98    C     0.49779   0.16672   0.33529   0.00000  Uiso   1.00
C99    C     0.46938   0.02439   0.23012   0.00000  Uiso   1.00
C100   C     0.53030   0.30889   0.27047   0.00000  Uiso   1.00
C101   C     0.53041   0.02520   0.27029   0.00000  Uiso   1.00
C102   C     0.46959   0.30811   0.22973   0.00000  Uiso   1.00
C103   C     0.35393   0.15475   0.28921   0.00000  Uiso   1.00
C104   C     0.64627   0.17762   0.21169   0.00000  Uiso   1.00
C105   C     0.64408   0.15529   0.28929   0.00000  Uiso   1.00
C106   C     0.35603   0.17804   0.21180   0.00000  Uiso   1.00
C107   C     0.51127   0.20321   0.04539   0.00000  Uiso   1.00
C108   C     0.49491   0.12611   0.45423   0.00000  Uiso   1.00
C109   C     0.47387   0.20800   0.45253   0.00000  Uiso   1.00
C110   C     0.46554   0.13482   0.05065   0.00000  Uiso   1.00
C111   C     0.51286   0.20470   0.09124   0.00000  Uiso   1.00
C112   C     0.49766   0.12501   0.40833   0.00000  Uiso   1.00
C113   C     0.47916   0.20820   0.40666   0.00000  Uiso   1.00
C114   C     0.47518   0.13006   0.09484   0.00000  Uiso   1.00
C115   C     0.49665   0.16669   0.11646   0.00000  Uiso   1.00
C116   C     0.49185   0.16675   0.38385   0.00000  Uiso   1.00
C117   C     0.48570   0.16947   0.02495   0.00000  Uiso   1.00
C118   C     0.48319   0.16753   0.47650   0.00000  Uiso   1.00
C119   C     0.62388   0.16687   0.25050   0.00000  Uiso   1.00
C120   C     0.37622   0.16628   0.25047   0.00000  Uiso   1.00
Cu121  Cu    0.50000   0.21355   0.25000   0.00000  Uiso   1.00
Cu122  Cu    0.50000   0.11978   0.25000   0.00000  Uiso   1.00
H123   H     0.44464   0.04271   0.21454   0.00000  Uiso   1.00
H124   H     0.55443   0.29051   0.28709   0.00000  Uiso   1.00
H125   H     0.55469   0.04418   0.28671   0.00000  Uiso   1.00
H126   H     0.44533   0.28913   0.21328   0.00000  Uiso   1.00
N127   N     0.50000   0.28402   0.25000   0.00000  Uiso   1.00
N128   N     0.50000   0.04931   0.25000   0.00000  Uiso   1.00
O129   O     0.43988   0.20625   0.25000   0.00000  Uiso   1.00
O130   O     0.56012   0.12709   0.25000   0.00000  Uiso   1.00
O131   O     0.56012   0.20625   0.25001   0.00000  Uiso   1.00
O132   O     0.43988   0.12709   0.24999   0.00000  Uiso   1.00
O133   O     0.50000   0.20626   0.18573   0.00000  Uiso   1.00
O134   O     0.50000   0.12707   0.31427   0.00000  Uiso   1.00
O135   O     0.50000   0.20626   0.31427   0.00000  Uiso   1.00
O136   O     0.50000   0.12707   0.18573   0.00000  Uiso   1.00
O137   O     0.53151   0.23829   0.02154   0.00000  Uiso   1.00
C138   C     0.56614   0.22021   0.49789   0.00000  Uiso   1.00
H139   H     0.57129   0.24274   0.46852   0.00000  Uiso   1.00
H140   H     0.56163   0.18388   0.48534   0.00000  Uiso   1.00
C141   C     0.60473   0.22188   0.02577   0.00000  Uiso   1.00
H142   H     0.60838   0.25724   0.04075   0.00000  Uiso   1.00
H143   H     0.60118   0.19599   0.05276   0.00000  Uiso   1.00
C144   C     0.64324   0.21049   0.49790   0.00000  Uiso   1.00
H145   H     0.64080   0.17460   0.48375   0.00000  Uiso   1.00
H146   H     0.33757   0.21257   0.01860   0.00000  Uiso   1.00
H147   H     0.64709   0.23596   0.47059   0.00000  Uiso   1.00
O148   O     0.50249   0.08543   0.47740   0.00000  Uiso   1.00
C149   C     0.54514   0.08192   0.48566   0.00000  Uiso   1.00
H150   H     0.55187   0.09969   0.01735   0.00000  Uiso   1.00
H151   H     0.56514   0.09795   0.45919   0.00000  Uiso   1.00
C152   C     0.55595   0.02992   0.48893   0.00000  Uiso   1.00
H153   H     0.53778   0.01350   0.01637   0.00000  Uiso   1.00
H154   H     0.54765   0.01173   0.45795   0.00000  Uiso   1.00
C155   C     0.60187   0.02314   0.49636   0.00000  Uiso   1.00
H156   H     0.62084   0.04451   0.47289   0.00000  Uiso   1.00
H157   H     0.60978   0.31913   0.49092   0.00000  Uiso   1.00
H158   H     0.60937   0.03295   0.03059   0.00000  Uiso   1.00
O159   O     0.46578   0.24986   0.47426   0.00000  Uiso   1.00
C160   C     0.42279   0.25640   0.47935   0.00000  Uiso   1.00
H161   H     0.41135   0.23755   0.00916   0.00000  Uiso   1.00
H162   H     0.40537   0.24360   0.45035   0.00000  Uiso   1.00
C163   C     0.41505   0.30900   0.48532   0.00000  Uiso   1.00
H164   H     0.42931   0.32145   0.01619   0.00000  Uiso   1.00
H165   H     0.42980   0.32846   0.45742   0.00000  Uiso   1.00
C166   C     0.36909   0.32006   0.48704   0.00000  Uiso   1.00
H167   H     0.35418   0.30741   0.45667   0.00000  Uiso   1.00
H168   H     0.36490   0.02528   0.48924   0.00000  Uiso   1.00
H169   H     0.35396   0.30343   0.01626   0.00000  Uiso   1.00
O170   O     0.43871   0.10287   0.03173   0.00000  Uiso   1.00
C171   C     0.39828   0.12159   0.03154   0.00000  Uiso   1.00
H172   H     0.38555   0.11475   0.49853   0.00000  Uiso   1.00
H173   H     0.39693   0.16036   0.03690   0.00000  Uiso   1.00
C174   C     0.37080   0.09686   0.06620   0.00000  Uiso   1.00
H175   H     0.37244   0.05822   0.06152   0.00000  Uiso   1.00
H176   H     0.38176   0.10559   0.09947   0.00000  Uiso   1.00
C177   C     0.65937   0.11231   0.06408   0.00000  Uiso   1.00
H178   H     0.65723   0.14992   0.07318   0.00000  Uiso   1.00
H179   H     0.64004   0.09170   0.08781   0.00000  Uiso   1.00
H180   H     0.64747   0.10682   0.03056   0.00000  Uiso   1.00
Br181  Br    0.53872   0.25963   0.11654   0.00000  Uiso   1.00
Br182  Br    0.51056   0.06440   0.38248   0.00000  Uiso   1.00
Br183  Br    0.46789   0.26722   0.37806   0.00000  Uiso   1.00
Br184  Br    0.45873   0.07177   0.12257   0.00000  Uiso   1.00
Br185  Br    0.38257   0.13975   0.34221   0.00000  Uiso   1.00
Br186  Br    0.61799   0.18939   0.15803   0.00000  Uiso   1.00
Br187  Br    0.61263   0.14109   0.34242   0.00000  Uiso   1.00
Br188  Br    0.38738   0.19393   0.15901   0.00000  Uiso   1.00
C189   C     0.75411   0.16652   0.25041   0.00000  Uiso   1.00
C190   C     0.91258   0.16679   0.25026   0.00000  Uiso   1.00
C191   C     0.83311   0.16660   0.16479   0.00000  Uiso   1.00
C192   C     0.83112   0.16672   0.33529   0.00000  Uiso   1.00
C193   C     0.80271   0.02439   0.23012   0.00000  Uiso   1.00
C194   C     0.86363   0.30889   0.27047   0.00000  Uiso   1.00
C195   C     0.86374   0.02520   0.27029   0.00000  Uiso   1.00
C196   C     0.80292   0.30811   0.22973   0.00000  Uiso   1.00
C197   C     0.68726   0.15475   0.28921   0.00000  Uiso   1.00
C198   C     0.97960   0.17762   0.21169   0.00000  Uiso   1.00
C199   C     0.97742   0.15529   0.28929   0.00000  Uiso   1.00
C200   C     0.68936   0.17804   0.21180   0.00000  Uiso   1.00
C201   C     0.84460   0.20321   0.04539   0.00000  Uiso   1.00
C202   C     0.82824   0.12611   0.45423   0.00000  Uiso   1.00
C203   C     0.80720   0.20800   0.45253   0.00000  Uiso   1.00
C204   C     0.79887   0.13482   0.05065   0.00000  Uiso   1.00
C205   C     0.84619   0.20470   0.09124   0.00000  Uiso   1.00
C206   C     0.83099   0.12501   0.40833   0.00000  Uiso   1.00
C207   C     0.81249   0.20820   0.40666   0.00000  Uiso   1.00
C208   C     0.80852   0.13006   0.09484   0.00000  Uiso   1.00
C209   C     0.82999   0.16669   0.11646   0.00000  Uiso   1.00
C210   C     0.82519   0.16675   0.38385   0.00000  Uiso   1.00
C211   C     0.81903   0.16947   0.02495   0.00000  Uiso   1.00
C212   C     0.81653   0.16753   0.47650   0.00000  Uiso   1.00
C213   C     0.95721   0.16687   0.25050   0.00000  Uiso   1.00
C214   C     0.70956   0.16628   0.25047   0.00000  Uiso   1.00
Cu215  Cu    0.83333   0.21355   0.25000   0.00000  Uiso   1.00
Cu216  Cu    0.83333   0.11978   0.25000   0.00000  Uiso   1.00
H217   H     0.77798   0.04271   0.21454   0.00000  Uiso   1.00
H218   H     0.88776   0.29051   0.28709   0.00000  Uiso   1.00
H219   H     0.88802   0.04418   0.28671   0.00000  Uiso   1.00
H220   H     0.77866   0.28913   0.21328   0.00000  Uiso   1.00
N221   N     0.83333   0.28402   0.25000   0.00000  Uiso   1.00
N222   N     0.83333   0.04931   0.25000   0.00000  Uiso   1.00
O223   O     0.77321   0.20625   0.25000   0.00000  Uiso   1.00
O224   O     0.89345   0.12709   0.25000   0.00000  Uiso   1.00
O225   O     0.89345   0.20625   0.25001   0.00000  Uiso   1.00
O226   O     0.77321   0.12709   0.24999   0.00000  Uiso   1.00
O227   O     0.83333   0.20626   0.18573   0.00000  Uiso   1.00
O228   O     0.83334   0.12707   0.31427   0.00000  Uiso   1.00
O229   O     0.83334   0.20626   0.31427   0.00000  Uiso   1.00
O230   O     0.83333   0.12707   0.18573   0.00000  Uiso   1.00
O231   O     0.86484   0.23829   0.02154   0.00000  Uiso   1.00
C232   C     0.89947   0.22021   0.49789   0.00000  Uiso   1.00
H233   H     0.90462   0.24274   0.46852   0.00000  Uiso   1.00
H234   H     0.89497   0.18388   0.48534   0.00000  Uiso   1.00
C235   C     0.93807   0.22188   0.02577   0.00000  Uiso   1.00
H236   H     0.94171   0.25724   0.04075   0.00000  Uiso   1.00
H237   H     0.93452   0.19599   0.05276   0.00000  Uiso   1.00
C238   C     0.97657   0.21049   0.49790   0.00000  Uiso   1.00
H239   H     0.97413   0.17460   0.48375   0.00000  Uiso   1.00
H240   H     0.67090   0.21257   0.01860   0.00000  Uiso   1.00
H241   H     0.98042   0.23596   0.47059   0.00000  Uiso   1.00
O242   O     0.83583   0.08543   0.47740   0.00000  Uiso   1.00
C243   C     0.87847   0.08192   0.48566   0.00000  Uiso   1.00
H244   H     0.88520   0.09969   0.01735   0.00000  Uiso   1.00
H245   H     0.89848   0.09795   0.45919   0.00000  Uiso   1.00
C246   C     0.88928   0.02992   0.48893   0.00000  Uiso   1.00
H247   H     0.87111   0.01350   0.01637   0.00000  Uiso   1.00
H248   H     0.88099   0.01173   0.45795   0.00000  Uiso   1.00
C249   C     0.93520   0.02314   0.49636   0.00000  Uiso   1.00
H250   H     0.95418   0.04451   0.47289   0.00000  Uiso   1.00
H251   H     0.94312   0.31913   0.49092   0.00000  Uiso   1.00
H252   H     0.94270   0.03295   0.03059   0.00000  Uiso   1.00
O253   O     0.79911   0.24986   0.47426   0.00000  Uiso   1.00
C254   C     0.75612   0.25640   0.47935   0.00000  Uiso   1.00
H255   H     0.74468   0.23755   0.00916   0.00000  Uiso   1.00
H256   H     0.73870   0.24360   0.45035   0.00000  Uiso   1.00
C257   C     0.74838   0.30900   0.48532   0.00000  Uiso   1.00
H258   H     0.76265   0.32145   0.01619   0.00000  Uiso   1.00
H259   H     0.76314   0.32846   0.45742   0.00000  Uiso   1.00
C260   C     0.70243   0.32006   0.48704   0.00000  Uiso   1.00
H261   H     0.68751   0.30741   0.45667   0.00000  Uiso   1.00
H262   H     0.69823   0.02528   0.48924   0.00000  Uiso   1.00
H263   H     0.68729   0.30343   0.01626   0.00000  Uiso   1.00
O264   O     0.77204   0.10287   0.03173   0.00000  Uiso   1.00
C265   C     0.73161   0.12159   0.03154   0.00000  Uiso   1.00
H266   H     0.71888   0.11475   0.49853   0.00000  Uiso   1.00
H267   H     0.73027   0.16036   0.03690   0.00000  Uiso   1.00
C268   C     0.70413   0.09686   0.06620   0.00000  Uiso   1.00
H269   H     0.70578   0.05822   0.06152   0.00000  Uiso   1.00
H270   H     0.71510   0.10559   0.09947   0.00000  Uiso   1.00
C271   C     0.99270   0.11231   0.06408   0.00000  Uiso   1.00
H272   H     0.99056   0.14992   0.07318   0.00000  Uiso   1.00
H273   H     0.97338   0.09170   0.08781   0.00000  Uiso   1.00
H274   H     0.98080   0.10682   0.03056   0.00000  Uiso   1.00
Br275  Br    0.87205   0.25963   0.11654   0.00000  Uiso   1.00
Br276  Br    0.84390   0.06440   0.38248   0.00000  Uiso   1.00
Br277  Br    0.80123   0.26722   0.37806   0.00000  Uiso   1.00
Br278  Br    0.79206   0.07177   0.12257   0.00000  Uiso   1.00
Br279  Br    0.71590   0.13975   0.34221   0.00000  Uiso   1.00
Br280  Br    0.95132   0.18939   0.15803   0.00000  Uiso   1.00
Br281  Br    0.94596   0.14109   0.34242   0.00000  Uiso   1.00
Br282  Br    0.72072   0.19393   0.15901   0.00000  Uiso   1.00
C283   C     0.08744   0.49985   0.25041   0.00000  Uiso   1.00
C284   C     0.24592   0.50012   0.25026   0.00000  Uiso   1.00
C285   C     0.16645   0.49993   0.16479   0.00000  Uiso   1.00
C286   C     0.16445   0.50006   0.33529   0.00000  Uiso   1.00
C287   C     0.13605   0.35773   0.23012   0.00000  Uiso   1.00
C288   C     0.19697   0.64223   0.27047   0.00000  Uiso   1.00
C289   C     0.19707   0.35853   0.27029   0.00000  Uiso   1.00
C290   C     0.13625   0.64144   0.22973   0.00000  Uiso   1.00
C291   C     0.02060   0.48808   0.28921   0.00000  Uiso   1.00
C292   C     0.31293   0.51095   0.21169   0.00000  Uiso   1.00
C293   C     0.31075   0.48862   0.28929   0.00000  Uiso   1.00
C294   C     0.02270   0.51137   0.21180   0.00000  Uiso   1.00
C295   C     0.17793   0.53654   0.04539   0.00000  Uiso   1.00
C296   C     0.16157   0.45944   0.45423   0.00000  Uiso   1.00
C297   C     0.14054   0.54134   0.45253   0.00000  Uiso   1.00
C298   C     0.13221   0.46815   0.05065   0.00000  Uiso   1.00
C299   C     0.17952   0.53803   0.09124   0.00000  Uiso   1.00
C300   C     0.16432   0.45834   0.40833   0.00000  Uiso   1.00
C301   C     0.14582   0.54153   0.40666   0.00000  Uiso   1.00
C302   C     0.14185   0.46339   0.09484   0.00000  Uiso   1.00
C303   C     0.16332   0.50003   0.11646   0.00000  Uiso   1.00
C304   C     0.15852   0.50009   0.38385   0.00000  Uiso   1.00
C305   C     0.15237   0.50280   0.02495   0.00000  Uiso   1.00
C306   C     0.14986   0.50086   0.47650   0.00000  Uiso   1.00
C307   C     0.29055   0.50021   0.25050   0.00000  Uiso   1.00
C308   C     0.04289   0.49961   0.25047   0.00000  Uiso   1.00
Cu309  Cu    0.16667   0.54689   0.25000   0.00000  Uiso   1.00
Cu310  Cu    0.16667   0.45311   0.25000   0.00000  Uiso   1.00
H311   H     0.11131   0.37604   0.21454   0.00000  Uiso   1.00
H312   H     0.22110   0.62384   0.28709   0.00000  Uiso   1.00
H313   H     0.22135   0.37751   0.28671   0.00000  Uiso   1.00
H314   H     0.11199   0.62247   0.21328   0.00000  Uiso   1.00
N315   N     0.16667   0.61736   0.25000   0.00000  Uiso   1.00
N316   N     0.16667   0.38264   0.25000   0.00000  Uiso   1.00
O317   O     0.10655   0.53958   0.25000   0.00000  Uiso   1.00
O318   O     0.22679   0.46042   0.25000   0.00000  Uiso   1.00
O319   O     0.22679   0.53958   0.25001   0.00000  Uiso   1.00
O320   O     0.10655   0.46042   0.24999   0.00000  Uiso   1.00
O321   O     0.16666   0.53959   0.18573   0.00000  Uiso   1.00
O322   O     0.16667   0.46041   0.31427   0.00000  Uiso   1.00
O323   O     0.16667   0.53959   0.31427   0.00000  Uiso   1.00
O324   O     0.16666   0.46041   0.18573   0.00000  Uiso   1.00
O325   O     0.19818   0.57162   0.02154   0.00000  Uiso   1.00
C326   C     0.23281   0.55355   0.49789   0.00000  Uiso   1.00
H327   H     0.23796   0.57608   0.46852   0.00000  Uiso   1.00
H328   H     0.22830   0.51722   0.48534   0.00000  Uiso   1.00
C329   C     0.27140   0.55521   0.02577   0.00000  Uiso   1.00
H330   H     0.27505   0.59058   0.04075   0.00000  Uiso   1.00
H331   H     0.26785   0.52933   0.05276   0.00000  Uiso   1.00
C332   C     0.30991   0.54382   0.49790   0.00000  Uiso   1.00
H333   H     0.30747   0.50793   0.48375   0.00000  Uiso   1.00
H334   H     0.00423   0.54590   0.01860   0.00000  Uiso   1.00
H335   H     0.31376   0.56929   0.47059   0.00000  Uiso   1.00
O336   O     0.16916   0.41877   0.47740   0.00000  Uiso   1.00
C337   C     0.21181   0.41525   0.48566   0.00000  Uiso   1.00
H338   H     0.21853   0.43303   0.01735   0.00000  Uiso   1.00
H339   H     0.23181   0.43129   0.45919   0.00000  Uiso   1.00
C340   C     0.22261   0.36325   0.48893   0.00000  Uiso   1.00
H341   H     0.20444   0.34683   0.01637   0.00000  Uiso   1.00
H342   H     0.21432   0.34507   0.45795   0.00000  Uiso   1.00
C343   C     0.26853   0.35647   0.49636   0.00000  Uiso   1.00
H344   H     0.28751   0.37785   0.47289   0.00000  Uiso   1.00
H345   H     0.27645   0.65246   0.49092   0.00000  Uiso   1.00
H346   H     0.27604   0.36628   0.03059   0.00000  Uiso   1.00
O347   O     0.13244   0.58319   0.47426   0.00000  Uiso   1.00
C348   C     0.08946   0.58973   0.47935   0.00000  Uiso   1.00
H349   H     0.07802   0.57088   0.00916   0.00000  Uiso   1.00
H350   H     0.07204   0.57693   0.45035   0.00000  Uiso   1.00
C351   C     0.08172   0.64233   0.48532   0.00000  Uiso   1.00
H352   H     0.09598   0.65478   0.01619   0.00000  Uiso   1.00
H353   H     0.09647   0.66179   0.45742   0.00000  Uiso   1.00
C354   C     0.03576   0.65339   0.48704   0.00000  Uiso   1.00
H355   H     0.02085   0.64074   0.45667   0.00000  Uiso   1.00
H356   H     0.03157   0.35861   0.48924   0.00000  Uiso   1.00
H357   H     0.02063   0.63676   0.01626   0.00000  Uiso   1.00
O358   O     0.10537   0.43620   0.03173   0.00000  Uiso   1.00
C359   C     0.06494   0.45492   0.03154   0.00000  Uiso   1.00
H360   H     0.05221   0.44808   0.49853   0.00000  Uiso   1.00
H361   H     0.06360   0.49369   0.03690   0.00000  Uiso   1.00
C362   C     0.03747   0.43019   0.06620   0.00000  Uiso   1.00
H363   H     0.03911   0.39156   0.06152   0.00000  Uiso   1.00
H364   H     0.04843   0.43892   0.09947   0.00000  Uiso   1.00
C365   C     0.32604   0.44564   0.06408   0.00000  Uiso   1.00
H366   H     0.32389   0.48326   0.07318   0.00000  Uiso   1.00
H367   H     0.30671   0.42504   0.08781   0.00000  Uiso   1.00
H368   H     0.31414   0.44016   0.03056   0.00000  Uiso   1.00
Br369  Br    0.20538   0.59297   0.11654   0.00000  Uiso   1.00
Br370  Br    0.17723   0.39774   0.38248   0.00000  Uiso   1.00
Br371  Br    0.13456   0.60055   0.37806   0.00000  Uiso   1.00
Br372  Br    0.12540   0.40510   0.12257   0.00000  Uiso   1.00
Br373  Br    0.04924   0.47309   0.34221   0.00000  Uiso   1.00
Br374  Br    0.28465   0.52273   0.15803   0.00000  Uiso   1.00
Br375  Br    0.27929   0.47442   0.34242   0.00000  Uiso   1.00
Br376  Br    0.05405   0.52727   0.15901   0.00000  Uiso   1.00
C377   C     0.42078   0.49985   0.25041   0.00000  Uiso   1.00
C378   C     0.57925   0.50012   0.25026   0.00000  Uiso   1.00
C379   C     0.49978   0.49993   0.16479   0.00000  Uiso   1.00
C380   C     0.49779   0.50006   0.33529   0.00000  Uiso   1.00
C381   C     0.46938   0.35773   0.23012   0.00000  Uiso   1.00
C382   C     0.53030   0.64223   0.27047   0.00000  Uiso   1.00
C383   C     0.53041   0.35853   0.27029   0.00000  Uiso   1.00
C384   C     0.46959   0.64144   0.22973   0.00000  Uiso   1.00
C385   C     0.35393   0.48808   0.28921   0.00000  Uiso   1.00
C386   C     0.64627   0.51095   0.21169   0.00000  Uiso   1.00
C387   C     0.64408   0.48862   0.28929   0.00000  Uiso   1.00
C388   C     0.35603   0.51137   0.21180   0.00000  Uiso   1.00
C389   C     0.51127   0.53654   0.04539   0.00000  Uiso   1.00
C390   C     0.49491   0.45944   0.45423   0.00000  Uiso   1.00
C391   C     0.47387   0.54134   0.45253   0.00000  Uiso   1.00
C392   C     0.46554   0.46815   0.05065   0.00000  Uiso   1.00
C393   C     0.51286   0.53803   0.09124   0.00000  Uiso   1.00
C394   C     0.49766   0.45834   0.40833   0.00000  Uiso   1.00
C395   C     0.47916   0.54153   0.40666   0.00000  Uiso   1.00
C396   C     0.47518   0.46339   0.09484   0.00000  Uiso   1.00
C397   C     0.49665   0.50003   0.11646   0.00000  Uiso   1.00
C398   C     0.49185   0.50009   0.38385   0.00000  Uiso   1.00
C399   C     0.48570   0.50280   0.02495   0.00000  Uiso   1.00
C400   C     0.48319   0.50086   0.47650   0.00000  Uiso   1.00
C401   C     0.62388   0.50021   0.25050   0.00000  Uiso   1.00
C402   C     0.37622   0.49961   0.25047   0.00000  Uiso   1.00
Cu403  Cu    0.50000   0.54689   0.25000   0.00000  Uiso   1.00
Cu404  Cu    0.50000   0.45311   0.25000   0.00000  Uiso   1.00
H405   H     0.44464   0.37604   0.21454   0.00000  Uiso   1.00
H406   H     0.55443   0.62384   0.28709   0.00000  Uiso   1.00
H407   H     0.55469   0.37751   0.28671   0.00000  Uiso   1.00
H408   H     0.44533   0.62247   0.21328   0.00000  Uiso   1.00
N409   N     0.50000   0.61736   0.25000   0.00000  Uiso   1.00
N410   N     0.50000   0.38264   0.25000   0.00000  Uiso   1.00
O411   O     0.43988   0.53958   0.25000   0.00000  Uiso   1.00
O412   O     0.56012   0.46042   0.25000   0.00000  Uiso   1.00
O413   O     0.56012   0.53958   0.25001   0.00000  Uiso   1.00
O414   O     0.43988   0.46042   0.24999   0.00000  Uiso   1.00
O415   O     0.50000   0.53959   0.18573   0.00000  Uiso   1.00
O416   O     0.50000   0.46041   0.31427   0.00000  Uiso   1.00
O417   O     0.50000   0.53959   0.31427   0.00000  Uiso   1.00
O418   O     0.50000   0.46041   0.18573   0.00000  Uiso   1.00
O419   O     0.53151   0.57162   0.02154   0.00000  Uiso   1.00
C420   C     0.56614   0.55355   0.49789   0.00000  Uiso   1.00
H421   H     0.57129   0.57608   0.46852   0.00000  Uiso   1.00
H422   H     0.56163   0.51722   0.48534   0.00000  Uiso   1.00
C423   C     0.60473   0.55521   0.02577   0.00000  Uiso   1.00
H424   H     0.60838   0.59058   0.04075   0.00000  Uiso   1.00
H425   H     0.60118   0.52933   0.05276   0.00000  Uiso   1.00
C426   C     0.64324   0.54382   0.49790   0.00000  Uiso   1.00
H427   H     0.64080   0.50793   0.48375   0.00000  Uiso   1.00
H428   H     0.33757   0.54590   0.01860   0.00000  Uiso   1.00
H429   H     0.64709   0.56929   0.47059   0.00000  Uiso   1.00
O430   O     0.50249   0.41877   0.47740   0.00000  Uiso   1.00
C431   C     0.54514   0.41525   0.48566   0.00000  Uiso   1.00
H432   H     0.55187   0.43303   0.01735   0.00000  Uiso   1.00
H433   H     0.56514   0.43129   0.45919   0.00000  Uiso   1.00
C434   C     0.55595   0.36325   0.48893   0.00000  Uiso   1.00
H435   H     0.53778   0.34683   0.01637   0.00000  Uiso   1.00
H436   H     0.54765   0.34507   0.45795   0.00000  Uiso   1.00
C437   C     0.60187   0.35647   0.49636   0.00000  Uiso   1.00
H438   H     0.62084   0.37785   0.47289   0.00000  Uiso   1.00
H439   H     0.60978   0.65246   0.49092   0.00000  Uiso   1.00
H440   H     0.60937   0.36628   0.03059   0.00000  Uiso   1.00
O441   O     0.46578   0.58319   0.47426   0.00000  Uiso   1.00
C442   C     0.42279   0.58973   0.47935   0.00000  Uiso   1.00
H443   H     0.41135   0.57088   0.00916   0.00000  Uiso   1.00
H444   H     0.40537   0.57693   0.45035   0.00000  Uiso   1.00
C445   C     0.41505   0.64233   0.48532   0.00000  Uiso   1.00
H446   H     0.42931   0.65478   0.01619   0.00000  Uiso   1.00
H447   H     0.42980   0.66179   0.45742   0.00000  Uiso   1.00
C448   C     0.36909   0.65339   0.48704   0.00000  Uiso   1.00
H449   H     0.35418   0.64074   0.45667   0.00000  Uiso   1.00
H450   H     0.36490   0.35861   0.48924   0.00000  Uiso   1.00
H451   H     0.35396   0.63676   0.01626   0.00000  Uiso   1.00
O452   O     0.43871   0.43620   0.03173   0.00000  Uiso   1.00
C453   C     0.39828   0.45492   0.03154   0.00000  Uiso   1.00
H454   H     0.38555   0.44808   0.49853   0.00000  Uiso   1.00
H455   H     0.39693   0.49369   0.03690   0.00000  Uiso   1.00
C456   C     0.37080   0.43019   0.06620   0.00000  Uiso   1.00
H457   H     0.37244   0.39156   0.06152   0.00000  Uiso   1.00
H458   H     0.38176   0.43892   0.09947   0.00000  Uiso   1.00
C459   C     0.65937   0.44564   0.06408   0.00000  Uiso   1.00
H460   H     0.65723   0.48326   0.07318   0.00000  Uiso   1.00
H461   H     0.64004   0.42504   0.08781   0.00000  Uiso   1.00
H462   H     0.64747   0.44016   0.03056   0.00000  Uiso   1.00
Br463  Br    0.53872   0.59297   0.11654   0.00000  Uiso   1.00
Br464  Br    0.51056   0.39774   0.38248   0.00000  Uiso   1.00
Br465  Br    0.46789   0.60055   0.37806   0.00000  Uiso   1.00
Br466  Br    0.45873   0.40510   0.12257   0.00000  Uiso   1.00
Br467  Br    0.38257   0.47309   0.34221   0.00000  Uiso   1.00
Br468  Br    0.61799   0.52273   0.15803   0.00000  Uiso   1.00
Br469  Br    0.61263   0.47442   0.34242   0.00000  Uiso   1.00
Br470  Br    0.38738   0.52727   0.15901   0.00000  Uiso   1.00
C471   C     0.75411   0.49985   0.25041   0.00000  Uiso   1.00
C472   C     0.91258   0.50012   0.25026   0.00000  Uiso   1.00
C473   C     0.83311   0.49993   0.16479   0.00000  Uiso   1.00
C474   C     0.83112   0.50006   0.33529   0.00000  Uiso   1.00
C475   C     0.80271   0.35773   0.23012   0.00000  Uiso   1.00
C476   C     0.86363   0.64223   0.27047   0.00000  Uiso   1.00
C477   C     0.86374   0.35853   0.27029   0.00000  Uiso   1.00
C478   C     0.80292   0.64144   0.22973   0.00000  Uiso   1.00
C479   C     0.68726   0.48808   0.28921   0.00000  Uiso   1.00
C480   C     0.97960   0.51095   0.21169   0.00000  Uiso   1.00
C481   C     0.97742   0.48862   0.28929   0.00000  Uiso   1.00
C482   C     0.68936   0.51137   0.21180   0.00000  Uiso   1.00
C483   C     0.84460   0.53654   0.04539   0.00000  Uiso   1.00
C484   C     0.82824   0.45944   0.45423   0.00000  Uiso   1.00
C485   C     0.80720   0.54134   0.45253   0.00000  Uiso   1.00
C486   C     0.79887   0.46815   0.05065   0.00000  Uiso   1.00
C487   C     0.84619   0.53803   0.09124   0.00000  Uiso   1.00
C488   C     0.83099   0.45834   0.40833   0.00000  Uiso   1.00
C489   C     0.81249   0.54153   0.40666   0.00000  Uiso   1.00
C490   C     0.80852   0.46339   0.09484   0.00000  Uiso   1.00
C491   C     0.82999   0.50003   0.11646   0.00000  Uiso   1.00
C492   C     0.82519   0.50009   0.38385   0.00000  Uiso   1.00
C493   C     0.81903   0.50280   0.02495   0.00000  Uiso   1.00
C494   C     0.81653   0.50086   0.47650   0.00000  Uiso   1.00
C495   C     0.95721   0.50021   0.25050   0.00000  Uiso   1.00
C496   C     0.70956   0.49961   0.25047   0.00000  Uiso   1.00
Cu497  Cu    0.83333   0.54689   0.25000   0.00000  Uiso   1.00
Cu498  Cu    0.83333   0.45311   0.25000   0.00000  Uiso   1.00
H499   H     0.77798   0.37604   0.21454   0.00000  Uiso   1.00
H500   H     0.88776   0.62384   0.28709   0.00000  Uiso   1.00
H501   H     0.88802   0.37751   0.28671   0.00000  Uiso   1.00
H502   H     0.77866   0.62247   0.21328   0.00000  Uiso   1.00
N503   N     0.83333   0.61736   0.25000   0.00000  Uiso   1.00
N504   N     0.83333   0.38264   0.25000   0.00000  Uiso   1.00
O505   O     0.77321   0.53958   0.25000   0.00000  Uiso   1.00
O506   O     0.89345   0.46042   0.25000   0.00000  Uiso   1.00
O507   O     0.89345   0.53958   0.25001   0.00000  Uiso   1.00
O508   O     0.77321   0.46042   0.24999   0.00000  Uiso   1.00
O509   O     0.83333   0.53959   0.18573   0.00000  Uiso   1.00
O510   O     0.83334   0.46041   0.31427   0.00000  Uiso   1.00
O511   O     0.83334   0.53959   0.31427   0.00000  Uiso   1.00
O512   O     0.83333   0.46041   0.18573   0.00000  Uiso   1.00
O513   O     0.86484   0.57162   0.02154   0.00000  Uiso   1.00
C514   C     0.89947   0.55355   0.49789   0.00000  Uiso   1.00
H515   H     0.90462   0.57608   0.46852   0.00000  Uiso   1.00
H516   H     0.89497   0.51722   0.48534   0.00000  Uiso   1.00
C517   C     0.93807   0.55521   0.02577   0.00000  Uiso   1.00
H518   H     0.94171   0.59058   0.04075   0.00000  Uiso   1.00
H519   H     0.93452   0.52933   0.05276   0.00000  Uiso   1.00
C520   C     0.97657   0.54382   0.49790   0.00000  Uiso   1.00
H521   H     0.97413   0.50793   0.48375   0.00000  Uiso   1.00
H522   H     0.67090   0.54590   0.01860   0.00000  Uiso   1.00
H523   H     0.98042   0.56929   0.47059   0.00000  Uiso   1.00
O524   O     0.83583   0.41877   0.47740   0.00000  Uiso   1.00
C525   C     0.87847   0.41525   0.48566   0.00000  Uiso   1.00
H526   H     0.88520   0.43303   0.01735   0.00000  Uiso   1.00
H527   H     0.89848   0.43129   0.45919   0.00000  Uiso   1.00
C528   C     0.88928   0.36325   0.48893   0.00000  Uiso   1.00
H529   H     0.87111   0.34683   0.01637   0.00000  Uiso   1.00
H530   H     0.88099   0.34507   0.45795   0.00000  Uiso   1.00
C531   C     0.93520   0.35647   0.49636   0.00000  Uiso   1.00
H532   H     0.95418   0.37785   0.47289   0.00000  Uiso   1.00
H533   H     0.94312   0.65246   0.49092   0.00000  Uiso   1.00
H534   H     0.94270   0.36628   0.03059   0.00000  Uiso   1.00
O535   O     0.79911   0.58319   0.47426   0.00000  Uiso   1.00
C536   C     0.75612   0.58973   0.47935   0.00000  Uiso   1.00
H537   H     0.74468   0.57088   0.00916   0.00000  Uiso   1.00
H538   H     0.73870   0.57693   0.45035   0.00000  Uiso   1.00
C539   C     0.74838   0.64233   0.48532   0.00000  Uiso   1.00
H540   H     0.76265   0.65478   0.01619   0.00000  Uiso   1.00
H541   H     0.76314   0.66179   0.45742   0.00000  Uiso   1.00
C542   C     0.70243   0.65339   0.48704   0.00000  Uiso   1.00
H543   H     0.68751   0.64074   0.45667   0.00000  Uiso   1.00
H544   H     0.69823   0.35861   0.48924   0.00000  Uiso   1.00
H545   H     0.68729   0.63676   0.01626   0.00000  Uiso   1.00
O546   O     0.77204   0.43620   0.03173   0.00000  Uiso   1.00
C547   C     0.73161   0.45492   0.03154   0.00000  Uiso   1.00
H548   H     0.71888   0.44808   0.49853   0.00000  Uiso   1.00
H549   H     0.73027   0.49369   0.03690   0.00000  Uiso   1.00
C550   C     0.70413   0.43019   0.06620   0.00000  Uiso   1.00
H551   H     0.70578   0.39156   0.06152   0.00000  Uiso   1.00
H552   H     0.71510   0.43892   0.09947   0.00000  Uiso   1.00
C553   C     0.99270   0.44564   0.06408   0.00000  Uiso   1.00
H554   H     0.99056   0.48326   0.07318   0.00000  Uiso   1.00
H555   H     0.97338   0.42504   0.08781   0.00000  Uiso   1.00
H556   H     0.98080   0.44016   0.03056   0.00000  Uiso   1.00
Br557  Br    0.87205   0.59297   0.11654   0.00000  Uiso   1.00
Br558  Br    0.84390   0.39774   0.38248   0.00000  Uiso   1.00
Br559  Br    0.80123   0.60055   0.37806   0.00000  Uiso   1.00
Br560  Br    0.79206   0.40510   0.12257   0.00000  Uiso   1.00
Br561  Br    0.71590   0.47309   0.34221   0.00000  Uiso   1.00
Br562  Br    0.95132   0.52273   0.15803   0.00000  Uiso   1.00
Br563  Br    0.94596   0.47442   0.34242   0.00000  Uiso   1.00
Br564  Br    0.72072   0.52727   0.15901   0.00000  Uiso   1.00
C565   C     0.08744   0.83318   0.25041   0.00000  Uiso   1.00
C566   C     0.24592   0.83345   0.25026   0.00000  Uiso   1.00
C567   C     0.16645   0.83326   0.16479   0.00000  Uiso   1.00
C568   C     0.16445   0.83339   0.33529   0.00000  Uiso   1.00
C569   C     0.13605   0.69106   0.23012   0.00000  Uiso   1.00
C570   C     0.19697   0.97556   0.27047   0.00000  Uiso   1.00
C571   C     0.19707   0.69186   0.27029   0.00000  Uiso   1.00
C572   C     0.13625   0.97478   0.22973   0.00000  Uiso   1.00
C573   C     0.02060   0.82142   0.28921   0.00000  Uiso   1.00
C574   C     0.31293   0.84429   0.21169   0.00000  Uiso   1.00
C575   C     0.31075   0.82196   0.28929   0.00000  Uiso   1.00
C576   C     0.02270   0.84471   0.21180   0.00000  Uiso   1.00
C577   C     0.17793   0.86988   0.04539   0.00000  Uiso   1.00
C578   C     0.16157   0.79277   0.45423   0.00000  Uiso   1.00
C579   C     0.14054   0.87467   0.45253   0.00000  Uiso   1.00
C580   C     0.13221   0.80148   0.05065   0.00000  Uiso   1.00
C581   C     0.17952   0.87136   0.09124   0.00000  Uiso   1.00
C582   C     0.16432   0.79168   0.40833   0.00000  Uiso   1.00
C583   C     0.14582   0.87487   0.40666   0.00000  Uiso   1.00
C584   C     0.14185   0.79672   0.09484   0.00000  Uiso   1.00
C585   C     0.16332   0.83336   0.11646   0.00000  Uiso   1.00
C586   C     0.15852   0.83342   0.38385   0.00000  Uiso   1.00
C587   C     0.15237   0.83613   0.02495   0.00000  Uiso   1.00
C588   C     0.14986   0.83419   0.47650   0.00000  Uiso   1.00
C589   C     0.29055   0.83354   0.25050   0.00000  Uiso   1.00
C590   C     0.04289   0.83295   0.25047   0.00000  Uiso   1.00
Cu591  Cu    0.16667   0.88022   0.25000   0.00000  Uiso   1.00
Cu592  Cu    0.16667   0.78645   0.25000   0.00000  Uiso   1.00
H593   H     0.11131   0.70938   0.21454   0.00000  Uiso   1.00
H594   H     0.22110   0.95717   0.28709   0.00000  Uiso   1.00
H595   H     0.22135   0.71084   0.28671   0.00000  Uiso   1.00
H596   H     0.11199   0.95580   0.21328   0.00000  Uiso   1.00
N597   N     0.16667   0.95069   0.25000   0.00000  Uiso   1.00
N598   N     0.16667   0.71598   0.25000   0.00000  Uiso   1.00
O599   O     0.10655   0.87291   0.25000   0.00000  Uiso   1.00
O600   O     0.22679   0.79375   0.25000   0.00000  Uiso   1.00
O601   O     0.22679   0.87291   0.25001   0.00000  Uiso   1.00
O602   O     0.10655   0.79375   0.24999   0.00000  Uiso   1.00
O603   O     0.16666   0.87293   0.18573   0.00000  Uiso   1.00
O604   O     0.16667   0.79374   0.31427   0.00000  Uiso   1.00
O605   O     0.16667   0.87293   0.31427   0.00000  Uiso   1.00
O606   O     0.16666   0.79374   0.18573   0.00000  Uiso   1.00
O607   O     0.19818   0.90496   0.02154   0.00000  Uiso   1.00
C608   C     0.23281   0.88688   0.49789   0.00000  Uiso   1.00
H609   H     0.23796   0.90941   0.46852   0.00000  Uiso   1.00
H610   H     0.22830   0.85055   0.48534   0.00000  Uiso   1.00
C611   C     0.27140   0.88855   0.02577   0.00000  Uiso   1.00
H612   H     0.27505   0.92391   0.04075   0.00000  Uiso   1.00
H613   H     0.26785   0.86266   0.05276   0.00000  Uiso   1.00
C614   C     0.30991   0.87715   0.49790   0.00000  Uiso   1.00
H615   H     0.30747   0.84126   0.48375   0.00000  Uiso   1.00
H616   H     0.00423   0.87923   0.01860   0.00000  Uiso   1.00
H617   H     0.31376   0.90262   0.47059   0.00000  Uiso   1.00
O618   O     0.16916   0.75210   0.47740   0.00000  Uiso   1.00
C619   C     0.21181   0.74858   0.48566   0.00000  Uiso   1.00
H620   H     0.21853   0.76636   0.01735   0.00000  Uiso   1.00
H621   H     0.23181   0.76462   0.45919   0.00000  Uiso   1.00
C622   C     0.22261   0.69659   0.48893   0.00000  Uiso   1.00
H623   H     0.20444   0.68016   0.01637   0.00000  Uiso   1.00
H624   H     0.21432   0.67840   0.45795   0.00000  Uiso   1.00
C625   C     0.26853   0.68980   0.49636   0.00000  Uiso   1.00
H626   H     0.28751   0.71118   0.47289   0.00000  Uiso   1.00
H627   H     0.27645   0.98579   0.49092   0.00000  Uiso   1.00
H628   H     0.27604   0.69961   0.03059   0.00000  Uiso   1.00
O629   O     0.13244   0.91653   0.47426   0.00000  Uiso   1.00
C630   C     0.08946   0.92307   0.47935   0.00000  Uiso   1.00
H631   H     0.07802   0.90421   0.00916   0.00000  Uiso   1.00
H632   H     0.07204   0.91026   0.45035   0.00000  Uiso   1.00
C633   C     0.08172   0.97567   0.48532   0.00000  Uiso   1.00
H634   H     0.09598   0.98812   0.01619   0.00000  Uiso   1.00
H635   H     0.09647   0.99513   0.45742   0.00000  Uiso   1.00
C636   C     0.03576   0.98672   0.48704   0.00000  Uiso   1.00
H637   H     0.02085   0.97408   0.45667   0.00000  Uiso   1.00
H638   H     0.03157   0.69194   0.48924   0.00000  Uiso   1.00
H639   H     0.02063   0.97010   0.01626   0.00000  Uiso   1.00
O640   O     0.10537   0.76954   0.03173   0.00000  Uiso   1.00
C641   C     0.06494   0.78826   0.03154   0.00000  Uiso   1.00
H642   H     0.05221   0.78142   0.49853   0.00000  Uiso   1.00
H643   H     0.06360   0.82703   0.03690   0.00000  Uiso   1.00
C644   C     0.03747   0.76353   0.06620   0.00000  Uiso   1.00
H645   H     0.03911   0.72489   0.06152   0.00000  Uiso   1.00
H646   H     0.04843   0.77226   0.09947   0.00000  Uiso   1.00
C647   C     0.32604   0.77898   0.06408   0.00000  Uiso   1.00
H648   H     0.32389   0.81659   0.07318   0.00000  Uiso   1.00
H649   H     0.30671   0.75837   0.08781   0.00000  Uiso   1.00
H650   H     0.31414   0.77349   0.03056   0.00000  Uiso   1.00
Br651  Br    0.20538   0.92630   0.11654   0.00000  Uiso   1.00
Br652  Br    0.17723   0.73107   0.38248   0.00000  Uiso   1.00
Br653  Br    0.13456   0.93389   0.37806   0.00000  Uiso   1.00
Br654  Br    0.12540   0.73844   0.12257   0.00000  Uiso   1.00
Br655  Br    0.04924   0.80642   0.34221   0.00000  Uiso   1.00
Br656  Br    0.28465   0.85606   0.15803   0.00000  Uiso   1.00
Br657  Br    0.27929   0.80776   0.34242   0.00000  Uiso   1.00
Br658  Br    0.05405   0.86060   0.15901   0.00000  Uiso   1.00
C659   C     0.42078   0.83318   0.25041   0.00000  Uiso   1.00
C660   C     0.57925   0.83345   0.25026   0.00000  Uiso   1.00
C661   C     0.49978   0.83326   0.16479   0.00000  Uiso   1.00
C662   C     0.49779   0.83339   0.33529   0.00000  Uiso   1.00
C663   C     0.46938   0.69106   0.23012   0.00000  Uiso   1.00
C664   C     0.53030   0.97556   0.27047   0.00000  Uiso   1.00
C665   C     0.53041   0.69186   0.27029   0.00000  Uiso   1.00
C666   C     0.46959   0.97478   0.22973   0.00000  Uiso   1.00
C667   C     0.35393   0.82142   0.28921   0.00000  Uiso   1.00
C668   C     0.64627   0.84429   0.21169   0.00000  Uiso   1.00
C669   C     0.64408   0.82196   0.28929   0.00000  Uiso   1.00
C670   C     0.35603   0.84471   0.21180   0.00000  Uiso   1.00
C671   C     0.51127   0.86988   0.04539   0.00000  Uiso   1.00
C672   C     0.49491   0.79277   0.45423   0.00000  Uiso   1.00
C673   C     0.47387   0.87467   0.45253   0.00000  Uiso   1.00
C674   C     0.46554   0.80148   0.05065   0.00000  Uiso   1.00
C675   C     0.51286   0.87136   0.09124   0.00000  Uiso   1.00
C676   C     0.49766   0.79168   0.40833   0.00000  Uiso   1.00
C677   C     0.47916   0.87487   0.40666   0.00000  Uiso   1.00
C678   C     0.47518   0.79672   0.09484   0.00000  Uiso   1.00
C679   C     0.49665   0.83336   0.11646   0.00000  Uiso   1.00
C680   C     0.49185   0.83342   0.38385   0.00000  Uiso   1.00
C681   C     0.48570   0.83613   0.02495   0.00000  Uiso   1.00
C682   C     0.48319   0.83419   0.47650   0.00000  Uiso   1.00
C683   C     0.62388   0.83354   0.25050   0.00000  Uiso   1.00
C684   C     0.37622   0.83295   0.25047   0.00000  Uiso   1.00
Cu685  Cu    0.50000   0.88022   0.25000   0.00000  Uiso   1.00
Cu686  Cu    0.50000   0.78645   0.25000   0.00000  Uiso   1.00
H687   H     0.44464   0.70938   0.21454   0.00000  Uiso   1.00
H688   H     0.55443   0.95717   0.28709   0.00000  Uiso   1.00
H689   H     0.55469   0.71084   0.28671   0.00000  Uiso   1.00
H690   H     0.44533   0.95580   0.21328   0.00000  Uiso   1.00
N691   N     0.50000   0.95069   0.25000   0.00000  Uiso   1.00
N692   N     0.50000   0.71598   0.25000   0.00000  Uiso   1.00
O693   O     0.43988   0.87291   0.25000   0.00000  Uiso   1.00
O694   O     0.56012   0.79375   0.25000   0.00000  Uiso   1.00
O695   O     0.56012   0.87291   0.25001   0.00000  Uiso   1.00
O696   O     0.43988   0.79375   0.24999   0.00000  Uiso   1.00
O697   O     0.50000   0.87293   0.18573   0.00000  Uiso   1.00
O698   O     0.50000   0.79374   0.31427   0.00000  Uiso   1.00
O699   O     0.50000   0.87293   0.31427   0.00000  Uiso   1.00
O700   O     0.50000   0.79374   0.18573   0.00000  Uiso   1.00
O701   O     0.53151   0.90496   0.02154   0.00000  Uiso   1.00
C702   C     0.56614   0.88688   0.49789   0.00000  Uiso   1.00
H703   H     0.57129   0.90941   0.46852   0.00000  Uiso   1.00
H704   H     0.56163   0.85055   0.48534   0.00000  Uiso   1.00
C705   C     0.60473   0.88855   0.02577   0.00000  Uiso   1.00
H706   H     0.60838   0.92391   0.04075   0.00000  Uiso   1.00
H707   H     0.60118   0.86266   0.05276   0.00000  Uiso   1.00
C708   C     0.64324   0.87715   0.49790   0.00000  Uiso   1.00
H709   H     0.64080   0.84126   0.48375   0.00000  Uiso   1.00
H710   H     0.33757   0.87923   0.01860   0.00000  Uiso   1.00
H711   H     0.64709   0.90262   0.47059   0.00000  Uiso   1.00
O712   O     0.50249   0.75210   0.47740   0.00000  Uiso   1.00
C713   C     0.54514   0.74858   0.48566   0.00000  Uiso   1.00
H714   H     0.55187   0.76636   0.01735   0.00000  Uiso   1.00
H715   H     0.56514   0.76462   0.45919   0.00000  Uiso   1.00
C716   C     0.55595   0.69659   0.48893   0.00000  Uiso   1.00
H717   H     0.53778   0.68016   0.01637   0.00000  Uiso   1.00
H718   H     0.54765   0.67840   0.45795   0.00000  Uiso   1.00
C719   C     0.60187   0.68980   0.49636   0.00000  Uiso   1.00
H720   H     0.62084   0.71118   0.47289   0.00000  Uiso   1.00
H721   H     0.60978   0.98579   0.49092   0.00000  Uiso   1.00
H722   H     0.60937   0.69961   0.03059   0.00000  Uiso   1.00
O723   O     0.46578   0.91653   0.47426   0.00000  Uiso   1.00
C724   C     0.42279   0.92307   0.47935   0.00000  Uiso   1.00
H725   H     0.41135   0.90421   0.00916   0.00000  Uiso   1.00
H726   H     0.40537   0.91026   0.45035   0.00000  Uiso   1.00
C727   C     0.41505   0.97567   0.48532   0.00000  Uiso   1.00
H728   H     0.42931   0.98812   0.01619   0.00000  Uiso   1.00
H729   H     0.42980   0.99513   0.45742   0.00000  Uiso   1.00
C730   C     0.36909   0.98672   0.48704   0.00000  Uiso   1.00
H731   H     0.35418   0.97408   0.45667   0.00000  Uiso   1.00
H732   H     0.36490   0.69194   0.48924   0.00000  Uiso   1.00
H733   H     0.35396   0.97010   0.01626   0.00000  Uiso   1.00
O734   O     0.43871   0.76954   0.03173   0.00000  Uiso   1.00
C735   C     0.39828   0.78826   0.03154   0.00000  Uiso   1.00
H736   H     0.38555   0.78142   0.49853   0.00000  Uiso   1.00
H737   H     0.39693   0.82703   0.03690   0.00000  Uiso   1.00
C738   C     0.37080   0.76353   0.06620   0.00000  Uiso   1.00
H739   H     0.37244   0.72489   0.06152   0.00000  Uiso   1.00
H740   H     0.38176   0.77226   0.09947   0.00000  Uiso   1.00
C741   C     0.65937   0.77898   0.06408   0.00000  Uiso   1.00
H742   H     0.65723   0.81659   0.07318   0.00000  Uiso   1.00
H743   H     0.64004   0.75837   0.08781   0.00000  Uiso   1.00
H744   H     0.64747   0.77349   0.03056   0.00000  Uiso   1.00
Br745  Br    0.53872   0.92630   0.11654   0.00000  Uiso   1.00
Br746  Br    0.51056   0.73107   0.38248   0.00000  Uiso   1.00
Br747  Br    0.46789   0.93389   0.37806   0.00000  Uiso   1.00
Br748  Br    0.45873   0.73844   0.12257   0.00000  Uiso   1.00
Br749  Br    0.38257   0.80642   0.34221   0.00000  Uiso   1.00
Br750  Br    0.61799   0.85606   0.15803   0.00000  Uiso   1.00
Br751  Br    0.61263   0.80776   0.34242   0.00000  Uiso   1.00
Br752  Br    0.38738   0.86060   0.15901   0.00000  Uiso   1.00
C753   C     0.75411   0.83318   0.25041   0.00000  Uiso   1.00
C754   C     0.91258   0.83345   0.25026   0.00000  Uiso   1.00
C755   C     0.83311   0.83326   0.16479   0.00000  Uiso   1.00
C756   C     0.83112   0.83339   0.33529   0.00000  Uiso   1.00
C757   C     0.80271   0.69106   0.23012   0.00000  Uiso   1.00
C758   C     0.86363   0.97556   0.27047   0.00000  Uiso   1.00
C759   C     0.86374   0.69186   0.27029   0.00000  Uiso   1.00
C760   C     0.80292   0.97478   0.22973   0.00000  Uiso   1.00
C761   C     0.68726   0.82142   0.28921   0.00000  Uiso   1.00
C762   C     0.97960   0.84429   0.21169   0.00000  Uiso   1.00
C763   C     0.97742   0.82196   0.28929   0.00000  Uiso   1.00
C764   C     0.68936   0.84471   0.21180   0.00000  Uiso   1.00
C765   C     0.84460   0.86988   0.04539   0.00000  Uiso   1.00
C766   C     0.82824   0.79277   0.45423   0.00000  Uiso   1.00
C767   C     0.80720   0.87467   0.45253   0.00000  Uiso   1.00
C768   C     0.79887   0.80148   0.05065   0.00000  Uiso   1.00
C769   C     0.84619   0.87136   0.09124   0.00000  Uiso   1.00
C770   C     0.83099   0.79168   0.40833   0.00000  Uiso   1.00
C771   C     0.81249   0.87487   0.40666   0.00000  Uiso   1.00
C772   C     0.80852   0.79672   0.09484   0.00000  Uiso   1.00
C773   C     0.82999   0.83336   0.11646   0.00000  Uiso   1.00
C774   C     0.82519   0.83342   0.38385   0.00000  Uiso   1.00
C775   C     0.81903   0.83613   0.02495   0.00000  Uiso   1.00
C776   C     0.81653   0.83419   0.47650   0.00000  Uiso   1.00
C777   C     0.95721   0.83354   0.25050   0.00000  Uiso   1.00
C778   C     0.70956   0.83295   0.25047   0.00000  Uiso   1.00
Cu779  Cu    0.83333   0.88022   0.25000   0.00000  Uiso   1.00
Cu780  Cu    0.83333   0.78645   0.25000   0.00000  Uiso   1.00
H781   H     0.77798   0.70938   0.21454   0.00000  Uiso   1.00
H782   H     0.88776   0.95717   0.28709   0.00000  Uiso   1.00
H783   H     0.88802   0.71084   0.28671   0.00000  Uiso   1.00
H784   H     0.77866   0.95580   0.21328   0.00000  Uiso   1.00
N785   N     0.83333   0.95069   0.25000   0.00000  Uiso   1.00
N786   N     0.83333   0.71598   0.25000   0.00000  Uiso   1.00
O787   O     0.77321   0.87291   0.25000   0.00000  Uiso   1.00
O788   O     0.89345   0.79375   0.25000   0.00000  Uiso   1.00
O789   O     0.89345   0.87291   0.25001   0.00000  Uiso   1.00
O790   O     0.77321   0.79375   0.24999   0.00000  Uiso   1.00
O791   O     0.83333   0.87293   0.18573   0.00000  Uiso   1.00
O792   O     0.83334   0.79374   0.31427   0.00000  Uiso   1.00
O793   O     0.83334   0.87293   0.31427   0.00000  Uiso   1.00
O794   O     0.83333   0.79374   0.18573   0.00000  Uiso   1.00
O795   O     0.86484   0.90496   0.02154   0.00000  Uiso   1.00
C796   C     0.89947   0.88688   0.49789   0.00000  Uiso   1.00
H797   H     0.90462   0.90941   0.46852   0.00000  Uiso   1.00
H798   H     0.89497   0.85055   0.48534   0.00000  Uiso   1.00
C799   C     0.93807   0.88855   0.02577   0.00000  Uiso   1.00
H800   H     0.94171   0.92391   0.04075   0.00000  Uiso   1.00
H801   H     0.93452   0.86266   0.05276   0.00000  Uiso   1.00
C802   C     0.97657   0.87715   0.49790   0.00000  Uiso   1.00
H803   H     0.97413   0.84126   0.48375   0.00000  Uiso   1.00
H804   H     0.67090   0.87923   0.01860   0.00000  Uiso   1.00
H805   H     0.98042   0.90262   0.47059   0.00000  Uiso   1.00
O806   O     0.83583   0.75210   0.47740   0.00000  Uiso   1.00
C807   C     0.87847   0.74858   0.48566   0.00000  Uiso   1.00
H808   H     0.88520   0.76636   0.01735   0.00000  Uiso   1.00
H809   H     0.89848   0.76462   0.45919   0.00000  Uiso   1.00
C810   C     0.88928   0.69659   0.48893   0.00000  Uiso   1.00
H811   H     0.87111   0.68016   0.01637   0.00000  Uiso   1.00
H812   H     0.88099   0.67840   0.45795   0.00000  Uiso   1.00
C813   C     0.93520   0.68980   0.49636   0.00000  Uiso   1.00
H814   H     0.95418   0.71118   0.47289   0.00000  Uiso   1.00
H815   H     0.94312   0.98579   0.49092   0.00000  Uiso   1.00
H816   H     0.94270   0.69961   0.03059   0.00000  Uiso   1.00
O817   O     0.79911   0.91653   0.47426   0.00000  Uiso   1.00
C818   C     0.75612   0.92307   0.47935   0.00000  Uiso   1.00
H819   H     0.74468   0.90421   0.00916   0.00000  Uiso   1.00
H820   H     0.73870   0.91026   0.45035   0.00000  Uiso   1.00
C821   C     0.74838   0.97567   0.48532   0.00000  Uiso   1.00
H822   H     0.76265   0.98812   0.01619   0.00000  Uiso   1.00
H823   H     0.76314   0.99513   0.45742   0.00000  Uiso   1.00
C824   C     0.70243   0.98672   0.48704   0.00000  Uiso   1.00
H825   H     0.68751   0.97408   0.45667   0.00000  Uiso   1.00
H826   H     0.69823   0.69194   0.48924   0.00000  Uiso   1.00
H827   H     0.68729   0.97010   0.01626   0.00000  Uiso   1.00
O828   O     0.77204   0.76954   0.03173   0.00000  Uiso   1.00
C829   C     0.73161   0.78826   0.03154   0.00000  Uiso   1.00
H830   H     0.71888   0.78142   0.49853   0.00000  Uiso   1.00
H831   H     0.73027   0.82703   0.03690   0.00000  Uiso   1.00
C832   C     0.70413   0.76353   0.06620   0.00000  Uiso   1.00
H833   H     0.70578   0.72489   0.06152   0.00000  Uiso   1.00
H834   H     0.71510   0.77226   0.09947   0.00000  Uiso   1.00
C835   C     0.99270   0.77898   0.06408   0.00000  Uiso   1.00
H836   H     0.99056   0.81659   0.07318   0.00000  Uiso   1.00
H837   H     0.97338   0.75837   0.08781   0.00000  Uiso   1.00
H838   H     0.98080   0.77349   0.03056   0.00000  Uiso   1.00
Br839  Br    0.87205   0.92630   0.11654   0.00000  Uiso   1.00
Br840  Br    0.84390   0.73107   0.38248   0.00000  Uiso   1.00
Br841  Br    0.80123   0.93389   0.37806   0.00000  Uiso   1.00
Br842  Br    0.79206   0.73844   0.12257   0.00000  Uiso   1.00
Br843  Br    0.71590   0.80642   0.34221   0.00000  Uiso   1.00
Br844  Br    0.95132   0.85606   0.15803   0.00000  Uiso   1.00
Br845  Br    0.94596   0.80776   0.34242   0.00000  Uiso   1.00
Br846  Br    0.72072   0.86060   0.15901   0.00000  Uiso   1.00
C847   C     0.08744   0.16652   0.75041   0.00000  Uiso   1.00
C848   C     0.24592   0.16679   0.75026   0.00000  Uiso   1.00
C849   C     0.16645   0.16660   0.66479   0.00000  Uiso   1.00
C850   C     0.16445   0.16672   0.83529   0.00000  Uiso   1.00
C851   C     0.13605   0.02439   0.73012   0.00000  Uiso   1.00
C852   C     0.19697   0.30889   0.77047   0.00000  Uiso   1.00
C853   C     0.19707   0.02520   0.77029   0.00000  Uiso   1.00
C854   C     0.13625   0.30811   0.72973   0.00000  Uiso   1.00
C855   C     0.02060   0.15475   0.78921   0.00000  Uiso   1.00
C856   C     0.31293   0.17762   0.71169   0.00000  Uiso   1.00
C857   C     0.31075   0.15529   0.78929   0.00000  Uiso   1.00
C858   C     0.02270   0.17804   0.71180   0.00000  Uiso   1.00
C859   C     0.17793   0.20321   0.54539   0.00000  Uiso   1.00
C860   C     0.16157   0.12611   0.95423   0.00000  Uiso   1.00
C861   C     0.14054   0.20800   0.95253   0.00000  Uiso   1.00
C862   C     0.13221   0.13482   0.55065   0.00000  Uiso   1.00
C863   C     0.17952   0.20470   0.59124   0.00000  Uiso   1.00
C864   C     0.16432   0.12501   0.90833   0.00000  Uiso   1.00
C865   C     0.14582   0.20820   0.90666   0.00000  Uiso   1.00
C866   C     0.14185   0.13006   0.59484   0.00000  Uiso   1.00
C867   C     0.16332   0.16669   0.61646   0.00000  Uiso   1.00
C868   C     0.15852   0.16675   0.88385   0.00000  Uiso   1.00
C869   C     0.15237   0.16947   0.52495   0.00000  Uiso   1.00
C870   C     0.14986   0.16753   0.97650   0.00000  Uiso   1.00
C871   C     0.29055   0.16687   0.75050   0.00000  Uiso   1.00
C872   C     0.04289   0.16628   0.75047   0.00000  Uiso   1.00
Cu873  Cu    0.16667   0.21355   0.75000   0.00000  Uiso   1.00
Cu874  Cu    0.16667   0.11978   0.75000   0.00000  Uiso   1.00
H875   H     0.11131   0.04271   0.71454   0.00000  Uiso   1.00
H876   H     0.22110   0.29051   0.78709   0.00000  Uiso   1.00
H877   H     0.22135   0.04418   0.78671   0.00000  Uiso   1.00
H878   H     0.11199   0.28913   0.71328   0.00000  Uiso   1.00
N879   N     0.16667   0.28402   0.75000   0.00000  Uiso   1.00
N880   N     0.16667   0.04931   0.75000   0.00000  Uiso   1.00
O881   O     0.10655   0.20625   0.75000   0.00000  Uiso   1.00
O882   O     0.22679   0.12709   0.75000   0.00000  Uiso   1.00
O883   O     0.22679   0.20625   0.75001   0.00000  Uiso   1.00
O884   O     0.10655   0.12709   0.74999   0.00000  Uiso   1.00
O885   O     0.16666   0.20626   0.68573   0.00000  Uiso   1.00
O886   O     0.16667   0.12707   0.81427   0.00000  Uiso   1.00
O887   O     0.16667   0.20626   0.81427   0.00000  Uiso   1.00
O888   O     0.16666   0.12707   0.68573   0.00000  Uiso   1.00
O889   O     0.19818   0.23829   0.52154   0.00000  Uiso   1.00
C890   C     0.23281   0.22021   0.99789   0.00000  Uiso   1.00
H891   H     0.23796   0.24274   0.96852   0.00000  Uiso   1.00
H892   H     0.22830   0.18388   0.98534   0.00000  Uiso   1.00
C893   C     0.27140   0.22188   0.52577   0.00000  Uiso   1.00
H894   H     0.27505   0.25724   0.54075   0.00000  Uiso   1.00
H895   H     0.26785   0.19599   0.55276   0.00000  Uiso   1.00
C896   C     0.30991   0.21049   0.99790   0.00000  Uiso   1.00
H897   H     0.30747   0.17460   0.98375   0.00000  Uiso   1.00
H898   H     0.00423   0.21257   0.51860   0.00000  Uiso   1.00
H899   H     0.31376   0.23596   0.97059   0.00000  Uiso   1.00
O900   O     0.16916   0.08543   0.97740   0.00000  Uiso   1.00
C901   C     0.21181   0.08192   0.98566   0.00000  Uiso   1.00
H902   H     0.21853   0.09969   0.51735   0.00000  Uiso   1.00
H903   H     0.23181   0.09795   0.95919   0.00000  Uiso   1.00
C904   C     0.22261   0.02992   0.98893   0.00000  Uiso   1.00
H905   H     0.20444   0.01350   0.51637   0.00000  Uiso   1.00
H906   H     0.21432   0.01173   0.95795   0.00000  Uiso   1.00
C907   C     0.26853   0.02314   0.99636   0.00000  Uiso   1.00
H908   H     0.28751   0.04451   0.97289   0.00000  Uiso   1.00
H909   H     0.27645   0.31913   0.99092   0.00000  Uiso   1.00
H910   H     0.27604   0.03295   0.53059   0.00000  Uiso   1.00
O911   O     0.13244   0.24986   0.97426   0.00000  Uiso   1.00
C912   C     0.08946   0.25640   0.97935   0.00000  Uiso   1.00
H913   H     0.07802   0.23755   0.50916   0.00000  Uiso   1.00
H914   H     0.07204   0.24360   0.95035   0.00000  Uiso   1.00
C915   C     0.08172   0.30900   0.98532   0.00000  Uiso   1.00
H916   H     0.09598   0.32145   0.51619   0.00000  Uiso   1.00
H917   H     0.09647   0.32846   0.95742   0.00000  Uiso   1.00
C918   C     0.03576   0.32006   0.98704   0.00000  Uiso   1.00
H919   H     0.02085   0.30741   0.95667   0.00000  Uiso   1.00
H920   H     0.03157   0.02528   0.98924   0.00000  Uiso   1.00
H921   H     0.02063   0.30343   0.51626   0.00000  Uiso   1.00
O922   O     0.10537   0.10287   0.53173   0.00000  Uiso   1.00
C923   C     0.06494   0.12159   0.53154   0.00000  Uiso   1.00
H924   H     0.05221   0.11475   0.99853   0.00000  Uiso   1.00
H925   H     0.06360   0.16036   0.53690   0.00000  Uiso   1.00
C926   C     0.03747   0.09686   0.56620   0.00000  Uiso   1.00
H927   H     0.03911   0.05822   0.56152   0.00000  Uiso   1.00
H928   H     0.04843   0.10559   0.59947   0.00000  Uiso   1.00
C929   C     0.32604   0.11231   0.56408   0.00000  Uiso   1.00
H930   H     0.32389   0.14992   0.57318   0.00000  Uiso   1.00
H931   H     0.30671   0.09170   0.58781   0.00000  Uiso   1.00
H932   H     0.31414   0.10682   0.53056   0.00000  Uiso   1.00
Br933  Br    0.20538   0.25963   0.61654   0.00000  Uiso   1.00
Br934  Br    0.17723   0.06440   0.88248   0.00000  Uiso   1.00
Br935  Br    0.13456   0.26722   0.87806   0.00000  Uiso   1.00
Br936  Br    0.12540   0.07177   0.62257   0.00000  Uiso   1.00
Br937  Br    0.04924   0.13975   0.84221   0.00000  Uiso   1.00
Br938  Br    0.28465   0.18939   0.65803   0.00000  Uiso   1.00
Br939  Br    0.27929   0.14109   0.84242   0.00000  Uiso   1.00
Br940  Br    0.05405   0.19393   0.65901   0.00000  Uiso   1.00
C941   C     0.42078   0.16652   0.75041   0.00000  Uiso   1.00
C942   C     0.57925   0.16679   0.75026   0.00000  Uiso   1.00
C943   C     0.49978   0.16660   0.66479   0.00000  Uiso   1.00
C944   C     0.49779   0.16672   0.83529   0.00000  Uiso   1.00
C945   C     0.46938   0.02439   0.73012   0.00000  Uiso   1.00
C946   C     0.53030   0.30889   0.77047   0.00000  Uiso   1.00
C947   C     0.53041   0.02520   0.77029   0.00000  Uiso   1.00
C948   C     0.46959   0.30811   0.72973   0.00000  Uiso   1.00
C949   C     0.35393   0.15475   0.78921   0.00000  Uiso   1.00
C950   C     0.64627   0.17762   0.71169   0.00000  Uiso   1.00
C951   C     0.64408   0.15529   0.78929   0.00000  Uiso   1.00
C952   C     0.35603   0.17804   0.71180   0.00000  Uiso   1.00
C953   C     0.51127   0.20321   0.54539   0.00000  Uiso   1.00
C954   C     0.49491   0.12611   0.95423   0.00000  Uiso   1.00
C955   C     0.47387   0.20800   0.95253   0.00000  Uiso   1.00
C956   C     0.46554   0.13482   0.55065   0.00000  Uiso   1.00
C957   C     0.51286   0.20470   0.59124   0.00000  Uiso   1.00
C958   C     0.49766   0.12501   0.90833   0.00000  Uiso   1.00
C959   C     0.47916   0.20820   0.90666   0.00000  Uiso   1.00
C960   C     0.47518   0.13006   0.59484   0.00000  Uiso   1.00
C961   C     0.49665   0.16669   0.61646   0.00000  Uiso   1.00
C962   C     0.49185   0.16675   0.88385   0.00000  Uiso   1.00
C963   C     0.48570   0.16947   0.52495   0.00000  Uiso   1.00
C964   C     0.48319   0.16753   0.97650   0.00000  Uiso   1.00
C965   C     0.62388   0.16687   0.75050   0.00000  Uiso   1.00
C966   C     0.37622   0.16628   0.75047   0.00000  Uiso   1.00
Cu967  Cu    0.50000   0.21355   0.75000   0.00000  Uiso   1.00
Cu968  Cu    0.50000   0.11978   0.75000   0.00000  Uiso   1.00
H969   H     0.44464   0.04271   0.71454   0.00000  Uiso   1.00
H970   H     0.55443   0.29051   0.78709   0.00000  Uiso   1.00
H971   H     0.55469   0.04418   0.78671   0.00000  Uiso   1.00
H972   H     0.44533   0.28913   0.71328   0.00000  Uiso   1.00
N973   N     0.50000   0.28402   0.75000   0.00000  Uiso   1.00
N974   N     0.50000   0.04931   0.75000   0.00000  Uiso   1.00
O975   O     0.43988   0.20625   0.75000   0.00000  Uiso   1.00
O976   O     0.56012   0.12709   0.75000   0.00000  Uiso   1.00
O977   O     0.56012   0.20625   0.75001   0.00000  Uiso   1.00
O978   O     0.43988   0.12709   0.74999   0.00000  Uiso   1.00
O979   O     0.50000   0.20626   0.68573   0.00000  Uiso   1.00
O980   O     0.50000   0.12707   0.81427   0.00000  Uiso   1.00
O981   O     0.50000   0.20626   0.81427   0.00000  Uiso   1.00
O982   O     0.50000   0.12707   0.68573   0.00000  Uiso   1.00
O983   O     0.53151   0.23829   0.52154   0.00000  Uiso   1.00
C984   C     0.56614   0.22021   0.99789   0.00000  Uiso   1.00
H985   H     0.57129   0.24274   0.96852   0.00000  Uiso   1.00
H986   H     0.56163   0.18388   0.98534   0.00000  Uiso   1.00
C987   C     0.60473   0.22188   0.52577   0.00000  Uiso   1.00
H988   H     0.60838   0.25724   0.54075   0.00000  Uiso   1.00
H989   H     0.60118   0.19599   0.55276   0.00000  Uiso   1.00
C990   C     0.64324   0.21049   0.99790   0.00000  Uiso   1.00
H991   H     0.64080   0.17460   0.98375   0.00000  Uiso   1.00
H992   H     0.33757   0.21257   0.51860   0.00000  Uiso   1.00
H993   H     0.64709   0.23596   0.97059   0.00000  Uiso   1.00
O994   O     0.50249   0.08543   0.97740   0.00000  Uiso   1.00
C995   C     0.54514   0.08192   0.98566   0.00000  Uiso   1.00
H996   H     0.55187   0.09969   0.51735   0.00000  Uiso   1.00
H997   H     0.56514   0.09795   0.95919   0.00000  Uiso   1.00
C998   C     0.55595   0.02992   0.98893   0.00000  Uiso   1.00
H999   H     0.53778   0.01350   0.51637   0.00000  Uiso   1.00
H1000  H     0.54765   0.01173   0.95795   0.00000  Uiso   1.00
C1001  C     0.60187   0.02314   0.99636   0.00000  Uiso   1.00
H1002  H     0.62084   0.04451   0.97289   0.00000  Uiso   1.00
H1003  H     0.60978   0.31913   0.99092   0.00000  Uiso   1.00
H1004  H     0.60937   0.03295   0.53059   0.00000  Uiso   1.00
O1005  O     0.46578   0.24986   0.97426   0.00000  Uiso   1.00
C1006  C     0.42279   0.25640   0.97935   0.00000  Uiso   1.00
H1007  H     0.41135   0.23755   0.50916   0.00000  Uiso   1.00
H1008  H     0.40537   0.24360   0.95035   0.00000  Uiso   1.00
C1009  C     0.41505   0.30900   0.98532   0.00000  Uiso   1.00
H1010  H     0.42931   0.32145   0.51619   0.00000  Uiso   1.00
H1011  H     0.42980   0.32846   0.95742   0.00000  Uiso   1.00
C1012  C     0.36909   0.32006   0.98704   0.00000  Uiso   1.00
H1013  H     0.35418   0.30741   0.95667   0.00000  Uiso   1.00
H1014  H     0.36490   0.02528   0.98924   0.00000  Uiso   1.00
H1015  H     0.35396   0.30343   0.51626   0.00000  Uiso   1.00
O1016  O     0.43871   0.10287   0.53173   0.00000  Uiso   1.00
C1017  C     0.39828   0.12159   0.53154   0.00000  Uiso   1.00
H1018  H     0.38555   0.11475   0.99853   0.00000  Uiso   1.00
H1019  H     0.39693   0.16036   0.53690   0.00000  Uiso   1.00
C1020  C     0.37080   0.09686   0.56620   0.00000  Uiso   1.00
H1021  H     0.37244   0.05822   0.56152   0.00000  Uiso   1.00
H1022  H     0.38176   0.10559   0.59947   0.00000  Uiso   1.00
C1023  C     0.65937   0.11231   0.56408   0.00000  Uiso   1.00
H1024  H     0.65723   0.14992   0.57318   0.00000  Uiso   1.00
H1025  H     0.64004   0.09170   0.58781   0.00000  Uiso   1.00
H1026  H     0.64747   0.10682   0.53056   0.00000  Uiso   1.00
Br1027 Br    0.53872   0.25963   0.61654   0.00000  Uiso   1.00
Br1028 Br    0.51056   0.06440   0.88248   0.00000  Uiso   1.00
Br1029 Br    0.46789   0.26722   0.87806   0.00000  Uiso   1.00
Br1030 Br    0.45873   0.07177   0.62257   0.00000  Uiso   1.00
Br1031 Br    0.38257   0.13975   0.84221   0.00000  Uiso   1.00
Br1032 Br    0.61799   0.18939   0.65803   0.00000  Uiso   1.00
Br1033 Br    0.61263   0.14109   0.84242   0.00000  Uiso   1.00
Br1034 Br    0.38738   0.19393   0.65901   0.00000  Uiso   1.00
C1035  C     0.75411   0.16652   0.75041   0.00000  Uiso   1.00
C1036  C     0.91258   0.16679   0.75026   0.00000  Uiso   1.00
C1037  C     0.83311   0.16660   0.66479   0.00000  Uiso   1.00
C1038  C     0.83112   0.16672   0.83529   0.00000  Uiso   1.00
C1039  C     0.80271   0.02439   0.73012   0.00000  Uiso   1.00
C1040  C     0.86363   0.30889   0.77047   0.00000  Uiso   1.00
C1041  C     0.86374   0.02520   0.77029   0.00000  Uiso   1.00
C1042  C     0.80292   0.30811   0.72973   0.00000  Uiso   1.00
C1043  C     0.68726   0.15475   0.78921   0.00000  Uiso   1.00
C1044  C     0.97960   0.17762   0.71169   0.00000  Uiso   1.00
C1045  C     0.97742   0.15529   0.78929   0.00000  Uiso   1.00
C1046  C     0.68936   0.17804   0.71180   0.00000  Uiso   1.00
C1047  C     0.84460   0.20321   0.54539   0.00000  Uiso   1.00
C1048  C     0.82824   0.12611   0.95423   0.00000  Uiso   1.00
C1049  C     0.80720   0.20800   0.95253   0.00000  Uiso   1.00
C1050  C     0.79887   0.13482   0.55065   0.00000  Uiso   1.00
C1051  C     0.84619   0.20470   0.59124   0.00000  Uiso   1.00
C1052  C     0.83099   0.12501   0.90833   0.00000  Uiso   1.00
C1053  C     0.81249   0.20820   0.90666   0.00000  Uiso   1.00
C1054  C     0.80852   0.13006   0.59484   0.00000  Uiso   1.00
C1055  C     0.82999   0.16669   0.61646   0.00000  Uiso   1.00
C1056  C     0.82519   0.16675   0.88385   0.00000  Uiso   1.00
C1057  C     0.81903   0.16947   0.52495   0.00000  Uiso   1.00
C1058  C     0.81653   0.16753   0.97650   0.00000  Uiso   1.00
C1059  C     0.95721   0.16687   0.75050   0.00000  Uiso   1.00
C1060  C     0.70956   0.16628   0.75047   0.00000  Uiso   1.00
Cu1061 Cu    0.83333   0.21355   0.75000   0.00000  Uiso   1.00
Cu1062 Cu    0.83333   0.11978   0.75000   0.00000  Uiso   1.00
H1063  H     0.77798   0.04271   0.71454   0.00000  Uiso   1.00
H1064  H     0.88776   0.29051   0.78709   0.00000  Uiso   1.00
H1065  H     0.88802   0.04418   0.78671   0.00000  Uiso   1.00
H1066  H     0.77866   0.28913   0.71328   0.00000  Uiso   1.00
N1067  N     0.83333   0.28402   0.75000   0.00000  Uiso   1.00
N1068  N     0.83333   0.04931   0.75000   0.00000  Uiso   1.00
O1069  O     0.77321   0.20625   0.75000   0.00000  Uiso   1.00
O1070  O     0.89345   0.12709   0.75000   0.00000  Uiso   1.00
O1071  O     0.89345   0.20625   0.75001   0.00000  Uiso   1.00
O1072  O     0.77321   0.12709   0.74999   0.00000  Uiso   1.00
O1073  O     0.83333   0.20626   0.68573   0.00000  Uiso   1.00
O1074  O     0.83334   0.12707   0.81427   0.00000  Uiso   1.00
O1075  O     0.83334   0.20626   0.81427   0.00000  Uiso   1.00
O1076  O     0.83333   0.12707   0.68573   0.00000  Uiso   1.00
O1077  O     0.86484   0.23829   0.52154   0.00000  Uiso   1.00
C1078  C     0.89947   0.22021   0.99789   0.00000  Uiso   1.00
H1079  H     0.90462   0.24274   0.96852   0.00000  Uiso   1.00
H1080  H     0.89497   0.18388   0.98534   0.00000  Uiso   1.00
C1081  C     0.93807   0.22188   0.52577   0.00000  Uiso   1.00
H1082  H     0.94171   0.25724   0.54075   0.00000  Uiso   1.00
H1083  H     0.93452   0.19599   0.55276   0.00000  Uiso   1.00
C1084  C     0.97657   0.21049   0.99790   0.00000  Uiso   1.00
H1085  H     0.97413   0.17460   0.98375   0.00000  Uiso   1.00
H1086  H     0.67090   0.21257   0.51860   0.00000  Uiso   1.00
H1087  H     0.98042   0.23596   0.97059   0.00000  Uiso   1.00
O1088  O     0.83583   0.08543   0.97740   0.00000  Uiso   1.00
C1089  C     0.87847   0.08192   0.98566   0.00000  Uiso   1.00
H1090  H     0.88520   0.09969   0.51735   0.00000  Uiso   1.00
H1091  H     0.89848   0.09795   0.95919   0.00000  Uiso   1.00
C1092  C     0.88928   0.02992   0.98893   0.00000  Uiso   1.00
H1093  H     0.87111   0.01350   0.51637   0.00000  Uiso   1.00
H1094  H     0.88099   0.01173   0.95795   0.00000  Uiso   1.00
C1095  C     0.93520   0.02314   0.99636   0.00000  Uiso   1.00
H1096  H     0.95418   0.04451   0.97289   0.00000  Uiso   1.00
H1097  H     0.94312   0.31913   0.99092   0.00000  Uiso   1.00
H1098  H     0.94270   0.03295   0.53059   0.00000  Uiso   1.00
O1099  O     0.79911   0.24986   0.97426   0.00000  Uiso   1.00
C1100  C     0.75612   0.25640   0.97935   0.00000  Uiso   1.00
H1101  H     0.74468   0.23755   0.50916   0.00000  Uiso   1.00
H1102  H     0.73870   0.24360   0.95035   0.00000  Uiso   1.00
C1103  C     0.74838   0.30900   0.98532   0.00000  Uiso   1.00
H1104  H     0.76265   0.32145   0.51619   0.00000  Uiso   1.00
H1105  H     0.76314   0.32846   0.95742   0.00000  Uiso   1.00
C1106  C     0.70243   0.32006   0.98704   0.00000  Uiso   1.00
H1107  H     0.68751   0.30741   0.95667   0.00000  Uiso   1.00
H1108  H     0.69823   0.02528   0.98924   0.00000  Uiso   1.00
H1109  H     0.68729   0.30343   0.51626   0.00000  Uiso   1.00
O1110  O     0.77204   0.10287   0.53173   0.00000  Uiso   1.00
C1111  C     0.73161   0.12159   0.53154   0.00000  Uiso   1.00
H1112  H     0.71888   0.11475   0.99853   0.00000  Uiso   1.00
H1113  H     0.73027   0.16036   0.53690   0.00000  Uiso   1.00
C1114  C     0.70413   0.09686   0.56620   0.00000  Uiso   1.00
H1115  H     0.70578   0.05822   0.56152   0.00000  Uiso   1.00
H1116  H     0.71510   0.10559   0.59947   0.00000  Uiso   1.00
C1117  C     0.99270   0.11231   0.56408   0.00000  Uiso   1.00
H1118  H     0.99056   0.14992   0.57318   0.00000  Uiso   1.00
H1119  H     0.97338   0.09170   0.58781   0.00000  Uiso   1.00
H1120  H     0.98080   0.10682   0.53056   0.00000  Uiso   1.00
Br1121 Br    0.87205   0.25963   0.61654   0.00000  Uiso   1.00
Br1122 Br    0.84390   0.06440   0.88248   0.00000  Uiso   1.00
Br1123 Br    0.80123   0.26722   0.87806   0.00000  Uiso   1.00
Br1124 Br    0.79206   0.07177   0.62257   0.00000  Uiso   1.00
Br1125 Br    0.71590   0.13975   0.84221   0.00000  Uiso   1.00
Br1126 Br    0.95132   0.18939   0.65803   0.00000  Uiso   1.00
Br1127 Br    0.94596   0.14109   0.84242   0.00000  Uiso   1.00
Br1128 Br    0.72072   0.19393   0.65901   0.00000  Uiso   1.00
C1129  C     0.08744   0.49985   0.75041   0.00000  Uiso   1.00
C1130  C     0.24592   0.50012   0.75026   0.00000  Uiso   1.00
C1131  C     0.16645   0.49993   0.66479   0.00000  Uiso   1.00
C1132  C     0.16445   0.50006   0.83529   0.00000  Uiso   1.00
C1133  C     0.13605   0.35773   0.73012   0.00000  Uiso   1.00
C1134  C     0.19697   0.64223   0.77047   0.00000  Uiso   1.00
C1135  C     0.19707   0.35853   0.77029   0.00000  Uiso   1.00
C1136  C     0.13625   0.64144   0.72973   0.00000  Uiso   1.00
C1137  C     0.02060   0.48808   0.78921   0.00000  Uiso   1.00
C1138  C     0.31293   0.51095   0.71169   0.00000  Uiso   1.00
C1139  C     0.31075   0.48862   0.78929   0.00000  Uiso   1.00
C1140  C     0.02270   0.51137   0.71180   0.00000  Uiso   1.00
C1141  C     0.17793   0.53654   0.54539   0.00000  Uiso   1.00
C1142  C     0.16157   0.45944   0.95423   0.00000  Uiso   1.00
C1143  C     0.14054   0.54134   0.95253   0.00000  Uiso   1.00
C1144  C     0.13221   0.46815   0.55065   0.00000  Uiso   1.00
C1145  C     0.17952   0.53803   0.59124   0.00000  Uiso   1.00
C1146  C     0.16432   0.45834   0.90833   0.00000  Uiso   1.00
C1147  C     0.14582   0.54153   0.90666   0.00000  Uiso   1.00
C1148  C     0.14185   0.46339   0.59484   0.00000  Uiso   1.00
C1149  C     0.16332   0.50003   0.61646   0.00000  Uiso   1.00
C1150  C     0.15852   0.50009   0.88385   0.00000  Uiso   1.00
C1151  C     0.15237   0.50280   0.52495   0.00000  Uiso   1.00
C1152  C     0.14986   0.50086   0.97650   0.00000  Uiso   1.00
C1153  C     0.29055   0.50021   0.75050   0.00000  Uiso   1.00
C1154  C     0.04289   0.49961   0.75047   0.00000  Uiso   1.00
Cu1155 Cu    0.16667   0.54689   0.75000   0.00000  Uiso   1.00
Cu1156 Cu    0.16667   0.45311   0.75000   0.00000  Uiso   1.00
H1157  H     0.11131   0.37604   0.71454   0.00000  Uiso   1.00
H1158  H     0.22110   0.62384   0.78709   0.00000  Uiso   1.00
H1159  H     0.22135   0.37751   0.78671   0.00000  Uiso   1.00
H1160  H     0.11199   0.62247   0.71328   0.00000  Uiso   1.00
N1161  N     0.16667   0.61736   0.75000   0.00000  Uiso   1.00
N1162  N     0.16667   0.38264   0.75000   0.00000  Uiso   1.00
O1163  O     0.10655   0.53958   0.75000   0.00000  Uiso   1.00
O1164  O     0.22679   0.46042   0.75000   0.00000  Uiso   1.00
O1165  O     0.22679   0.53958   0.75001   0.00000  Uiso   1.00
O1166  O     0.10655   0.46042   0.74999   0.00000  Uiso   1.00
O1167  O     0.16666   0.53959   0.68573   0.00000  Uiso   1.00
O1168  O     0.16667   0.46041   0.81427   0.00000  Uiso   1.00
O1169  O     0.16667   0.53959   0.81427   0.00000  Uiso   1.00
O1170  O     0.16666   0.46041   0.68573   0.00000  Uiso   1.00
O1171  O     0.19818   0.57162   0.52154   0.00000  Uiso   1.00
C1172  C     0.23281   0.55355   0.99789   0.00000  Uiso   1.00
H1173  H     0.23796   0.57608   0.96852   0.00000  Uiso   1.00
H1174  H     0.22830   0.51722   0.98534   0.00000  Uiso   1.00
C1175  C     0.27140   0.55521   0.52577   0.00000  Uiso   1.00
H1176  H     0.27505   0.59058   0.54075   0.00000  Uiso   1.00
H1177  H     0.26785   0.52933   0.55276   0.00000  Uiso   1.00
C1178  C     0.30991   0.54382   0.99790   0.00000  Uiso   1.00
H1179  H     0.30747   0.50793   0.98375   0.00000  Uiso   1.00
H1180  H     0.00423   0.54590   0.51860   0.00000  Uiso   1.00
H1181  H     0.31376   0.56929   0.97059   0.00000  Uiso   1.00
O1182  O     0.16916   0.41877   0.97740   0.00000  Uiso   1.00
C1183  C     0.21181   0.41525   0.98566   0.00000  Uiso   1.00
H1184  H     0.21853   0.43303   0.51735   0.00000  Uiso   1.00
H1185  H     0.23181   0.43129   0.95919   0.00000  Uiso   1.00
C1186  C     0.22261   0.36325   0.98893   0.00000  Uiso   1.00
H1187  H     0.20444   0.34683   0.51637   0.00000  Uiso   1.00
H1188  H     0.21432   0.34507   0.95795   0.00000  Uiso   1.00
C1189  C     0.26853   0.35647   0.99636   0.00000  Uiso   1.00
H1190  H     0.28751   0.37785   0.97289   0.00000  Uiso   1.00
H1191  H     0.27645   0.65246   0.99092   0.00000  Uiso   1.00
H1192  H     0.27604   0.36628   0.53059   0.00000  Uiso   1.00
O1193  O     0.13244   0.58319   0.97426   0.00000  Uiso   1.00
C1194  C     0.08946   0.58973   0.97935   0.00000  Uiso   1.00
H1195  H     0.07802   0.57088   0.50916   0.00000  Uiso   1.00
H1196  H     0.07204   0.57693   0.95035   0.00000  Uiso   1.00
C1197  C     0.08172   0.64233   0.98532   0.00000  Uiso   1.00
H1198  H     0.09598   0.65478   0.51619   0.00000  Uiso   1.00
H1199  H     0.09647   0.66179   0.95742   0.00000  Uiso   1.00
C1200  C     0.03576   0.65339   0.98704   0.00000  Uiso   1.00
H1201  H     0.02085   0.64074   0.95667   0.00000  Uiso   1.00
H1202  H     0.03157   0.35861   0.98924   0.00000  Uiso   1.00
H1203  H     0.02063   0.63676   0.51626   0.00000  Uiso   1.00
O1204  O     0.10537   0.43620   0.53173   0.00000  Uiso   1.00
C1205  C     0.06494   0.45492   0.53154   0.00000  Uiso   1.00
H1206  H     0.05221   0.44808   0.99853   0.00000  Uiso   1.00
H1207  H     0.06360   0.49369   0.53690   0.00000  Uiso   1.00
C1208  C     0.03747   0.43019   0.56620   0.00000  Uiso   1.00
H1209  H     0.03911   0.39156   0.56152   0.00000  Uiso   1.00
H1210  H     0.04843   0.43892   0.59947   0.00000  Uiso   1.00
C1211  C     0.32604   0.44564   0.56408   0.00000  Uiso   1.00
H1212  H     0.32389   0.48326   0.57318   0.00000  Uiso   1.00
H1213  H     0.30671   0.42504   0.58781   0.00000  Uiso   1.00
H1214  H     0.31414   0.44016   0.53056   0.00000  Uiso   1.00
Br1215 Br    0.20538   0.59297   0.61654   0.00000  Uiso   1.00
Br1216 Br    0.17723   0.39774   0.88248   0.00000  Uiso   1.00
Br1217 Br    0.13456   0.60055   0.87806   0.00000  Uiso   1.00
Br1218 Br    0.12540   0.40510   0.62257   0.00000  Uiso   1.00
Br1219 Br    0.04924   0.47309   0.84221   0.00000  Uiso   1.00
Br1220 Br    0.28465   0.52273   0.65803   0.00000  Uiso   1.00
Br1221 Br    0.27929   0.47442   0.84242   0.00000  Uiso   1.00
Br1222 Br    0.05405   0.52727   0.65901   0.00000  Uiso   1.00
C1223  C     0.42078   0.49985   0.75041   0.00000  Uiso   1.00
C1224  C     0.57925   0.50012   0.75026   0.00000  Uiso   1.00
C1225  C     0.49978   0.49993   0.66479   0.00000  Uiso   1.00
C1226  C     0.49779   0.50006   0.83529   0.00000  Uiso   1.00
C1227  C     0.46938   0.35773   0.73012   0.00000  Uiso   1.00
C1228  C     0.53030   0.64223   0.77047   0.00000  Uiso   1.00
C1229  C     0.53041   0.35853   0.77029   0.00000  Uiso   1.00
C1230  C     0.46959   0.64144   0.72973   0.00000  Uiso   1.00
C1231  C     0.35393   0.48808   0.78921   0.00000  Uiso   1.00
C1232  C     0.64627   0.51095   0.71169   0.00000  Uiso   1.00
C1233  C     0.64408   0.48862   0.78929   0.00000  Uiso   1.00
C1234  C     0.35603   0.51137   0.71180   0.00000  Uiso   1.00
C1235  C     0.51127   0.53654   0.54539   0.00000  Uiso   1.00
C1236  C     0.49491   0.45944   0.95423   0.00000  Uiso   1.00
C1237  C     0.47387   0.54134   0.95253   0.00000  Uiso   1.00
C1238  C     0.46554   0.46815   0.55065   0.00000  Uiso   1.00
C1239  C     0.51286   0.53803   0.59124   0.00000  Uiso   1.00
C1240  C     0.49766   0.45834   0.90833   0.00000  Uiso   1.00
C1241  C     0.47916   0.54153   0.90666   0.00000  Uiso   1.00
C1242  C     0.47518   0.46339   0.59484   0.00000  Uiso   1.00
C1243  C     0.49665   0.50003   0.61646   0.00000  Uiso   1.00
C1244  C     0.49185   0.50009   0.88385   0.00000  Uiso   1.00
C1245  C     0.48570   0.50280   0.52495   0.00000  Uiso   1.00
C1246  C     0.48319   0.50086   0.97650   0.00000  Uiso   1.00
C1247  C     0.62388   0.50021   0.75050   0.00000  Uiso   1.00
C1248  C     0.37622   0.49961   0.75047   0.00000  Uiso   1.00
Cu1249 Cu    0.50000   0.54689   0.75000   0.00000  Uiso   1.00
Cu1250 Cu    0.50000   0.45311   0.75000   0.00000  Uiso   1.00
H1251  H     0.44464   0.37604   0.71454   0.00000  Uiso   1.00
H1252  H     0.55443   0.62384   0.78709   0.00000  Uiso   1.00
H1253  H     0.55469   0.37751   0.78671   0.00000  Uiso   1.00
H1254  H     0.44533   0.62247   0.71328   0.00000  Uiso   1.00
N1255  N     0.50000   0.61736   0.75000   0.00000  Uiso   1.00
N1256  N     0.50000   0.38264   0.75000   0.00000  Uiso   1.00
O1257  O     0.43988   0.53958   0.75000   0.00000  Uiso   1.00
O1258  O     0.56012   0.46042   0.75000   0.00000  Uiso   1.00
O1259  O     0.56012   0.53958   0.75001   0.00000  Uiso   1.00
O1260  O     0.43988   0.46042   0.74999   0.00000  Uiso   1.00
O1261  O     0.50000   0.53959   0.68573   0.00000  Uiso   1.00
O1262  O     0.50000   0.46041   0.81427   0.00000  Uiso   1.00
O1263  O     0.50000   0.53959   0.81427   0.00000  Uiso   1.00
O1264  O     0.50000   0.46041   0.68573   0.00000  Uiso   1.00
O1265  O     0.53151   0.57162   0.52154   0.00000  Uiso   1.00
C1266  C     0.56614   0.55355   0.99789   0.00000  Uiso   1.00
H1267  H     0.57129   0.57608   0.96852   0.00000  Uiso   1.00
H1268  H     0.56163   0.51722   0.98534   0.00000  Uiso   1.00
C1269  C     0.60473   0.55521   0.52577   0.00000  Uiso   1.00
H1270  H     0.60838   0.59058   0.54075   0.00000  Uiso   1.00
H1271  H     0.60118   0.52933   0.55276   0.00000  Uiso   1.00
C1272  C     0.64324   0.54382   0.99790   0.00000  Uiso   1.00
H1273  H     0.64080   0.50793   0.98375   0.00000  Uiso   1.00
H1274  H     0.33757   0.54590   0.51860   0.00000  Uiso   1.00
H1275  H     0.64709   0.56929   0.97059   0.00000  Uiso   1.00
O1276  O     0.50249   0.41877   0.97740   0.00000  Uiso   1.00
C1277  C     0.54514   0.41525   0.98566   0.00000  Uiso   1.00
H1278  H     0.55187   0.43303   0.51735   0.00000  Uiso   1.00
H1279  H     0.56514   0.43129   0.95919   0.00000  Uiso   1.00
C1280  C     0.55595   0.36325   0.98893   0.00000  Uiso   1.00
H1281  H     0.53778   0.34683   0.51637   0.00000  Uiso   1.00
H1282  H     0.54765   0.34507   0.95795   0.00000  Uiso   1.00
C1283  C     0.60187   0.35647   0.99636   0.00000  Uiso   1.00
H1284  H     0.62084   0.37785   0.97289   0.00000  Uiso   1.00
H1285  H     0.60978   0.65246   0.99092   0.00000  Uiso   1.00
H1286  H     0.60937   0.36628   0.53059   0.00000  Uiso   1.00
O1287  O     0.46578   0.58319   0.97426   0.00000  Uiso   1.00
C1288  C     0.42279   0.58973   0.97935   0.00000  Uiso   1.00
H1289  H     0.41135   0.57088   0.50916   0.00000  Uiso   1.00
H1290  H     0.40537   0.57693   0.95035   0.00000  Uiso   1.00
C1291  C     0.41505   0.64233   0.98532   0.00000  Uiso   1.00
H1292  H     0.42931   0.65478   0.51619   0.00000  Uiso   1.00
H1293  H     0.42980   0.66179   0.95742   0.00000  Uiso   1.00
C1294  C     0.36909   0.65339   0.98704   0.00000  Uiso   1.00
H1295  H     0.35418   0.64074   0.95667   0.00000  Uiso   1.00
H1296  H     0.36490   0.35861   0.98924   0.00000  Uiso   1.00
H1297  H     0.35396   0.63676   0.51626   0.00000  Uiso   1.00
O1298  O     0.43871   0.43620   0.53173   0.00000  Uiso   1.00
C1299  C     0.39828   0.45492   0.53154   0.00000  Uiso   1.00
H1300  H     0.38555   0.44808   0.99853   0.00000  Uiso   1.00
H1301  H     0.39693   0.49369   0.53690   0.00000  Uiso   1.00
C1302  C     0.37080   0.43019   0.56620   0.00000  Uiso   1.00
H1303  H     0.37244   0.39156   0.56152   0.00000  Uiso   1.00
H1304  H     0.38176   0.43892   0.59947   0.00000  Uiso   1.00
C1305  C     0.65937   0.44564   0.56408   0.00000  Uiso   1.00
H1306  H     0.65723   0.48326   0.57318   0.00000  Uiso   1.00
H1307  H     0.64004   0.42504   0.58781   0.00000  Uiso   1.00
H1308  H     0.64747   0.44016   0.53056   0.00000  Uiso   1.00
Br1309 Br    0.53872   0.59297   0.61654   0.00000  Uiso   1.00
Br1310 Br    0.51056   0.39774   0.88248   0.00000  Uiso   1.00
Br1311 Br    0.46789   0.60055   0.87806   0.00000  Uiso   1.00
Br1312 Br    0.45873   0.40510   0.62257   0.00000  Uiso   1.00
Br1313 Br    0.38257   0.47309   0.84221   0.00000  Uiso   1.00
Br1314 Br    0.61799   0.52273   0.65803   0.00000  Uiso   1.00
Br1315 Br    0.61263   0.47442   0.84242   0.00000  Uiso   1.00
Br1316 Br    0.38738   0.52727   0.65901   0.00000  Uiso   1.00
C1317  C     0.75411   0.49985   0.75041   0.00000  Uiso   1.00
C1318  C     0.91258   0.50012   0.75026   0.00000  Uiso   1.00
C1319  C     0.83311   0.49993   0.66479   0.00000  Uiso   1.00
C1320  C     0.83112   0.50006   0.83529   0.00000  Uiso   1.00
C1321  C     0.80271   0.35773   0.73012   0.00000  Uiso   1.00
C1322  C     0.86363   0.64223   0.77047   0.00000  Uiso   1.00
C1323  C     0.86374   0.35853   0.77029   0.00000  Uiso   1.00
C1324  C     0.80292   0.64144   0.72973   0.00000  Uiso   1.00
C1325  C     0.68726   0.48808   0.78921   0.00000  Uiso   1.00
C1326  C     0.97960   0.51095   0.71169   0.00000  Uiso   1.00
C1327  C     0.97742   0.48862   0.78929   0.00000  Uiso   1.00
C1328  C     0.68936   0.51137   0.71180   0.00000  Uiso   1.00
C1329  C     0.84460   0.53654   0.54539   0.00000  Uiso   1.00
C1330  C     0.82824   0.45944   0.95423   0.00000  Uiso   1.00
C1331  C     0.80720   0.54134   0.95253   0.00000  Uiso   1.00
C1332  C     0.79887   0.46815   0.55065   0.00000  Uiso   1.00
C1333  C     0.84619   0.53803   0.59124   0.00000  Uiso   1.00
C1334  C     0.83099   0.45834   0.90833   0.00000  Uiso   1.00
C1335  C     0.81249   0.54153   0.90666   0.00000  Uiso   1.00
C1336  C     0.80852   0.46339   0.59484   0.00000  Uiso   1.00
C1337  C     0.82999   0.50003   0.61646   0.00000  Uiso   1.00
C1338  C     0.82519   0.50009   0.88385   0.00000  Uiso   1.00
C1339  C     0.81903   0.50280   0.52495   0.00000  Uiso   1.00
C1340  C     0.81653   0.50086   0.97650   0.00000  Uiso   1.00
C1341  C     0.95721   0.50021   0.75050   0.00000  Uiso   1.00
C1342  C     0.70956   0.49961   0.75047   0.00000  Uiso   1.00
Cu1343 Cu    0.83333   0.54689   0.75000   0.00000  Uiso   1.00
Cu1344 Cu    0.83333   0.45311   0.75000   0.00000  Uiso   1.00
H1345  H     0.77798   0.37604   0.71454   0.00000  Uiso   1.00
H1346  H     0.88776   0.62384   0.78709   0.00000  Uiso   1.00
H1347  H     0.88802   0.37751   0.78671   0.00000  Uiso   1.00
H1348  H     0.77866   0.62247   0.71328   0.00000  Uiso   1.00
N1349  N     0.83333   0.61736   0.75000   0.00000  Uiso   1.00
N1350  N     0.83333   0.38264   0.75000   0.00000  Uiso   1.00
O1351  O     0.77321   0.53958   0.75000   0.00000  Uiso   1.00
O1352  O     0.89345   0.46042   0.75000   0.00000  Uiso   1.00
O1353  O     0.89345   0.53958   0.75001   0.00000  Uiso   1.00
O1354  O     0.77321   0.46042   0.74999   0.00000  Uiso   1.00
O1355  O     0.83333   0.53959   0.68573   0.00000  Uiso   1.00
O1356  O     0.83334   0.46041   0.81427   0.00000  Uiso   1.00
O1357  O     0.83334   0.53959   0.81427   0.00000  Uiso   1.00
O1358  O     0.83333   0.46041   0.68573   0.00000  Uiso   1.00
O1359  O     0.86484   0.57162   0.52154   0.00000  Uiso   1.00
C1360  C     0.89947   0.55355   0.99789   0.00000  Uiso   1.00
H1361  H     0.90462   0.57608   0.96852   0.00000  Uiso   1.00
H1362  H     0.89497   0.51722   0.98534   0.00000  Uiso   1.00
C1363  C     0.93807   0.55521   0.52577   0.00000  Uiso   1.00
H1364  H     0.94171   0.59058   0.54075   0.00000  Uiso   1.00
H1365  H     0.93452   0.52933   0.55276   0.00000  Uiso   1.00
C1366  C     0.97657   0.54382   0.99790   0.00000  Uiso   1.00
H1367  H     0.97413   0.50793   0.98375   0.00000  Uiso   1.00
H1368  H     0.67090   0.54590   0.51860   0.00000  Uiso   1.00
H1369  H     0.98042   0.56929   0.97059   0.00000  Uiso   1.00
O1370  O     0.83583   0.41877   0.97740   0.00000  Uiso   1.00
C1371  C     0.87847   0.41525   0.98566   0.00000  Uiso   1.00
H1372  H     0.88520   0.43303   0.51735   0.00000  Uiso   1.00
H1373  H     0.89848   0.43129   0.95919   0.00000  Uiso   1.00
C1374  C     0.88928   0.36325   0.98893   0.00000  Uiso   1.00
H1375  H     0.87111   0.34683   0.51637   0.00000  Uiso   1.00
H1376  H     0.88099   0.34507   0.95795   0.00000  Uiso   1.00
C1377  C     0.93520   0.35647   0.99636   0.00000  Uiso   1.00
H1378  H     0.95418   0.37785   0.97289   0.00000  Uiso   1.00
H1379  H     0.94312   0.65246   0.99092   0.00000  Uiso   1.00
H1380  H     0.94270   0.36628   0.53059   0.00000  Uiso   1.00
O1381  O     0.79911   0.58319   0.97426   0.00000  Uiso   1.00
C1382  C     0.75612   0.58973   0.97935   0.00000  Uiso   1.00
H1383  H     0.74468   0.57088   0.50916   0.00000  Uiso   1.00
H1384  H     0.73870   0.57693   0.95035   0.00000  Uiso   1.00
C1385  C     0.74838   0.64233   0.98532   0.00000  Uiso   1.00
H1386  H     0.76265   0.65478   0.51619   0.00000  Uiso   1.00
H1387  H     0.76314   0.66179   0.95742   0.00000  Uiso   1.00
C1388  C     0.70243   0.65339   0.98704   0.00000  Uiso   1.00
H1389  H     0.68751   0.64074   0.95667   0.00000  Uiso   1.00
H1390  H     0.69823   0.35861   0.98924   0.00000  Uiso   1.00
H1391  H     0.68729   0.63676   0.51626   0.00000  Uiso   1.00
O1392  O     0.77204   0.43620   0.53173   0.00000  Uiso   1.00
C1393  C     0.73161   0.45492   0.53154   0.00000  Uiso   1.00
H1394  H     0.71888   0.44808   0.99853   0.00000  Uiso   1.00
H1395  H     0.73027   0.49369   0.53690   0.00000  Uiso   1.00
C1396  C     0.70413   0.43019   0.56620   0.00000  Uiso   1.00
H1397  H     0.70578   0.39156   0.56152   0.00000  Uiso   1.00
H1398  H     0.71510   0.43892   0.59947   0.00000  Uiso   1.00
C1399  C     0.99270   0.44564   0.56408   0.00000  Uiso   1.00
H1400  H     0.99056   0.48326   0.57318   0.00000  Uiso   1.00
H1401  H     0.97338   0.42504   0.58781   0.00000  Uiso   1.00
H1402  H     0.98080   0.44016   0.53056   0.00000  Uiso   1.00
Br1403 Br    0.87205   0.59297   0.61654   0.00000  Uiso   1.00
Br1404 Br    0.84390   0.39774   0.88248   0.00000  Uiso   1.00
Br1405 Br    0.80123   0.60055   0.87806   0.00000  Uiso   1.00
Br1406 Br    0.79206   0.40510   0.62257   0.00000  Uiso   1.00
Br1407 Br    0.71590   0.47309   0.84221   0.00000  Uiso   1.00
Br1408 Br    0.95132   0.52273   0.65803   0.00000  Uiso   1.00
Br1409 Br    0.94596   0.47442   0.84242   0.00000  Uiso   1.00
Br1410 Br    0.72072   0.52727   0.65901   0.00000  Uiso   1.00
C1411  C     0.08744   0.83318   0.75041   0.00000  Uiso   1.00
C1412  C     0.24592   0.83345   0.75026   0.00000  Uiso   1.00
C1413  C     0.16645   0.83326   0.66479   0.00000  Uiso   1.00
C1414  C     0.16445   0.83339   0.83529   0.00000  Uiso   1.00
C1415  C     0.13605   0.69106   0.73012   0.00000  Uiso   1.00
C1416  C     0.19697   0.97556   0.77047   0.00000  Uiso   1.00
C1417  C     0.19707   0.69186   0.77029   0.00000  Uiso   1.00
C1418  C     0.13625   0.97478   0.72973   0.00000  Uiso   1.00
C1419  C     0.02060   0.82142   0.78921   0.00000  Uiso   1.00
C1420  C     0.31293   0.84429   0.71169   0.00000  Uiso   1.00
C1421  C     0.31075   0.82196   0.78929   0.00000  Uiso   1.00
C1422  C     0.02270   0.84471   0.71180   0.00000  Uiso   1.00
C1423  C     0.17793   0.86988   0.54539   0.00000  Uiso   1.00
C1424  C     0.16157   0.79277   0.95423   0.00000  Uiso   1.00
C1425  C     0.14054   0.87467   0.95253   0.00000  Uiso   1.00
C1426  C     0.13221   0.80148   0.55065   0.00000  Uiso   1.00
C1427  C     0.17952   0.87136   0.59124   0.00000  Uiso   1.00
C1428  C     0.16432   0.79168   0.90833   0.00000  Uiso   1.00
C1429  C     0.14582   0.87487   0.90666   0.00000  Uiso   1.00
C1430  C     0.14185   0.79672   0.59484   0.00000  Uiso   1.00
C1431  C     0.16332   0.83336   0.61646   0.00000  Uiso   1.00
C1432  C     0.15852   0.83342   0.88385   0.00000  Uiso   1.00
C1433  C     0.15237   0.83613   0.52495   0.00000  Uiso   1.00
C1434  C     0.14986   0.83419   0.97650   0.00000  Uiso   1.00
C1435  C     0.29055   0.83354   0.75050   0.00000  Uiso   1.00
C1436  C     0.04289   0.83295   0.75047   0.00000  Uiso   1.00
Cu1437 Cu    0.16667   0.88022   0.75000   0.00000  Uiso   1.00
Cu1438 Cu    0.16667   0.78645   0.75000   0.00000  Uiso   1.00
H1439  H     0.11131   0.70938   0.71454   0.00000  Uiso   1.00
H1440  H     0.22110   0.95717   0.78709   0.00000  Uiso   1.00
H1441  H     0.22135   0.71084   0.78671   0.00000  Uiso   1.00
H1442  H     0.11199   0.95580   0.71328   0.00000  Uiso   1.00
N1443  N     0.16667   0.95069   0.75000   0.00000  Uiso   1.00
N1444  N     0.16667   0.71598   0.75000   0.00000  Uiso   1.00
O1445  O     0.10655   0.87291   0.75000   0.00000  Uiso   1.00
O1446  O     0.22679   0.79375   0.75000   0.00000  Uiso   1.00
O1447  O     0.22679   0.87291   0.75001   0.00000  Uiso   1.00
O1448  O     0.10655   0.79375   0.74999   0.00000  Uiso   1.00
O1449  O     0.16666   0.87293   0.68573   0.00000  Uiso   1.00
O1450  O     0.16667   0.79374   0.81427   0.00000  Uiso   1.00
O1451  O     0.16667   0.87293   0.81427   0.00000  Uiso   1.00
O1452  O     0.16666   0.79374   0.68573   0.00000  Uiso   1.00
O1453  O     0.19818   0.90496   0.52154   0.00000  Uiso   1.00
C1454  C     0.23281   0.88688   0.99789   0.00000  Uiso   1.00
H1455  H     0.23796   0.90941   0.96852   0.00000  Uiso   1.00
H1456  H     0.22830   0.85055   0.98534   0.00000  Uiso   1.00
C1457  C     0.27140   0.88855   0.52577   0.00000  Uiso   1.00
H1458  H     0.27505   0.92391   0.54075   0.00000  Uiso   1.00
H1459  H     0.26785   0.86266   0.55276   0.00000  Uiso   1.00
C1460  C     0.30991   0.87715   0.99790   0.00000  Uiso   1.00
H1461  H     0.30747   0.84126   0.98375   0.00000  Uiso   1.00
H1462  H     0.00423   0.87923   0.51860   0.00000  Uiso   1.00
H1463  H     0.31376   0.90262   0.97059   0.00000  Uiso   1.00
O1464  O     0.16916   0.75210   0.97740   0.00000  Uiso   1.00
C1465  C     0.21181   0.74858   0.98566   0.00000  Uiso   1.00
H1466  H     0.21853   0.76636   0.51735   0.00000  Uiso   1.00
H1467  H     0.23181   0.76462   0.95919   0.00000  Uiso   1.00
C1468  C     0.22261   0.69659   0.98893   0.00000  Uiso   1.00
H1469  H     0.20444   0.68016   0.51637   0.00000  Uiso   1.00
H1470  H     0.21432   0.67840   0.95795   0.00000  Uiso   1.00
C1471  C     0.26853   0.68980   0.99636   0.00000  Uiso   1.00
H1472  H     0.28751   0.71118   0.97289   0.00000  Uiso   1.00
H1473  H     0.27645   0.98579   0.99092   0.00000  Uiso   1.00
H1474  H     0.27604   0.69961   0.53059   0.00000  Uiso   1.00
O1475  O     0.13244   0.91653   0.97426   0.00000  Uiso   1.00
C1476  C     0.08946   0.92307   0.97935   0.00000  Uiso   1.00
H1477  H     0.07802   0.90421   0.50916   0.00000  Uiso   1.00
H1478  H     0.07204   0.91026   0.95035   0.00000  Uiso   1.00
C1479  C     0.08172   0.97567   0.98532   0.00000  Uiso   1.00
H1480  H     0.09598   0.98812   0.51619   0.00000  Uiso   1.00
H1481  H     0.09647   0.99513   0.95742   0.00000  Uiso   1.00
C1482  C     0.03576   0.98672   0.98704   0.00000  Uiso   1.00
H1483  H     0.02085   0.97408   0.95667   0.00000  Uiso   1.00
H1484  H     0.03157   0.69194   0.98924   0.00000  Uiso   1.00
H1485  H     0.02063   0.97010   0.51626   0.00000  Uiso   1.00
O1486  O     0.10537   0.76954   0.53173   0.00000  Uiso   1.00
C1487  C     0.06494   0.78826   0.53154   0.00000  Uiso   1.00
H1488  H     0.05221   0.78142   0.99853   0.00000  Uiso   1.00
H1489  H     0.06360   0.82703   0.53690   0.00000  Uiso   1.00
C1490  C     0.03747   0.76353   0.56620   0.00000  Uiso   1.00
H1491  H     0.03911   0.72489   0.56152   0.00000  Uiso   1.00
H1492  H     0.04843   0.77226   0.59947   0.00000  Uiso   1.00
C1493  C     0.32604   0.77898   0.56408   0.00000  Uiso   1.00
H1494  H     0.32389   0.81659   0.57318   0.00000  Uiso   1.00
H1495  H     0.30671   0.75837   0.58781   0.00000  Uiso   1.00
H1496  H     0.31414   0.77349   0.53056   0.00000  Uiso   1.00
Br1497 Br    0.20538   0.92630   0.61654   0.00000  Uiso   1.00
Br1498 Br    0.17723   0.73107   0.88248   0.00000  Uiso   1.00
Br1499 Br    0.13456   0.93389   0.87806   0.00000  Uiso   1.00
Br1500 Br    0.12540   0.73844   0.62257   0.00000  Uiso   1.00
Br1501 Br    0.04924   0.80642   0.84221   0.00000  Uiso   1.00
Br1502 Br    0.28465   0.85606   0.65803   0.00000  Uiso   1.00
Br1503 Br    0.27929   0.80776   0.84242   0.00000  Uiso   1.00
Br1504 Br    0.05405   0.86060   0.65901   0.00000  Uiso   1.00
C1505  C     0.42078   0.83318   0.75041   0.00000  Uiso   1.00
C1506  C     0.57925   0.83345   0.75026   0.00000  Uiso   1.00
C1507  C     0.49978   0.83326   0.66479   0.00000  Uiso   1.00
C1508  C     0.49779   0.83339   0.83529   0.00000  Uiso   1.00
C1509  C     0.46938   0.69106   0.73012   0.00000  Uiso   1.00
C1510  C     0.53030   0.97556   0.77047   0.00000  Uiso   1.00
C1511  C     0.53041   0.69186   0.77029   0.00000  Uiso   1.00
C1512  C     0.46959   0.97478   0.72973   0.00000  Uiso   1.00
C1513  C     0.35393   0.82142   0.78921   0.00000  Uiso   1.00
C1514  C     0.64627   0.84429   0.71169   0.00000  Uiso   1.00
C1515  C     0.64408   0.82196   0.78929   0.00000  Uiso   1.00
C1516  C     0.35603   0.84471   0.71180   0.00000  Uiso   1.00
C1517  C     0.51127   0.86988   0.54539   0.00000  Uiso   1.00
C1518  C     0.49491   0.79277   0.95423   0.00000  Uiso   1.00
C1519  C     0.47387   0.87467   0.95253   0.00000  Uiso   1.00
C1520  C     0.46554   0.80148   0.55065   0.00000  Uiso   1.00
C1521  C     0.51286   0.87136   0.59124   0.00000  Uiso   1.00
C1522  C     0.49766   0.79168   0.90833   0.00000  Uiso   1.00
C1523  C     0.47916   0.87487   0.90666   0.00000  Uiso   1.00
C1524  C     0.47518   0.79672   0.59484   0.00000  Uiso   1.00
C1525  C     0.49665   0.83336   0.61646   0.00000  Uiso   1.00
C1526  C     0.49185   0.83342   0.88385   0.00000  Uiso   1.00
C1527  C     0.48570   0.83613   0.52495   0.00000  Uiso   1.00
C1528  C     0.48319   0.83419   0.97650   0.00000  Uiso   1.00
C1529  C     0.62388   0.83354   0.75050   0.00000  Uiso   1.00
C1530  C     0.37622   0.83295   0.75047   0.00000  Uiso   1.00
Cu1531 Cu    0.50000   0.88022   0.75000   0.00000  Uiso   1.00
Cu1532 Cu    0.50000   0.78645   0.75000   0.00000  Uiso   1.00
H1533  H     0.44464   0.70938   0.71454   0.00000  Uiso   1.00
H1534  H     0.55443   0.95717   0.78709   0.00000  Uiso   1.00
H1535  H     0.55469   0.71084   0.78671   0.00000  Uiso   1.00
H1536  H     0.44533   0.95580   0.71328   0.00000  Uiso   1.00
N1537  N     0.50000   0.95069   0.75000   0.00000  Uiso   1.00
N1538  N     0.50000   0.71598   0.75000   0.00000  Uiso   1.00
O1539  O     0.43988   0.87291   0.75000   0.00000  Uiso   1.00
O1540  O     0.56012   0.79375   0.75000   0.00000  Uiso   1.00
O1541  O     0.56012   0.87291   0.75001   0.00000  Uiso   1.00
O1542  O     0.43988   0.79375   0.74999   0.00000  Uiso   1.00
O1543  O     0.50000   0.87293   0.68573   0.00000  Uiso   1.00
O1544  O     0.50000   0.79374   0.81427   0.00000  Uiso   1.00
O1545  O     0.50000   0.87293   0.81427   0.00000  Uiso   1.00
O1546  O     0.50000   0.79374   0.68573   0.00000  Uiso   1.00
O1547  O     0.53151   0.90496   0.52154   0.00000  Uiso   1.00
C1548  C     0.56614   0.88688   0.99789   0.00000  Uiso   1.00
H1549  H     0.57129   0.90941   0.96852   0.00000  Uiso   1.00
H1550  H     0.56163   0.85055   0.98534   0.00000  Uiso   1.00
C1551  C     0.60473   0.88855   0.52577   0.00000  Uiso   1.00
H1552  H     0.60838   0.92391   0.54075   0.00000  Uiso   1.00
H1553  H     0.60118   0.86266   0.55276   0.00000  Uiso   1.00
C1554  C     0.64324   0.87715   0.99790   0.00000  Uiso   1.00
H1555  H     0.64080   0.84126   0.98375   0.00000  Uiso   1.00
H1556  H     0.33757   0.87923   0.51860   0.00000  Uiso   1.00
H1557  H     0.64709   0.90262   0.97059   0.00000  Uiso   1.00
O1558  O     0.50249   0.75210   0.97740   0.00000  Uiso   1.00
C1559  C     0.54514   0.74858   0.98566   0.00000  Uiso   1.00
H1560  H     0.55187   0.76636   0.51735   0.00000  Uiso   1.00
H1561  H     0.56514   0.76462   0.95919   0.00000  Uiso   1.00
C1562  C     0.55595   0.69659   0.98893   0.00000  Uiso   1.00
H1563  H     0.53778   0.68016   0.51637   0.00000  Uiso   1.00
H1564  H     0.54765   0.67840   0.95795   0.00000  Uiso   1.00
C1565  C     0.60187   0.68980   0.99636   0.00000  Uiso   1.00
H1566  H     0.62084   0.71118   0.97289   0.00000  Uiso   1.00
H1567  H     0.60978   0.98579   0.99092   0.00000  Uiso   1.00
H1568  H     0.60937   0.69961   0.53059   0.00000  Uiso   1.00
O1569  O     0.46578   0.91653   0.97426   0.00000  Uiso   1.00
C1570  C     0.42279   0.92307   0.97935   0.00000  Uiso   1.00
H1571  H     0.41135   0.90421   0.50916   0.00000  Uiso   1.00
H1572  H     0.40537   0.91026   0.95035   0.00000  Uiso   1.00
C1573  C     0.41505   0.97567   0.98532   0.00000  Uiso   1.00
H1574  H     0.42931   0.98812   0.51619   0.00000  Uiso   1.00
H1575  H     0.42980   0.99513   0.95742   0.00000  Uiso   1.00
C1576  C     0.36909   0.98672   0.98704   0.00000  Uiso   1.00
H1577  H     0.35418   0.97408   0.95667   0.00000  Uiso   1.00
H1578  H     0.36490   0.69194   0.98924   0.00000  Uiso   1.00
H1579  H     0.35396   0.97010   0.51626   0.00000  Uiso   1.00
O1580  O     0.43871   0.76954   0.53173   0.00000  Uiso   1.00
C1581  C     0.39828   0.78826   0.53154   0.00000  Uiso   1.00
H1582  H     0.38555   0.78142   0.99853   0.00000  Uiso   1.00
H1583  H     0.39693   0.82703   0.53690   0.00000  Uiso   1.00
C1584  C     0.37080   0.76353   0.56620   0.00000  Uiso   1.00
H1585  H     0.37244   0.72489   0.56152   0.00000  Uiso   1.00
H1586  H     0.38176   0.77226   0.59947   0.00000  Uiso   1.00
C1587  C     0.65937   0.77898   0.56408   0.00000  Uiso   1.00
H1588  H     0.65723   0.81659   0.57318   0.00000  Uiso   1.00
H1589  H     0.64004   0.75837   0.58781   0.00000  Uiso   1.00
H1590  H     0.64747   0.77349   0.53056   0.00000  Uiso   1.00
Br1591 Br    0.53872   0.92630   0.61654   0.00000  Uiso   1.00
Br1592 Br    0.51056   0.73107   0.88248   0.00000  Uiso   1.00
Br1593 Br    0.46789   0.93389   0.87806   0.00000  Uiso   1.00
Br1594 Br    0.45873   0.73844   0.62257   0.00000  Uiso   1.00
Br1595 Br    0.38257   0.80642   0.84221   0.00000  Uiso   1.00
Br1596 Br    0.61799   0.85606   0.65803   0.00000  Uiso   1.00
Br1597 Br    0.61263   0.80776   0.84242   0.00000  Uiso   1.00
Br1598 Br    0.38738   0.86060   0.65901   0.00000  Uiso   1.00
C1599  C     0.75411   0.83318   0.75041   0.00000  Uiso   1.00
C1600  C     0.91258   0.83345   0.75026   0.00000  Uiso   1.00
C1601  C     0.83311   0.83326   0.66479   0.00000  Uiso   1.00
C1602  C     0.83112   0.83339   0.83529   0.00000  Uiso   1.00
C1603  C     0.80271   0.69106   0.73012   0.00000  Uiso   1.00
C1604  C     0.86363   0.97556   0.77047   0.00000  Uiso   1.00
C1605  C     0.86374   0.69186   0.77029   0.00000  Uiso   1.00
C1606  C     0.80292   0.97478   0.72973   0.00000  Uiso   1.00
C1607  C     0.68726   0.82142   0.78921   0.00000  Uiso   1.00
C1608  C     0.97960   0.84429   0.71169   0.00000  Uiso   1.00
C1609  C     0.97742   0.82196   0.78929   0.00000  Uiso   1.00
C1610  C     0.68936   0.84471   0.71180   0.00000  Uiso   1.00
C1611  C     0.84460   0.86988   0.54539   0.00000  Uiso   1.00
C1612  C     0.82824   0.79277   0.95423   0.00000  Uiso   1.00
C1613  C     0.80720   0.87467   0.95253   0.00000  Uiso   1.00
C1614  C     0.79887   0.80148   0.55065   0.00000  Uiso   1.00
C1615  C     0.84619   0.87136   0.59124   0.00000  Uiso   1.00
C1616  C     0.83099   0.79168   0.90833   0.00000  Uiso   1.00
C1617  C     0.81249   0.87487   0.90666   0.00000  Uiso   1.00
C1618  C     0.80852   0.79672   0.59484   0.00000  Uiso   1.00
C1619  C     0.82999   0.83336   0.61646   0.00000  Uiso   1.00
C1620  C     0.82519   0.83342   0.88385   0.00000  Uiso   1.00
C1621  C     0.81903   0.83613   0.52495   0.00000  Uiso   1.00
C1622  C     0.81653   0.83419   0.97650   0.00000  Uiso   1.00
C1623  C     0.95721   0.83354   0.75050   0.00000  Uiso   1.00
C1624  C     0.70956   0.83295   0.75047   0.00000  Uiso   1.00
Cu1625 Cu    0.83333   0.88022   0.75000   0.00000  Uiso   1.00
Cu1626 Cu    0.83333   0.78645   0.75000   0.00000  Uiso   1.00
H1627  H     0.77798   0.70938   0.71454   0.00000  Uiso   1.00
H1628  H     0.88776   0.95717   0.78709   0.00000  Uiso   1.00
H1629  H     0.88802   0.71084   0.78671   0.00000  Uiso   1.00
H1630  H     0.77866   0.95580   0.71328   0.00000  Uiso   1.00
N1631  N     0.83333   0.95069   0.75000   0.00000  Uiso   1.00
N1632  N     0.83333   0.71598   0.75000   0.00000  Uiso   1.00
O1633  O     0.77321   0.87291   0.75000   0.00000  Uiso   1.00
O1634  O     0.89345   0.79375   0.75000   0.00000  Uiso   1.00
O1635  O     0.89345   0.87291   0.75001   0.00000  Uiso   1.00
O1636  O     0.77321   0.79375   0.74999   0.00000  Uiso   1.00
O1637  O     0.83333   0.87293   0.68573   0.00000  Uiso   1.00
O1638  O     0.83334   0.79374   0.81427   0.00000  Uiso   1.00
O1639  O     0.83334   0.87293   0.81427   0.00000  Uiso   1.00
O1640  O     0.83333   0.79374   0.68573   0.00000  Uiso   1.00
O1641  O     0.86484   0.90496   0.52154   0.00000  Uiso   1.00
C1642  C     0.89947   0.88688   0.99789   0.00000  Uiso   1.00
H1643  H     0.90462   0.90941   0.96852   0.00000  Uiso   1.00
H1644  H     0.89497   0.85055   0.98534   0.00000  Uiso   1.00
C1645  C     0.93807   0.88855   0.52577   0.00000  Uiso   1.00
H1646  H     0.94171   0.92391   0.54075   0.00000  Uiso   1.00
H1647  H     0.93452   0.86266   0.55276   0.00000  Uiso   1.00
C1648  C     0.97657   0.87715   0.99790   0.00000  Uiso   1.00
H1649  H     0.97413   0.84126   0.98375   0.00000  Uiso   1.00
H1650  H     0.67090   0.87923   0.51860   0.00000  Uiso   1.00
H1651  H     0.98042   0.90262   0.97059   0.00000  Uiso   1.00
O1652  O     0.83583   0.75210   0.97740   0.00000  Uiso   1.00
C1653  C     0.87847   0.74858   0.98566   0.00000  Uiso   1.00
H1654  H     0.88520   0.76636   0.51735   0.00000  Uiso   1.00
H1655  H     0.89848   0.76462   0.95919   0.00000  Uiso   1.00
C1656  C     0.88928   0.69659   0.98893   0.00000  Uiso   1.00
H1657  H     0.87111   0.68016   0.51637   0.00000  Uiso   1.00
H1658  H     0.88099   0.67840   0.95795   0.00000  Uiso   1.00
C1659  C     0.93520   0.68980   0.99636   0.00000  Uiso   1.00
H1660  H     0.95418   0.71118   0.97289   0.00000  Uiso   1.00
H1661  H     0.94312   0.98579   0.99092   0.00000  Uiso   1.00
H1662  H     0.94270   0.69961   0.53059   0.00000  Uiso   1.00
O1663  O     0.79911   0.91653   0.97426   0.00000  Uiso   1.00
C1664  C     0.75612   0.92307   0.97935   0.00000  Uiso   1.00
H1665  H     0.74468   0.90421   0.50916   0.00000  Uiso   1.00
H1666  H     0.73870   0.91026   0.95035   0.00000  Uiso   1.00
C1667  C     0.74838   0.97567   0.98532   0.00000  Uiso   1.00
H1668  H     0.76265   0.98812   0.51619   0.00000  Uiso   1.00
H1669  H     0.76314   0.99513   0.95742   0.00000  Uiso   1.00
C1670  C     0.70243   0.98672   0.98704   0.00000  Uiso   1.00
H1671  H     0.68751   0.97408   0.95667   0.00000  Uiso   1.00
H1672  H     0.69823   0.69194   0.98924   0.00000  Uiso   1.00
H1673  H     0.68729   0.97010   0.51626   0.00000  Uiso   1.00
O1674  O     0.77204   0.76954   0.53173   0.00000  Uiso   1.00
C1675  C     0.73161   0.78826   0.53154   0.00000  Uiso   1.00
H1676  H     0.71888   0.78142   0.99853   0.00000  Uiso   1.00
H1677  H     0.73027   0.82703   0.53690   0.00000  Uiso   1.00
C1678  C     0.70413   0.76353   0.56620   0.00000  Uiso   1.00
H1679  H     0.70578   0.72489   0.56152   0.00000  Uiso   1.00
H1680  H     0.71510   0.77226   0.59947   0.00000  Uiso   1.00
C1681  C     0.99270   0.77898   0.56408   0.00000  Uiso   1.00
H1682  H     0.99056   0.81659   0.57318   0.00000  Uiso   1.00
H1683  H     0.97338   0.75837   0.58781   0.00000  Uiso   1.00
H1684  H     0.98080   0.77349   0.53056   0.00000  Uiso   1.00
Br1685 Br    0.87205   0.92630   0.61654   0.00000  Uiso   1.00
Br1686 Br    0.84390   0.73107   0.88248   0.00000  Uiso   1.00
Br1687 Br    0.80123   0.93389   0.87806   0.00000  Uiso   1.00
Br1688 Br    0.79206   0.73844   0.62257   0.00000  Uiso   1.00
Br1689 Br    0.71590   0.80642   0.84221   0.00000  Uiso   1.00
Br1690 Br    0.95132   0.85606   0.65803   0.00000  Uiso   1.00
Br1691 Br    0.94596   0.80776   0.84242   0.00000  Uiso   1.00
Br1692 Br    0.72072   0.86060   0.65901   0.00000  Uiso   1.00
loop_
_geom_bond_atom_site_label_1
_geom_bond_atom_site_label_2
_geom_bond_distance
_geom_bond_site_symmetry_2
_ccdc_geom_bond_type
C1     O38     1.286   .     A
C1     C26     1.442   .     S
C1     O35     1.285   .     A
C2     O36     1.285   .     A
C2     O37     1.288   .     A
C2     C25     1.445   .     S
C3     O42     1.296   .     A
C3     C21     1.476   .     S
C3     O39     1.294   .     A
C4     O41     1.298   .     A
C4     O40     1.297   .     A
C4     C22     1.485   .     S
C5     H29     1.080   .     S
C5     N34     1.366   .     A
C5     C572    1.413   1_545 S
C6     H30     1.081   .     S
C6     N33     1.366   .     A
C6     C289    1.414   .     S
C7     H31     1.081   .     S
C7     N34     1.367   .     A
C7     C570    1.414   1_545 S
C8     H32     1.081   .     S
C8     N33     1.366   .     A
C8     C287    1.413   .     S
C9     Br91    1.932   .     S
C9     C26     1.405   .     A
C9     C199    1.398   1_455 S
C10    Br92    1.924   .     S
C10    C25     1.404   .     A
C10    C106    1.395   .     S
C11    Br93    1.932   .     S
C11    C25     1.405   .     A
C11    C103    1.398   .     S
C12    Br94    1.932   .     S
C12    C26     1.404   .     A
C12    C198    1.395   1_455 S
C13    C23     1.415   .     A
C13    O43     1.388   .     S
C13    C17     1.398   .     A
C14    C18     1.398   .     A
C14    C24     1.408   .     A
C14    O54     1.386   .     S
C15    C19     1.402   .     A
C15    O65     1.384   .     S
C15    C24     1.406   .     A
C16    O76     1.386   .     S
C16    C20     1.395   .     A
C16    C23     1.408   .     A
C17    C21     1.419   .     A
C17    Br87    1.934   .     S
C18    C22     1.422   .     A
C18    Br88    1.938   .     S
C19    C22     1.425   .     A
C19    Br89    1.938   .     S
C20    Br90    1.931   .     S
C20    C21     1.417   .     A
C23    C870    1.479   1_554 S
C24    C869    1.479   .     S
Cu27   N33     2.007   .     S
Cu27   O39     1.966   .     S
Cu27   O35     1.956   .     S
Cu27   O41     1.968   .     S
Cu27   O37     1.959   .     S
Cu27   Cu28    2.671   .     S
Cu28   O40     1.966   .     S
Cu28   N34     2.007   .     S
Cu28   O38     1.959   .     S
Cu28   O42     1.968   .     S
Cu28   O36     1.956   .     S
O43    C890    1.416   1_554 S
C44    H46     1.111   .     S
C44    H45     1.111   .     S
C44    O889    1.416   .     S
C44    C893    1.528   .     S
C47    H49     1.109   .     S
C47    H48     1.110   .     S
C47    C890    1.528   1_554 S
C47    C896    1.526   1_554 S
C50    H53     1.110   .     S
C50    H51     1.110   .     S
C50    C893    1.526   .     S
C50    H992    1.109   .     S
H52    C1084   1.109   1_454 S
O54    C55     1.414   .     S
C55    H57     1.118   .     S
C55    C58     1.529   .     S
C55    H902    1.112   .     S
H56    C901    1.112   1_554 S
C58    H60     1.111   .     S
C58    C61     1.523   .     S
C58    H905    1.112   .     S
H59    C904    1.112   1_554 S
C61    H62     1.111   .     S
C61    H627    1.107   1_545 S
C61    H910    1.109   .     S
H63    C343    1.107   .     S
H64    C907    1.109   1_554 S
O65    C66     1.410   .     S
C66    H68     1.117   .     S
C66    C69     1.530   .     S
C66    H913    1.111   .     S
H67    C912    1.111   1_554 S
C69    H71     1.112   .     S
C69    C72     1.523   .     S
C69    H916    1.112   .     S
H70    C915    1.112   1_554 S
C72    H73     1.110   .     S
C72    H356    1.109   .     S
C72    H921    1.110   .     S
H74    C636    1.109   1_545 S
H75    C918    1.110   1_554 S
O76    C77     1.418   .     S
C77    H79     1.116   .     S
C77    C80     1.533   .     S
C77    H924    1.111   1_554 S
H78    C923    1.111   .     S
C80    H81     1.110   .     S
C80    H82     1.108   .     S
C80    C271    1.521   1_455 S
C83    H84     1.107   .     S
C83    H85     1.110   .     S
C83    H86     1.109   .     S
C83    C174    1.521   .     S
C95    O132    1.286   .     A
C95    C120    1.442   .     S
C95    O129    1.285   .     A
C96    O130    1.285   .     A
C96    O131    1.288   .     A
C96    C119    1.445   .     S
C97    O136    1.296   .     A
C97    C115    1.476   .     S
C97    O133    1.294   .     A
C98    O135    1.298   .     A
C98    O134    1.297   .     A
C98    C116    1.485   .     S
C99    H123    1.080   .     S
C99    N128    1.366   .     A
C99    C666    1.413   1_545 S
C100   H124    1.081   .     S
C100   N127    1.366   .     A
C100   C383    1.414   .     S
C101   H125    1.081   .     S
C101   N128    1.367   .     A
C101   C664    1.414   1_545 S
C102   H126    1.081   .     S
C102   N127    1.366   .     A
C102   C381    1.413   .     S
C103   Br185   1.932   .     S
C103   C120    1.405   .     A
C104   Br186   1.924   .     S
C104   C119    1.404   .     A
C104   C200    1.395   .     S
C105   Br187   1.932   .     S
C105   C119    1.405   .     A
C105   C197    1.398   .     S
C106   Br188   1.932   .     S
C106   C120    1.404   .     A
C107   C117    1.415   .     A
C107   O137    1.388   .     S
C107   C111    1.398   .     A
C108   C112    1.398   .     A
C108   C118    1.408   .     A
C108   O148    1.386   .     S
C109   C113    1.402   .     A
C109   O159    1.384   .     S
C109   C118    1.406   .     A
C110   O170    1.386   .     S
C110   C114    1.395   .     A
C110   C117    1.408   .     A
C111   C115    1.419   .     A
C111   Br181   1.934   .     S
C112   C116    1.422   .     A
C112   Br182   1.938   .     S
C113   C116    1.425   .     A
C113   Br183   1.938   .     S
C114   Br184   1.931   .     S
C114   C115    1.417   .     A
C117   C964    1.479   1_554 S
C118   C963    1.479   .     S
Cu121  N127    2.007   .     S
Cu121  O133    1.966   .     S
Cu121  O129    1.956   .     S
Cu121  O135    1.968   .     S
Cu121  O131    1.959   .     S
Cu121  Cu122   2.671   .     S
Cu122  O134    1.966   .     S
Cu122  N128    2.007   .     S
Cu122  O132    1.959   .     S
Cu122  O136    1.968   .     S
Cu122  O130    1.956   .     S
O137   C984    1.416   1_554 S
C138   H140    1.111   .     S
C138   H139    1.111   .     S
C138   O983    1.416   .     S
C138   C987    1.528   .     S
C141   H143    1.109   .     S
C141   H142    1.110   .     S
C141   C984    1.528   1_554 S
C141   C990    1.526   1_554 S
C144   H147    1.110   .     S
C144   H145    1.110   .     S
C144   C987    1.526   .     S
C144   H1086   1.109   .     S
H146   C896    1.109   1_554 S
O148   C149    1.414   .     S
C149   H151    1.118   .     S
C149   C152    1.529   .     S
C149   H996    1.112   .     S
H150   C995    1.112   1_554 S
C152   H154    1.111   .     S
C152   C155    1.523   .     S
C152   H999    1.112   .     S
H153   C998    1.112   1_554 S
C155   H156    1.111   .     S
C155   H721    1.107   1_545 S
C155   H1004   1.109   .     S
H157   C437    1.107   .     S
H158   C1001   1.109   1_554 S
O159   C160    1.410   .     S
C160   H162    1.117   .     S
C160   C163    1.530   .     S
C160   H1007   1.111   .     S
H161   C1006   1.111   1_554 S
C163   H165    1.112   .     S
C163   C166    1.523   .     S
C163   H1010   1.112   .     S
H164   C1009   1.112   1_554 S
C166   H167    1.110   .     S
C166   H450    1.109   .     S
C166   H1015   1.110   .     S
H168   C730    1.109   1_545 S
H169   C1012   1.110   1_554 S
O170   C171    1.418   .     S
C171   H173    1.116   .     S
C171   C174    1.533   .     S
C171   H1018   1.111   1_554 S
H172   C1017   1.111   .     S
C174   H175    1.110   .     S
C174   H176    1.108   .     S
C177   H178    1.107   .     S
C177   H179    1.110   .     S
C177   H180    1.109   .     S
C177   C268    1.521   .     S
C189   O226    1.286   .     A
C189   C214    1.442   .     S
C189   O223    1.285   .     A
C190   O224    1.285   .     A
C190   O225    1.288   .     A
C190   C213    1.445   .     S
C191   O230    1.296   .     A
C191   C209    1.476   .     S
C191   O227    1.294   .     A
C192   O229    1.298   .     A
C192   O228    1.297   .     A
C192   C210    1.485   .     S
C193   H217    1.080   .     S
C193   N222    1.366   .     A
C193   C760    1.413   1_545 S
C194   H218    1.081   .     S
C194   N221    1.366   .     A
C194   C477    1.414   .     S
C195   H219    1.081   .     S
C195   N222    1.367   .     A
C195   C758    1.414   1_545 S
C196   H220    1.081   .     S
C196   N221    1.366   .     A
C196   C475    1.413   .     S
C197   Br279   1.932   .     S
C197   C214    1.405   .     A
C198   Br280   1.924   .     S
C198   C213    1.404   .     A
C198   C12     1.395   1_655 S
C199   Br281   1.932   .     S
C199   C213    1.405   .     A
C199   C9      1.398   1_655 S
C200   Br282   1.932   .     S
C200   C214    1.404   .     A
C201   C211    1.415   .     A
C201   O231    1.388   .     S
C201   C205    1.398   .     A
C202   C206    1.398   .     A
C202   C212    1.408   .     A
C202   O242    1.386   .     S
C203   C207    1.402   .     A
C203   O253    1.384   .     S
C203   C212    1.406   .     A
C204   O264    1.386   .     S
C204   C208    1.395   .     A
C204   C211    1.408   .     A
C205   C209    1.419   .     A
C205   Br275   1.934   .     S
C206   C210    1.422   .     A
C206   Br276   1.938   .     S
C207   C210    1.425   .     A
C207   Br277   1.938   .     S
C208   Br278   1.931   .     S
C208   C209    1.417   .     A
C211   C1058   1.479   1_554 S
C212   C1057   1.479   .     S
Cu215  N221    2.007   .     S
Cu215  O227    1.966   .     S
Cu215  O223    1.956   .     S
Cu215  O229    1.968   .     S
Cu215  O225    1.959   .     S
Cu215  Cu216   2.671   .     S
Cu216  O228    1.966   .     S
Cu216  N222    2.007   .     S
Cu216  O226    1.959   .     S
Cu216  O230    1.968   .     S
Cu216  O224    1.956   .     S
O231   C1078   1.416   1_554 S
C232   H234    1.111   .     S
C232   H233    1.111   .     S
C232   O1077   1.416   .     S
C232   C1081   1.528   .     S
C235   H237    1.109   .     S
C235   H236    1.110   .     S
C235   C1078   1.528   1_554 S
C235   C1084   1.526   1_554 S
C238   H241    1.110   .     S
C238   H239    1.110   .     S
C238   C1081   1.526   .     S
C238   H898    1.109   1_655 S
H240   C990    1.109   1_554 S
O242   C243    1.414   .     S
C243   H245    1.118   .     S
C243   C246    1.529   .     S
C243   H1090   1.112   .     S
H244   C1089   1.112   1_554 S
C246   H248    1.111   .     S
C246   C249    1.523   .     S
C246   H1093   1.112   .     S
H247   C1092   1.112   1_554 S
C249   H250    1.111   .     S
C249   H815    1.107   1_545 S
C249   H1098   1.109   .     S
H251   C531    1.107   .     S
H252   C1095   1.109   1_554 S
O253   C254    1.410   .     S
C254   H256    1.117   .     S
C254   C257    1.530   .     S
C254   H1101   1.111   .     S
H255   C1100   1.111   1_554 S
C257   H259    1.112   .     S
C257   C260    1.523   .     S
C257   H1104   1.112   .     S
H258   C1103   1.112   1_554 S
C260   H261    1.110   .     S
C260   H544    1.109   .     S
C260   H1109   1.110   .     S
H262   C824    1.109   1_545 S
H263   C1106   1.110   1_554 S
O264   C265    1.418   .     S
C265   H267    1.116   .     S
C265   C268    1.533   .     S
C265   H1112   1.111   1_554 S
H266   C1111   1.111   .     S
C268   H269    1.110   .     S
C268   H270    1.108   .     S
C271   H272    1.107   .     S
C271   H273    1.110   .     S
C271   H274    1.109   .     S
C271   C80     1.521   1_655 S
C283   O320    1.286   .     A
C283   C308    1.442   .     S
C283   O317    1.285   .     A
C284   O318    1.285   .     A
C284   O319    1.288   .     A
C284   C307    1.445   .     S
C285   O324    1.296   .     A
C285   C303    1.476   .     S
C285   O321    1.294   .     A
C286   O323    1.298   .     A
C286   O322    1.297   .     A
C286   C304    1.485   .     S
C287   H311    1.080   .     S
C287   N316    1.366   .     A
C288   H312    1.081   .     S
C288   N315    1.366   .     A
C288   C571    1.414   .     S
C289   H313    1.081   .     S
C289   N316    1.367   .     A
C290   H314    1.081   .     S
C290   N315    1.366   .     A
C290   C569    1.413   .     S
C291   Br373   1.932   .     S
C291   C308    1.405   .     A
C291   C481    1.398   1_455 S
C292   Br374   1.924   .     S
C292   C307    1.404   .     A
C292   C388    1.395   .     S
C293   Br375   1.932   .     S
C293   C307    1.405   .     A
C293   C385    1.398   .     S
C294   Br376   1.932   .     S
C294   C308    1.404   .     A
C294   C480    1.395   1_455 S
C295   C305    1.415   .     A
C295   O325    1.388   .     S
C295   C299    1.398   .     A
C296   C300    1.398   .     A
C296   C306    1.408   .     A
C296   O336    1.386   .     S
C297   C301    1.402   .     A
C297   O347    1.384   .     S
C297   C306    1.406   .     A
C298   O358    1.386   .     S
C298   C302    1.395   .     A
C298   C305    1.408   .     A
C299   C303    1.419   .     A
C299   Br369   1.934   .     S
C300   C304    1.422   .     A
C300   Br370   1.938   .     S
C301   C304    1.425   .     A
C301   Br371   1.938   .     S
C302   Br372   1.931   .     S
C302   C303    1.417   .     A
C305   C1152   1.479   1_554 S
C306   C1151   1.479   .     S
Cu309  N315    2.007   .     S
Cu309  O321    1.966   .     S
Cu309  O317    1.956   .     S
Cu309  O323    1.968   .     S
Cu309  O319    1.959   .     S
Cu309  Cu310   2.671   .     S
Cu310  O322    1.966   .     S
Cu310  N316    2.007   .     S
Cu310  O320    1.959   .     S
Cu310  O324    1.968   .     S
Cu310  O318    1.956   .     S
O325   C1172   1.416   1_554 S
C326   H328    1.111   .     S
C326   H327    1.111   .     S
C326   O1171   1.416   .     S
C326   C1175   1.528   .     S
C329   H331    1.109   .     S
C329   H330    1.110   .     S
C329   C1172   1.528   1_554 S
C329   C1178   1.526   1_554 S
C332   H335    1.110   .     S
C332   H333    1.110   .     S
C332   C1175   1.526   .     S
C332   H1274   1.109   .     S
H334   C1366   1.109   1_454 S
O336   C337    1.414   .     S
C337   H339    1.118   .     S
C337   C340    1.529   .     S
C337   H1184   1.112   .     S
H338   C1183   1.112   1_554 S
C340   H342    1.111   .     S
C340   C343    1.523   .     S
C340   H1187   1.112   .     S
H341   C1186   1.112   1_554 S
C343   H344    1.111   .     S
C343   H1192   1.109   .     S
H345   C625    1.107   .     S
H346   C1189   1.109   1_554 S
O347   C348    1.410   .     S
C348   H350    1.117   .     S
C348   C351    1.530   .     S
C348   H1195   1.111   .     S
H349   C1194   1.111   1_554 S
C351   H353    1.112   .     S
C351   C354    1.523   .     S
C351   H1198   1.112   .     S
H352   C1197   1.112   1_554 S
C354   H355    1.110   .     S
C354   H638    1.109   .     S
C354   H1203   1.110   .     S
H357   C1200   1.110   1_554 S
O358   C359    1.418   .     S
C359   H361    1.116   .     S
C359   C362    1.533   .     S
C359   H1206   1.111   1_554 S
H360   C1205   1.111   .     S
C362   H363    1.110   .     S
C362   H364    1.108   .     S
C362   C553    1.521   1_455 S
C365   H366    1.107   .     S
C365   H367    1.110   .     S
C365   H368    1.109   .     S
C365   C456    1.521   .     S
C377   O414    1.286   .     A
C377   C402    1.442   .     S
C377   O411    1.285   .     A
C378   O412    1.285   .     A
C378   O413    1.288   .     A
C378   C401    1.445   .     S
C379   O418    1.296   .     A
C379   C397    1.476   .     S
C379   O415    1.294   .     A
C380   O417    1.298   .     A
C380   O416    1.297   .     A
C380   C398    1.485   .     S
C381   H405    1.080   .     S
C381   N410    1.366   .     A
C382   H406    1.081   .     S
C382   N409    1.366   .     A
C382   C665    1.414   .     S
C383   H407    1.081   .     S
C383   N410    1.367   .     A
C384   H408    1.081   .     S
C384   N409    1.366   .     A
C384   C663    1.413   .     S
C385   Br467   1.932   .     S
C385   C402    1.405   .     A
C386   Br468   1.924   .     S
C386   C401    1.404   .     A
C386   C482    1.395   .     S
C387   Br469   1.932   .     S
C387   C401    1.405   .     A
C387   C479    1.398   .     S
C388   Br470   1.932   .     S
C388   C402    1.404   .     A
C389   C399    1.415   .     A
C389   O419    1.388   .     S
C389   C393    1.398   .     A
C390   C394    1.398   .     A
C390   C400    1.408   .     A
C390   O430    1.386   .     S
C391   C395    1.402   .     A
C391   O441    1.384   .     S
C391   C400    1.406   .     A
C392   O452    1.386   .     S
C392   C396    1.395   .     A
C392   C399    1.408   .     A
C393   C397    1.419   .     A
C393   Br463   1.934   .     S
C394   C398    1.422   .     A
C394   Br464   1.938   .     S
C395   C398    1.425   .     A
C395   Br465   1.938   .     S
C396   Br466   1.931   .     S
C396   C397    1.417   .     A
C399   C1246   1.479   1_554 S
C400   C1245   1.479   .     S
Cu403  N409    2.007   .     S
Cu403  O415    1.966   .     S
Cu403  O411    1.956   .     S
Cu403  O417    1.968   .     S
Cu403  O413    1.959   .     S
Cu403  Cu404   2.671   .     S
Cu404  O416    1.966   .     S
Cu404  N410    2.007   .     S
Cu404  O414    1.959   .     S
Cu404  O418    1.968   .     S
Cu404  O412    1.956   .     S
O419   C1266   1.416   1_554 S
C420   H422    1.111   .     S
C420   H421    1.111   .     S
C420   O1265   1.416   .     S
C420   C1269   1.528   .     S
C423   H425    1.109   .     S
C423   H424    1.110   .     S
C423   C1266   1.528   1_554 S
C423   C1272   1.526   1_554 S
C426   H429    1.110   .     S
C426   H427    1.110   .     S
C426   C1269   1.526   .     S
C426   H1368   1.109   .     S
H428   C1178   1.109   1_554 S
O430   C431    1.414   .     S
C431   H433    1.118   .     S
C431   C434    1.529   .     S
C431   H1278   1.112   .     S
H432   C1277   1.112   1_554 S
C434   H436    1.111   .     S
C434   C437    1.523   .     S
C434   H1281   1.112   .     S
H435   C1280   1.112   1_554 S
C437   H438    1.111   .     S
C437   H1286   1.109   .     S
H439   C719    1.107   .     S
H440   C1283   1.109   1_554 S
O441   C442    1.410   .     S
C442   H444    1.117   .     S
C442   C445    1.530   .     S
C442   H1289   1.111   .     S
H443   C1288   1.111   1_554 S
C445   H447    1.112   .     S
C445   C448    1.523   .     S
C445   H1292   1.112   .     S
H446   C1291   1.112   1_554 S
C448   H449    1.110   .     S
C448   H732    1.109   .     S
C448   H1297   1.110   .     S
H451   C1294   1.110   1_554 S
O452   C453    1.418   .     S
C453   H455    1.116   .     S
C453   C456    1.533   .     S
C453   H1300   1.111   1_554 S
H454   C1299   1.111   .     S
C456   H457    1.110   .     S
C456   H458    1.108   .     S
C459   H460    1.107   .     S
C459   H461    1.110   .     S
C459   H462    1.109   .     S
C459   C550    1.521   .     S
C471   O508    1.286   .     A
C471   C496    1.442   .     S
C471   O505    1.285   .     A
C472   O506    1.285   .     A
C472   O507    1.288   .     A
C472   C495    1.445   .     S
C473   O512    1.296   .     A
C473   C491    1.476   .     S
C473   O509    1.294   .     A
C474   O511    1.298   .     A
C474   O510    1.297   .     A
C474   C492    1.485   .     S
C475   H499    1.080   .     S
C475   N504    1.366   .     A
C476   H500    1.081   .     S
C476   N503    1.366   .     A
C476   C759    1.414   .     S
C477   H501    1.081   .     S
C477   N504    1.367   .     A
C478   H502    1.081   .     S
C478   N503    1.366   .     A
C478   C757    1.413   .     S
C479   Br561   1.932   .     S
C479   C496    1.405   .     A
C480   Br562   1.924   .     S
C480   C495    1.404   .     A
C480   C294    1.395   1_655 S
C481   Br563   1.932   .     S
C481   C495    1.405   .     A
C481   C291    1.398   1_655 S
C482   Br564   1.932   .     S
C482   C496    1.404   .     A
C483   C493    1.415   .     A
C483   O513    1.388   .     S
C483   C487    1.398   .     A
C484   C488    1.398   .     A
C484   C494    1.408   .     A
C484   O524    1.386   .     S
C485   C489    1.402   .     A
C485   O535    1.384   .     S
C485   C494    1.406   .     A
C486   O546    1.386   .     S
C486   C490    1.395   .     A
C486   C493    1.408   .     A
C487   C491    1.419   .     A
C487   Br557   1.934   .     S
C488   C492    1.422   .     A
C488   Br558   1.938   .     S
C489   C492    1.425   .     A
C489   Br559   1.938   .     S
C490   Br560   1.931   .     S
C490   C491    1.417   .     A
C493   C1340   1.479   1_554 S
C494   C1339   1.479   .     S
Cu497  N503    2.007   .     S
Cu497  O509    1.966   .     S
Cu497  O505    1.956   .     S
Cu497  O511    1.968   .     S
Cu497  O507    1.959   .     S
Cu497  Cu498   2.671   .     S
Cu498  O510    1.966   .     S
Cu498  N504    2.007   .     S
Cu498  O508    1.959   .     S
Cu498  O512    1.968   .     S
Cu498  O506    1.956   .     S
O513   C1360   1.416   1_554 S
C514   H516    1.111   .     S
C514   H515    1.111   .     S
C514   O1359   1.416   .     S
C514   C1363   1.528   .     S
C517   H519    1.109   .     S
C517   H518    1.110   .     S
C517   C1360   1.528   1_554 S
C517   C1366   1.526   1_554 S
C520   H523    1.110   .     S
C520   H521    1.110   .     S
C520   C1363   1.526   .     S
C520   H1180   1.109   1_655 S
H522   C1272   1.109   1_554 S
O524   C525    1.414   .     S
C525   H527    1.118   .     S
C525   C528    1.529   .     S
C525   H1372   1.112   .     S
H526   C1371   1.112   1_554 S
C528   H530    1.111   .     S
C528   C531    1.523   .     S
C528   H1375   1.112   .     S
H529   C1374   1.112   1_554 S
C531   H532    1.111   .     S
C531   H1380   1.109   .     S
H533   C813    1.107   .     S
H534   C1377   1.109   1_554 S
O535   C536    1.410   .     S
C536   H538    1.117   .     S
C536   C539    1.530   .     S
C536   H1383   1.111   .     S
H537   C1382   1.111   1_554 S
C539   H541    1.112   .     S
C539   C542    1.523   .     S
C539   H1386   1.112   .     S
H540   C1385   1.112   1_554 S
C542   H543    1.110   .     S
C542   H826    1.109   .     S
C542   H1391   1.110   .     S
H545   C1388   1.110   1_554 S
O546   C547    1.418   .     S
C547   H549    1.116   .     S
C547   C550    1.533   .     S
C547   H1394   1.111   1_554 S
H548   C1393   1.111   .     S
C550   H551    1.110   .     S
C550   H552    1.108   .     S
C553   H554    1.107   .     S
C553   H555    1.110   .     S
C553   H556    1.109   .     S
C553   C362    1.521   1_655 S
C565   O602    1.286   .     A
C565   C590    1.442   .     S
C565   O599    1.285   .     A
C566   O600    1.285   .     A
C566   O601    1.288   .     A
C566   C589    1.445   .     S
C567   O606    1.296   .     A
C567   C585    1.476   .     S
C567   O603    1.294   .     A
C568   O605    1.298   .     A
C568   O604    1.297   .     A
C568   C586    1.485   .     S
C569   H593    1.080   .     S
C569   N598    1.366   .     A
C570   H594    1.081   .     S
C570   N597    1.366   .     A
C570   C7      1.414   1_565 S
C571   H595    1.081   .     S
C571   N598    1.367   .     A
C572   H596    1.081   .     S
C572   N597    1.366   .     A
C572   C5      1.413   1_565 S
C573   Br655   1.932   .     S
C573   C590    1.405   .     A
C573   C763    1.398   1_455 S
C574   Br656   1.924   .     S
C574   C589    1.404   .     A
C574   C670    1.395   .     S
C575   Br657   1.932   .     S
C575   C589    1.405   .     A
C575   C667    1.398   .     S
C576   Br658   1.932   .     S
C576   C590    1.404   .     A
C576   C762    1.395   1_455 S
C577   C587    1.415   .     A
C577   O607    1.388   .     S
C577   C581    1.398   .     A
C578   C582    1.398   .     A
C578   C588    1.408   .     A
C578   O618    1.386   .     S
C579   C583    1.402   .     A
C579   O629    1.384   .     S
C579   C588    1.406   .     A
C580   O640    1.386   .     S
C580   C584    1.395   .     A
C580   C587    1.408   .     A
C581   C585    1.419   .     A
C581   Br651   1.934   .     S
C582   C586    1.422   .     A
C582   Br652   1.938   .     S
C583   C586    1.425   .     A
C583   Br653   1.938   .     S
C584   Br654   1.931   .     S
C584   C585    1.417   .     A
C587   C1434   1.479   1_554 S
C588   C1433   1.479   .     S
Cu591  N597    2.007   .     S
Cu591  O603    1.966   .     S
Cu591  O599    1.956   .     S
Cu591  O605    1.968   .     S
Cu591  O601    1.959   .     S
Cu591  Cu592   2.671   .     S
Cu592  O604    1.966   .     S
Cu592  N598    2.007   .     S
Cu592  O602    1.959   .     S
Cu592  O606    1.968   .     S
Cu592  O600    1.956   .     S
O607   C1454   1.416   1_554 S
C608   H610    1.111   .     S
C608   H609    1.111   .     S
C608   O1453   1.416   .     S
C608   C1457   1.528   .     S
C611   H613    1.109   .     S
C611   H612    1.110   .     S
C611   C1454   1.528   1_554 S
C611   C1460   1.526   1_554 S
C614   H617    1.110   .     S
C614   H615    1.110   .     S
C614   C1457   1.526   .     S
C614   H1556   1.109   .     S
H616   C1648   1.109   1_454 S
O618   C619    1.414   .     S
C619   H621    1.118   .     S
C619   C622    1.529   .     S
C619   H1466   1.112   .     S
H620   C1465   1.112   1_554 S
C622   H624    1.111   .     S
C622   C625    1.523   .     S
C622   H1469   1.112   .     S
H623   C1468   1.112   1_554 S
C625   H626    1.111   .     S
C625   H1474   1.109   .     S
H627   C61     1.107   1_565 S
H628   C1471   1.109   1_554 S
O629   C630    1.410   .     S
C630   H632    1.117   .     S
C630   C633    1.530   .     S
C630   H1477   1.111   .     S
H631   C1476   1.111   1_554 S
C633   H635    1.112   .     S
C633   C636    1.523   .     S
C633   H1480   1.112   .     S
H634   C1479   1.112   1_554 S
C636   H637    1.110   .     S
C636   H74     1.109   1_565 S
C636   H1485   1.110   .     S
H639   C1482   1.110   1_554 S
O640   C641    1.418   .     S
C641   H643    1.116   .     S
C641   C644    1.533   .     S
C641   H1488   1.111   1_554 S
H642   C1487   1.111   .     S
C644   H645    1.110   .     S
C644   H646    1.108   .     S
C644   C835    1.521   1_455 S
C647   H648    1.107   .     S
C647   H649    1.110   .     S
C647   H650    1.109   .     S
C647   C738    1.521   .     S
C659   O696    1.286   .     A
C659   C684    1.442   .     S
C659   O693    1.285   .     A
C660   O694    1.285   .     A
C660   O695    1.288   .     A
C660   C683    1.445   .     S
C661   O700    1.296   .     A
C661   C679    1.476   .     S
C661   O697    1.294   .     A
C662   O699    1.298   .     A
C662   O698    1.297   .     A
C662   C680    1.485   .     S
C663   H687    1.080   .     S
C663   N692    1.366   .     A
C664   H688    1.081   .     S
C664   N691    1.366   .     A
C664   C101    1.414   1_565 S
C665   H689    1.081   .     S
C665   N692    1.367   .     A
C666   H690    1.081   .     S
C666   N691    1.366   .     A
C666   C99     1.413   1_565 S
C667   Br749   1.932   .     S
C667   C684    1.405   .     A
C668   Br750   1.924   .     S
C668   C683    1.404   .     A
C668   C764    1.395   .     S
C669   Br751   1.932   .     S
C669   C683    1.405   .     A
C669   C761    1.398   .     S
C670   Br752   1.932   .     S
C670   C684    1.404   .     A
C671   C681    1.415   .     A
C671   O701    1.388   .     S
C671   C675    1.398   .     A
C672   C676    1.398   .     A
C672   C682    1.408   .     A
C672   O712    1.386   .     S
C673   C677    1.402   .     A
C673   O723    1.384   .     S
C673   C682    1.406   .     A
C674   O734    1.386   .     S
C674   C678    1.395   .     A
C674   C681    1.408   .     A
C675   C679    1.419   .     A
C675   Br745   1.934   .     S
C676   C680    1.422   .     A
C676   Br746   1.938   .     S
C677   C680    1.425   .     A
C677   Br747   1.938   .     S
C678   Br748   1.931   .     S
C678   C679    1.417   .     A
C681   C1528   1.479   1_554 S
C682   C1527   1.479   .     S
Cu685  N691    2.007   .     S
Cu685  O697    1.966   .     S
Cu685  O693    1.956   .     S
Cu685  O699    1.968   .     S
Cu685  O695    1.959   .     S
Cu685  Cu686   2.671   .     S
Cu686  O698    1.966   .     S
Cu686  N692    2.007   .     S
Cu686  O696    1.959   .     S
Cu686  O700    1.968   .     S
Cu686  O694    1.956   .     S
O701   C1548   1.416   1_554 S
C702   H704    1.111   .     S
C702   H703    1.111   .     S
C702   O1547   1.416   .     S
C702   C1551   1.528   .     S
C705   H707    1.109   .     S
C705   H706    1.110   .     S
C705   C1548   1.528   1_554 S
C705   C1554   1.526   1_554 S
C708   H711    1.110   .     S
C708   H709    1.110   .     S
C708   C1551   1.526   .     S
C708   H1650   1.109   .     S
H710   C1460   1.109   1_554 S
O712   C713    1.414   .     S
C713   H715    1.118   .     S
C713   C716    1.529   .     S
C713   H1560   1.112   .     S
H714   C1559   1.112   1_554 S
C716   H718    1.111   .     S
C716   C719    1.523   .     S
C716   H1563   1.112   .     S
H717   C1562   1.112   1_554 S
C719   H720    1.111   .     S
C719   H1568   1.109   .     S
H721   C155    1.107   1_565 S
H722   C1565   1.109   1_554 S
O723   C724    1.410   .     S
C724   H726    1.117   .     S
C724   C727    1.530   .     S
C724   H1571   1.111   .     S
H725   C1570   1.111   1_554 S
C727   H729    1.112   .     S
C727   C730    1.523   .     S
C727   H1574   1.112   .     S
H728   C1573   1.112   1_554 S
C730   H731    1.110   .     S
C730   H168    1.109   1_565 S
C730   H1579   1.110   .     S
H733   C1576   1.110   1_554 S
O734   C735    1.418   .     S
C735   H737    1.116   .     S
C735   C738    1.533   .     S
C735   H1582   1.111   1_554 S
H736   C1581   1.111   .     S
C738   H739    1.110   .     S
C738   H740    1.108   .     S
C741   H742    1.107   .     S
C741   H743    1.110   .     S
C741   H744    1.109   .     S
C741   C832    1.521   .     S
C753   O790    1.286   .     A
C753   C778    1.442   .     S
C753   O787    1.285   .     A
C754   O788    1.285   .     A
C754   O789    1.288   .     A
C754   C777    1.445   .     S
C755   O794    1.296   .     A
C755   C773    1.476   .     S
C755   O791    1.294   .     A
C756   O793    1.298   .     A
C756   O792    1.297   .     A
C756   C774    1.485   .     S
C757   H781    1.080   .     S
C757   N786    1.366   .     A
C758   H782    1.081   .     S
C758   N785    1.366   .     A
C758   C195    1.414   1_565 S
C759   H783    1.081   .     S
C759   N786    1.367   .     A
C760   H784    1.081   .     S
C760   N785    1.366   .     A
C760   C193    1.413   1_565 S
C761   Br843   1.932   .     S
C761   C778    1.405   .     A
C762   Br844   1.924   .     S
C762   C777    1.404   .     A
C762   C576    1.395   1_655 S
C763   Br845   1.932   .     S
C763   C777    1.405   .     A
C763   C573    1.398   1_655 S
C764   Br846   1.932   .     S
C764   C778    1.404   .     A
C765   C775    1.415   .     A
C765   O795    1.388   .     S
C765   C769    1.398   .     A
C766   C770    1.398   .     A
C766   C776    1.408   .     A
C766   O806    1.386   .     S
C767   C771    1.402   .     A
C767   O817    1.384   .     S
C767   C776    1.406   .     A
C768   O828    1.386   .     S
C768   C772    1.395   .     A
C768   C775    1.408   .     A
C769   C773    1.419   .     A
C769   Br839   1.934   .     S
C770   C774    1.422   .     A
C770   Br840   1.938   .     S
C771   C774    1.425   .     A
C771   Br841   1.938   .     S
C772   Br842   1.931   .     S
C772   C773    1.417   .     A
C775   C1622   1.479   1_554 S
C776   C1621   1.479   .     S
Cu779  N785    2.007   .     S
Cu779  O791    1.966   .     S
Cu779  O787    1.956   .     S
Cu779  O793    1.968   .     S
Cu779  O789    1.959   .     S
Cu779  Cu780   2.671   .     S
Cu780  O792    1.966   .     S
Cu780  N786    2.007   .     S
Cu780  O790    1.959   .     S
Cu780  O794    1.968   .     S
Cu780  O788    1.956   .     S
O795   C1642   1.416   1_554 S
C796   H798    1.111   .     S
C796   H797    1.111   .     S
C796   O1641   1.416   .     S
C796   C1645   1.528   .     S
C799   H801    1.109   .     S
C799   H800    1.110   .     S
C799   C1642   1.528   1_554 S
C799   C1648   1.526   1_554 S
C802   H805    1.110   .     S
C802   H803    1.110   .     S
C802   C1645   1.526   .     S
C802   H1462   1.109   1_655 S
H804   C1554   1.109   1_554 S
O806   C807    1.414   .     S
C807   H809    1.118   .     S
C807   C810    1.529   .     S
C807   H1654   1.112   .     S
H808   C1653   1.112   1_554 S
C810   H812    1.111   .     S
C810   C813    1.523   .     S
C810   H1657   1.112   .     S
H811   C1656   1.112   1_554 S
C813   H814    1.111   .     S
C813   H1662   1.109   .     S
H815   C249    1.107   1_565 S
H816   C1659   1.109   1_554 S
O817   C818    1.410   .     S
C818   H820    1.117   .     S
C818   C821    1.530   .     S
C818   H1665   1.111   .     S
H819   C1664   1.111   1_554 S
C821   H823    1.112   .     S
C821   C824    1.523   .     S
C821   H1668   1.112   .     S
H822   C1667   1.112   1_554 S
C824   H825    1.110   .     S
C824   H262    1.109   1_565 S
C824   H1673   1.110   .     S
H827   C1670   1.110   1_554 S
O828   C829    1.418   .     S
C829   H831    1.116   .     S
C829   C832    1.533   .     S
C829   H1676   1.111   1_554 S
H830   C1675   1.111   .     S
C832   H833    1.110   .     S
C832   H834    1.108   .     S
C835   H836    1.107   .     S
C835   H837    1.110   .     S
C835   H838    1.109   .     S
C835   C644    1.521   1_655 S
C847   O884    1.286   .     A
C847   C872    1.442   .     S
C847   O881    1.285   .     A
C848   O882    1.285   .     A
C848   O883    1.288   .     A
C848   C871    1.445   .     S
C849   O888    1.296   .     A
C849   C867    1.476   .     S
C849   O885    1.294   .     A
C850   O887    1.298   .     A
C850   O886    1.297   .     A
C850   C868    1.485   .     S
C851   H875    1.080   .     S
C851   N880    1.366   .     A
C851   C1418   1.413   1_545 S
C852   H876    1.081   .     S
C852   N879    1.366   .     A
C852   C1135   1.414   .     S
C853   H877    1.081   .     S
C853   N880    1.367   .     A
C853   C1416   1.414   1_545 S
C854   H878    1.081   .     S
C854   N879    1.366   .     A
C854   C1133   1.413   .     S
C855   Br937   1.932   .     S
C855   C872    1.405   .     A
C855   C1045   1.398   1_455 S
C856   Br938   1.924   .     S
C856   C871    1.404   .     A
C856   C952    1.395   .     S
C857   Br939   1.932   .     S
C857   C871    1.405   .     A
C857   C949    1.398   .     S
C858   Br940   1.932   .     S
C858   C872    1.404   .     A
C858   C1044   1.395   1_455 S
C859   C869    1.415   .     A
C859   O889    1.388   .     S
C859   C863    1.398   .     A
C860   C864    1.398   .     A
C860   C870    1.408   .     A
C860   O900    1.386   .     S
C861   C865    1.402   .     A
C861   O911    1.384   .     S
C861   C870    1.406   .     A
C862   O922    1.386   .     S
C862   C866    1.395   .     A
C862   C869    1.408   .     A
C863   C867    1.419   .     A
C863   Br933   1.934   .     S
C864   C868    1.422   .     A
C864   Br934   1.938   .     S
C865   C868    1.425   .     A
C865   Br935   1.938   .     S
C866   Br936   1.931   .     S
C866   C867    1.417   .     A
C870   C23     1.479   1_556 S
Cu873  N879    2.007   .     S
Cu873  O885    1.966   .     S
Cu873  O881    1.956   .     S
Cu873  O887    1.968   .     S
Cu873  O883    1.959   .     S
Cu873  Cu874   2.671   .     S
Cu874  O886    1.966   .     S
Cu874  N880    2.007   .     S
Cu874  O884    1.959   .     S
Cu874  O888    1.968   .     S
Cu874  O882    1.956   .     S
C890   H892    1.111   .     S
C890   H891    1.111   .     S
C890   O43     1.416   1_556 S
C890   C47     1.528   1_556 S
C893   H895    1.109   .     S
C893   H894    1.110   .     S
C896   H899    1.110   .     S
C896   H897    1.110   .     S
C896   C47     1.526   1_556 S
C896   H146    1.109   1_556 S
H898   C238    1.109   1_455 S
O900   C901    1.414   .     S
C901   H903    1.118   .     S
C901   C904    1.529   .     S
C901   H56     1.112   1_556 S
C904   H906    1.111   .     S
C904   C907    1.523   .     S
C904   H59     1.112   1_556 S
C907   H908    1.111   .     S
C907   H1473   1.107   1_545 S
C907   H64     1.109   1_556 S
H909   C1189   1.107   .     S
O911   C912    1.410   .     S
C912   H914    1.117   .     S
C912   C915    1.530   .     S
C912   H67     1.111   1_556 S
C915   H917    1.112   .     S
C915   C918    1.523   .     S
C915   H70     1.112   1_556 S
C918   H919    1.110   .     S
C918   H1202   1.109   .     S
C918   H75     1.110   1_556 S
H920   C1482   1.109   1_545 S
O922   C923    1.418   .     S
C923   H925    1.116   .     S
C923   C926    1.533   .     S
H924   C77     1.111   1_556 S
C926   H927    1.110   .     S
C926   H928    1.108   .     S
C926   C1117   1.521   1_455 S
C929   H930    1.107   .     S
C929   H931    1.110   .     S
C929   H932    1.109   .     S
C929   C1020   1.521   .     S
C941   O978    1.286   .     A
C941   C966    1.442   .     S
C941   O975    1.285   .     A
C942   O976    1.285   .     A
C942   O977    1.288   .     A
C942   C965    1.445   .     S
C943   O982    1.296   .     A
C943   C961    1.476   .     S
C943   O979    1.294   .     A
C944   O981    1.298   .     A
C944   O980    1.297   .     A
C944   C962    1.485   .     S
C945   H969    1.080   .     S
C945   N974    1.366   .     A
C945   C1512   1.413   1_545 S
C946   H970    1.081   .     S
C946   N973    1.366   .     A
C946   C1229   1.414   .     S
C947   H971    1.081   .     S
C947   N974    1.367   .     A
C947   C1510   1.414   1_545 S
C948   H972    1.081   .     S
C948   N973    1.366   .     A
C948   C1227   1.413   .     S
C949   Br1031  1.932   .     S
C949   C966    1.405   .     A
C950   Br1032  1.924   .     S
C950   C965    1.404   .     A
C950   C1046   1.395   .     S
C951   Br1033  1.932   .     S
C951   C965    1.405   .     A
C951   C1043   1.398   .     S
C952   Br1034  1.932   .     S
C952   C966    1.404   .     A
C953   C963    1.415   .     A
C953   O983    1.388   .     S
C953   C957    1.398   .     A
C954   C958    1.398   .     A
C954   C964    1.408   .     A
C954   O994    1.386   .     S
C955   C959    1.402   .     A
C955   O1005   1.384   .     S
C955   C964    1.406   .     A
C956   O1016   1.386   .     S
C956   C960    1.395   .     A
C956   C963    1.408   .     A
C957   C961    1.419   .     A
C957   Br1027  1.934   .     S
C958   C962    1.422   .     A
C958   Br1028  1.938   .     S
C959   C962    1.425   .     A
C959   Br1029  1.938   .     S
C960   Br1030  1.931   .     S
C960   C961    1.417   .     A
C964   C117    1.479   1_556 S
Cu967  N973    2.007   .     S
Cu967  O979    1.966   .     S
Cu967  O975    1.956   .     S
Cu967  O981    1.968   .     S
Cu967  O977    1.959   .     S
Cu967  Cu968   2.671   .     S
Cu968  O980    1.966   .     S
Cu968  N974    2.007   .     S
Cu968  O978    1.959   .     S
Cu968  O982    1.968   .     S
Cu968  O976    1.956   .     S
C984   H986    1.111   .     S
C984   H985    1.111   .     S
C984   O137    1.416   1_556 S
C984   C141    1.528   1_556 S
C987   H989    1.109   .     S
C987   H988    1.110   .     S
C990   H993    1.110   .     S
C990   H991    1.110   .     S
C990   C141    1.526   1_556 S
C990   H240    1.109   1_556 S
O994   C995    1.414   .     S
C995   H997    1.118   .     S
C995   C998    1.529   .     S
C995   H150    1.112   1_556 S
C998   H1000   1.111   .     S
C998   C1001   1.523   .     S
C998   H153    1.112   1_556 S
C1001  H1002   1.111   .     S
C1001  H1567   1.107   1_545 S
C1001  H158    1.109   1_556 S
H1003  C1283   1.107   .     S
O1005  C1006   1.410   .     S
C1006  H1008   1.117   .     S
C1006  C1009   1.530   .     S
C1006  H161    1.111   1_556 S
C1009  H1011   1.112   .     S
C1009  C1012   1.523   .     S
C1009  H164    1.112   1_556 S
C1012  H1013   1.110   .     S
C1012  H1296   1.109   .     S
C1012  H169    1.110   1_556 S
H1014  C1576   1.109   1_545 S
O1016  C1017   1.418   .     S
C1017  H1019   1.116   .     S
C1017  C1020   1.533   .     S
H1018  C171    1.111   1_556 S
C1020  H1021   1.110   .     S
C1020  H1022   1.108   .     S
C1023  H1024   1.107   .     S
C1023  H1025   1.110   .     S
C1023  H1026   1.109   .     S
C1023  C1114   1.521   .     S
C1035  O1072   1.286   .     A
C1035  C1060   1.442   .     S
C1035  O1069   1.285   .     A
C1036  O1070   1.285   .     A
C1036  O1071   1.288   .     A
C1036  C1059   1.445   .     S
C1037  O1076   1.296   .     A
C1037  C1055   1.476   .     S
C1037  O1073   1.294   .     A
C1038  O1075   1.298   .     A
C1038  O1074   1.297   .     A
C1038  C1056   1.485   .     S
C1039  H1063   1.080   .     S
C1039  N1068   1.366   .     A
C1039  C1606   1.413   1_545 S
C1040  H1064   1.081   .     S
C1040  N1067   1.366   .     A
C1040  C1323   1.414   .     S
C1041  H1065   1.081   .     S
C1041  N1068   1.367   .     A
C1041  C1604   1.414   1_545 S
C1042  H1066   1.081   .     S
C1042  N1067   1.366   .     A
C1042  C1321   1.413   .     S
C1043  Br1125  1.932   .     S
C1043  C1060   1.405   .     A
C1044  Br1126  1.924   .     S
C1044  C1059   1.404   .     A
C1044  C858    1.395   1_655 S
C1045  Br1127  1.932   .     S
C1045  C1059   1.405   .     A
C1045  C855    1.398   1_655 S
C1046  Br1128  1.932   .     S
C1046  C1060   1.404   .     A
C1047  C1057   1.415   .     A
C1047  O1077   1.388   .     S
C1047  C1051   1.398   .     A
C1048  C1052   1.398   .     A
C1048  C1058   1.408   .     A
C1048  O1088   1.386   .     S
C1049  C1053   1.402   .     A
C1049  O1099   1.384   .     S
C1049  C1058   1.406   .     A
C1050  O1110   1.386   .     S
C1050  C1054   1.395   .     A
C1050  C1057   1.408   .     A
C1051  C1055   1.419   .     A
C1051  Br1121  1.934   .     S
C1052  C1056   1.422   .     A
C1052  Br1122  1.938   .     S
C1053  C1056   1.425   .     A
C1053  Br1123  1.938   .     S
C1054  Br1124  1.931   .     S
C1054  C1055   1.417   .     A
C1058  C211    1.479   1_556 S
Cu1061 N1067   2.007   .     S
Cu1061 O1073   1.966   .     S
Cu1061 O1069   1.956   .     S
Cu1061 O1075   1.968   .     S
Cu1061 O1071   1.959   .     S
Cu1061 Cu1062  2.671   .     S
Cu1062 O1074   1.966   .     S
Cu1062 N1068   2.007   .     S
Cu1062 O1072   1.959   .     S
Cu1062 O1076   1.968   .     S
Cu1062 O1070   1.956   .     S
C1078  H1080   1.111   .     S
C1078  H1079   1.111   .     S
C1078  O231    1.416   1_556 S
C1078  C235    1.528   1_556 S
C1081  H1083   1.109   .     S
C1081  H1082   1.110   .     S
C1084  H1087   1.110   .     S
C1084  H1085   1.110   .     S
C1084  C235    1.526   1_556 S
C1084  H52     1.109   1_656 S
O1088  C1089   1.414   .     S
C1089  H1091   1.118   .     S
C1089  C1092   1.529   .     S
C1089  H244    1.112   1_556 S
C1092  H1094   1.111   .     S
C1092  C1095   1.523   .     S
C1092  H247    1.112   1_556 S
C1095  H1096   1.111   .     S
C1095  H1661   1.107   1_545 S
C1095  H252    1.109   1_556 S
H1097  C1377   1.107   .     S
O1099  C1100   1.410   .     S
C1100  H1102   1.117   .     S
C1100  C1103   1.530   .     S
C1100  H255    1.111   1_556 S
C1103  H1105   1.112   .     S
C1103  C1106   1.523   .     S
C1103  H258    1.112   1_556 S
C1106  H1107   1.110   .     S
C1106  H1390   1.109   .     S
C1106  H263    1.110   1_556 S
H1108  C1670   1.109   1_545 S
O1110  C1111   1.418   .     S
C1111  H1113   1.116   .     S
C1111  C1114   1.533   .     S
H1112  C265    1.111   1_556 S
C1114  H1115   1.110   .     S
C1114  H1116   1.108   .     S
C1117  H1118   1.107   .     S
C1117  H1119   1.110   .     S
C1117  H1120   1.109   .     S
C1117  C926    1.521   1_655 S
C1129  O1166   1.286   .     A
C1129  C1154   1.442   .     S
C1129  O1163   1.285   .     A
C1130  O1164   1.285   .     A
C1130  O1165   1.288   .     A
C1130  C1153   1.445   .     S
C1131  O1170   1.296   .     A
C1131  C1149   1.476   .     S
C1131  O1167   1.294   .     A
C1132  O1169   1.298   .     A
C1132  O1168   1.297   .     A
C1132  C1150   1.485   .     S
C1133  H1157   1.080   .     S
C1133  N1162   1.366   .     A
C1134  H1158   1.081   .     S
C1134  N1161   1.366   .     A
C1134  C1417   1.414   .     S
C1135  H1159   1.081   .     S
C1135  N1162   1.367   .     A
C1136  H1160   1.081   .     S
C1136  N1161   1.366   .     A
C1136  C1415   1.413   .     S
C1137  Br1219  1.932   .     S
C1137  C1154   1.405   .     A
C1137  C1327   1.398   1_455 S
C1138  Br1220  1.924   .     S
C1138  C1153   1.404   .     A
C1138  C1234   1.395   .     S
C1139  Br1221  1.932   .     S
C1139  C1153   1.405   .     A
C1139  C1231   1.398   .     S
C1140  Br1222  1.932   .     S
C1140  C1154   1.404   .     A
C1140  C1326   1.395   1_455 S
C1141  C1151   1.415   .     A
C1141  O1171   1.388   .     S
C1141  C1145   1.398   .     A
C1142  C1146   1.398   .     A
C1142  C1152   1.408   .     A
C1142  O1182   1.386   .     S
C1143  C1147   1.402   .     A
C1143  O1193   1.384   .     S
C1143  C1152   1.406   .     A
C1144  O1204   1.386   .     S
C1144  C1148   1.395   .     A
C1144  C1151   1.408   .     A
C1145  C1149   1.419   .     A
C1145  Br1215  1.934   .     S
C1146  C1150   1.422   .     A
C1146  Br1216  1.938   .     S
C1147  C1150   1.425   .     A
C1147  Br1217  1.938   .     S
C1148  Br1218  1.931   .     S
C1148  C1149   1.417   .     A
C1152  C305    1.479   1_556 S
Cu1155 N1161   2.007   .     S
Cu1155 O1167   1.966   .     S
Cu1155 O1163   1.956   .     S
Cu1155 O1169   1.968   .     S
Cu1155 O1165   1.959   .     S
Cu1155 Cu1156  2.671   .     S
Cu1156 O1168   1.966   .     S
Cu1156 N1162   2.007   .     S
Cu1156 O1166   1.959   .     S
Cu1156 O1170   1.968   .     S
Cu1156 O1164   1.956   .     S
C1172  H1174   1.111   .     S
C1172  H1173   1.111   .     S
C1172  O325    1.416   1_556 S
C1172  C329    1.528   1_556 S
C1175  H1177   1.109   .     S
C1175  H1176   1.110   .     S
C1178  H1181   1.110   .     S
C1178  H1179   1.110   .     S
C1178  C329    1.526   1_556 S
C1178  H428    1.109   1_556 S
H1180  C520    1.109   1_455 S
O1182  C1183   1.414   .     S
C1183  H1185   1.118   .     S
C1183  C1186   1.529   .     S
C1183  H338    1.112   1_556 S
C1186  H1188   1.111   .     S
C1186  C1189   1.523   .     S
C1186  H341    1.112   1_556 S
C1189  H1190   1.111   .     S
C1189  H346    1.109   1_556 S
H1191  C1471   1.107   .     S
O1193  C1194   1.410   .     S
C1194  H1196   1.117   .     S
C1194  C1197   1.530   .     S
C1194  H349    1.111   1_556 S
C1197  H1199   1.112   .     S
C1197  C1200   1.523   .     S
C1197  H352    1.112   1_556 S
C1200  H1201   1.110   .     S
C1200  H1484   1.109   .     S
C1200  H357    1.110   1_556 S
O1204  C1205   1.418   .     S
C1205  H1207   1.116   .     S
C1205  C1208   1.533   .     S
H1206  C359    1.111   1_556 S
C1208  H1209   1.110   .     S
C1208  H1210   1.108   .     S
C1208  C1399   1.521   1_455 S
C1211  H1212   1.107   .     S
C1211  H1213   1.110   .     S
C1211  H1214   1.109   .     S
C1211  C1302   1.521   .     S
C1223  O1260   1.286   .     A
C1223  C1248   1.442   .     S
C1223  O1257   1.285   .     A
C1224  O1258   1.285   .     A
C1224  O1259   1.288   .     A
C1224  C1247   1.445   .     S
C1225  O1264   1.296   .     A
C1225  C1243   1.476   .     S
C1225  O1261   1.294   .     A
C1226  O1263   1.298   .     A
C1226  O1262   1.297   .     A
C1226  C1244   1.485   .     S
C1227  H1251   1.080   .     S
C1227  N1256   1.366   .     A
C1228  H1252   1.081   .     S
C1228  N1255   1.366   .     A
C1228  C1511   1.414   .     S
C1229  H1253   1.081   .     S
C1229  N1256   1.367   .     A
C1230  H1254   1.081   .     S
C1230  N1255   1.366   .     A
C1230  C1509   1.413   .     S
C1231  Br1313  1.932   .     S
C1231  C1248   1.405   .     A
C1232  Br1314  1.924   .     S
C1232  C1247   1.404   .     A
C1232  C1328   1.395   .     S
C1233  Br1315  1.932   .     S
C1233  C1247   1.405   .     A
C1233  C1325   1.398   .     S
C1234  Br1316  1.932   .     S
C1234  C1248   1.404   .     A
C1235  C1245   1.415   .     A
C1235  O1265   1.388   .     S
C1235  C1239   1.398   .     A
C1236  C1240   1.398   .     A
C1236  C1246   1.408   .     A
C1236  O1276   1.386   .     S
C1237  C1241   1.402   .     A
C1237  O1287   1.384   .     S
C1237  C1246   1.406   .     A
C1238  O1298   1.386   .     S
C1238  C1242   1.395   .     A
C1238  C1245   1.408   .     A
C1239  C1243   1.419   .     A
C1239  Br1309  1.934   .     S
C1240  C1244   1.422   .     A
C1240  Br1310  1.938   .     S
C1241  C1244   1.425   .     A
C1241  Br1311  1.938   .     S
C1242  Br1312  1.931   .     S
C1242  C1243   1.417   .     A
C1246  C399    1.479   1_556 S
Cu1249 N1255   2.007   .     S
Cu1249 O1261   1.966   .     S
Cu1249 O1257   1.956   .     S
Cu1249 O1263   1.968   .     S
Cu1249 O1259   1.959   .     S
Cu1249 Cu1250  2.671   .     S
Cu1250 O1262   1.966   .     S
Cu1250 N1256   2.007   .     S
Cu1250 O1260   1.959   .     S
Cu1250 O1264   1.968   .     S
Cu1250 O1258   1.956   .     S
C1266  H1268   1.111   .     S
C1266  H1267   1.111   .     S
C1266  O419    1.416   1_556 S
C1266  C423    1.528   1_556 S
C1269  H1271   1.109   .     S
C1269  H1270   1.110   .     S
C1272  H1275   1.110   .     S
C1272  H1273   1.110   .     S
C1272  C423    1.526   1_556 S
C1272  H522    1.109   1_556 S
O1276  C1277   1.414   .     S
C1277  H1279   1.118   .     S
C1277  C1280   1.529   .     S
C1277  H432    1.112   1_556 S
C1280  H1282   1.111   .     S
C1280  C1283   1.523   .     S
C1280  H435    1.112   1_556 S
C1283  H1284   1.111   .     S
C1283  H440    1.109   1_556 S
H1285  C1565   1.107   .     S
O1287  C1288   1.410   .     S
C1288  H1290   1.117   .     S
C1288  C1291   1.530   .     S
C1288  H443    1.111   1_556 S
C1291  H1293   1.112   .     S
C1291  C1294   1.523   .     S
C1291  H446    1.112   1_556 S
C1294  H1295   1.110   .     S
C1294  H1578   1.109   .     S
C1294  H451    1.110   1_556 S
O1298  C1299   1.418   .     S
C1299  H1301   1.116   .     S
C1299  C1302   1.533   .     S
H1300  C453    1.111   1_556 S
C1302  H1303   1.110   .     S
C1302  H1304   1.108   .     S
C1305  H1306   1.107   .     S
C1305  H1307   1.110   .     S
C1305  H1308   1.109   .     S
C1305  C1396   1.521   .     S
C1317  O1354   1.286   .     A
C1317  C1342   1.442   .     S
C1317  O1351   1.285   .     A
C1318  O1352   1.285   .     A
C1318  O1353   1.288   .     A
C1318  C1341   1.445   .     S
C1319  O1358   1.296   .     A
C1319  C1337   1.476   .     S
C1319  O1355   1.294   .     A
C1320  O1357   1.298   .     A
C1320  O1356   1.297   .     A
C1320  C1338   1.485   .     S
C1321  H1345   1.080   .     S
C1321  N1350   1.366   .     A
C1322  H1346   1.081   .     S
C1322  N1349   1.366   .     A
C1322  C1605   1.414   .     S
C1323  H1347   1.081   .     S
C1323  N1350   1.367   .     A
C1324  H1348   1.081   .     S
C1324  N1349   1.366   .     A
C1324  C1603   1.413   .     S
C1325  Br1407  1.932   .     S
C1325  C1342   1.405   .     A
C1326  Br1408  1.924   .     S
C1326  C1341   1.404   .     A
C1326  C1140   1.395   1_655 S
C1327  Br1409  1.932   .     S
C1327  C1341   1.405   .     A
C1327  C1137   1.398   1_655 S
C1328  Br1410  1.932   .     S
C1328  C1342   1.404   .     A
C1329  C1339   1.415   .     A
C1329  O1359   1.388   .     S
C1329  C1333   1.398   .     A
C1330  C1334   1.398   .     A
C1330  C1340   1.408   .     A
C1330  O1370   1.386   .     S
C1331  C1335   1.402   .     A
C1331  O1381   1.384   .     S
C1331  C1340   1.406   .     A
C1332  O1392   1.386   .     S
C1332  C1336   1.395   .     A
C1332  C1339   1.408   .     A
C1333  C1337   1.419   .     A
C1333  Br1403  1.934   .     S
C1334  C1338   1.422   .     A
C1334  Br1404  1.938   .     S
C1335  C1338   1.425   .     A
C1335  Br1405  1.938   .     S
C1336  Br1406  1.931   .     S
C1336  C1337   1.417   .     A
C1340  C493    1.479   1_556 S
Cu1343 N1349   2.007   .     S
Cu1343 O1355   1.966   .     S
Cu1343 O1351   1.956   .     S
Cu1343 O1357   1.968   .     S
Cu1343 O1353   1.959   .     S
Cu1343 Cu1344  2.671   .     S
Cu1344 O1356   1.966   .     S
Cu1344 N1350   2.007   .     S
Cu1344 O1354   1.959   .     S
Cu1344 O1358   1.968   .     S
Cu1344 O1352   1.956   .     S
C1360  H1362   1.111   .     S
C1360  H1361   1.111   .     S
C1360  O513    1.416   1_556 S
C1360  C517    1.528   1_556 S
C1363  H1365   1.109   .     S
C1363  H1364   1.110   .     S
C1366  H1369   1.110   .     S
C1366  H1367   1.110   .     S
C1366  C517    1.526   1_556 S
C1366  H334    1.109   1_656 S
O1370  C1371   1.414   .     S
C1371  H1373   1.118   .     S
C1371  C1374   1.529   .     S
C1371  H526    1.112   1_556 S
C1374  H1376   1.111   .     S
C1374  C1377   1.523   .     S
C1374  H529    1.112   1_556 S
C1377  H1378   1.111   .     S
C1377  H534    1.109   1_556 S
H1379  C1659   1.107   .     S
O1381  C1382   1.410   .     S
C1382  H1384   1.117   .     S
C1382  C1385   1.530   .     S
C1382  H537    1.111   1_556 S
C1385  H1387   1.112   .     S
C1385  C1388   1.523   .     S
C1385  H540    1.112   1_556 S
C1388  H1389   1.110   .     S
C1388  H1672   1.109   .     S
C1388  H545    1.110   1_556 S
O1392  C1393   1.418   .     S
C1393  H1395   1.116   .     S
C1393  C1396   1.533   .     S
H1394  C547    1.111   1_556 S
C1396  H1397   1.110   .     S
C1396  H1398   1.108   .     S
C1399  H1400   1.107   .     S
C1399  H1401   1.110   .     S
C1399  H1402   1.109   .     S
C1399  C1208   1.521   1_655 S
C1411  O1448   1.286   .     A
C1411  C1436   1.442   .     S
C1411  O1445   1.285   .     A
C1412  O1446   1.285   .     A
C1412  O1447   1.288   .     A
C1412  C1435   1.445   .     S
C1413  O1452   1.296   .     A
C1413  C1431   1.476   .     S
C1413  O1449   1.294   .     A
C1414  O1451   1.298   .     A
C1414  O1450   1.297   .     A
C1414  C1432   1.485   .     S
C1415  H1439   1.080   .     S
C1415  N1444   1.366   .     A
C1416  H1440   1.081   .     S
C1416  N1443   1.366   .     A
C1416  C853    1.414   1_565 S
C1417  H1441   1.081   .     S
C1417  N1444   1.367   .     A
C1418  H1442   1.081   .     S
C1418  N1443   1.366   .     A
C1418  C851    1.413   1_565 S
C1419  Br1501  1.932   .     S
C1419  C1436   1.405   .     A
C1419  C1609   1.398   1_455 S
C1420  Br1502  1.924   .     S
C1420  C1435   1.404   .     A
C1420  C1516   1.395   .     S
C1421  Br1503  1.932   .     S
C1421  C1435   1.405   .     A
C1421  C1513   1.398   .     S
C1422  Br1504  1.932   .     S
C1422  C1436   1.404   .     A
C1422  C1608   1.395   1_455 S
C1423  C1433   1.415   .     A
C1423  O1453   1.388   .     S
C1423  C1427   1.398   .     A
C1424  C1428   1.398   .     A
C1424  C1434   1.408   .     A
C1424  O1464   1.386   .     S
C1425  C1429   1.402   .     A
C1425  O1475   1.384   .     S
C1425  C1434   1.406   .     A
C1426  O1486   1.386   .     S
C1426  C1430   1.395   .     A
C1426  C1433   1.408   .     A
C1427  C1431   1.419   .     A
C1427  Br1497  1.934   .     S
C1428  C1432   1.422   .     A
C1428  Br1498  1.938   .     S
C1429  C1432   1.425   .     A
C1429  Br1499  1.938   .     S
C1430  Br1500  1.931   .     S
C1430  C1431   1.417   .     A
C1434  C587    1.479   1_556 S
Cu1437 N1443   2.007   .     S
Cu1437 O1449   1.966   .     S
Cu1437 O1445   1.956   .     S
Cu1437 O1451   1.968   .     S
Cu1437 O1447   1.959   .     S
Cu1437 Cu1438  2.671   .     S
Cu1438 O1450   1.966   .     S
Cu1438 N1444   2.007   .     S
Cu1438 O1448   1.959   .     S
Cu1438 O1452   1.968   .     S
Cu1438 O1446   1.956   .     S
C1454  H1456   1.111   .     S
C1454  H1455   1.111   .     S
C1454  O607    1.416   1_556 S
C1454  C611    1.528   1_556 S
C1457  H1459   1.109   .     S
C1457  H1458   1.110   .     S
C1460  H1463   1.110   .     S
C1460  H1461   1.110   .     S
C1460  C611    1.526   1_556 S
C1460  H710    1.109   1_556 S
H1462  C802    1.109   1_455 S
O1464  C1465   1.414   .     S
C1465  H1467   1.118   .     S
C1465  C1468   1.529   .     S
C1465  H620    1.112   1_556 S
C1468  H1470   1.111   .     S
C1468  C1471   1.523   .     S
C1468  H623    1.112   1_556 S
C1471  H1472   1.111   .     S
C1471  H628    1.109   1_556 S
H1473  C907    1.107   1_565 S
O1475  C1476   1.410   .     S
C1476  H1478   1.117   .     S
C1476  C1479   1.530   .     S
C1476  H631    1.111   1_556 S
C1479  H1481   1.112   .     S
C1479  C1482   1.523   .     S
C1479  H634    1.112   1_556 S
C1482  H1483   1.110   .     S
C1482  H920    1.109   1_565 S
C1482  H639    1.110   1_556 S
O1486  C1487   1.418   .     S
C1487  H1489   1.116   .     S
C1487  C1490   1.533   .     S
H1488  C641    1.111   1_556 S
C1490  H1491   1.110   .     S
C1490  H1492   1.108   .     S
C1490  C1681   1.521   1_455 S
C1493  H1494   1.107   .     S
C1493  H1495   1.110   .     S
C1493  H1496   1.109   .     S
C1493  C1584   1.521   .     S
C1505  O1542   1.286   .     A
C1505  C1530   1.442   .     S
C1505  O1539   1.285   .     A
C1506  O1540   1.285   .     A
C1506  O1541   1.288   .     A
C1506  C1529   1.445   .     S
C1507  O1546   1.296   .     A
C1507  C1525   1.476   .     S
C1507  O1543   1.294   .     A
C1508  O1545   1.298   .     A
C1508  O1544   1.297   .     A
C1508  C1526   1.485   .     S
C1509  H1533   1.080   .     S
C1509  N1538   1.366   .     A
C1510  H1534   1.081   .     S
C1510  N1537   1.366   .     A
C1510  C947    1.414   1_565 S
C1511  H1535   1.081   .     S
C1511  N1538   1.367   .     A
C1512  H1536   1.081   .     S
C1512  N1537   1.366   .     A
C1512  C945    1.413   1_565 S
C1513  Br1595  1.932   .     S
C1513  C1530   1.405   .     A
C1514  Br1596  1.924   .     S
C1514  C1529   1.404   .     A
C1514  C1610   1.395   .     S
C1515  Br1597  1.932   .     S
C1515  C1529   1.405   .     A
C1515  C1607   1.398   .     S
C1516  Br1598  1.932   .     S
C1516  C1530   1.404   .     A
C1517  C1527   1.415   .     A
C1517  O1547   1.388   .     S
C1517  C1521   1.398   .     A
C1518  C1522   1.398   .     A
C1518  C1528   1.408   .     A
C1518  O1558   1.386   .     S
C1519  C1523   1.402   .     A
C1519  O1569   1.384   .     S
C1519  C1528   1.406   .     A
C1520  O1580   1.386   .     S
C1520  C1524   1.395   .     A
C1520  C1527   1.408   .     A
C1521  C1525   1.419   .     A
C1521  Br1591  1.934   .     S
C1522  C1526   1.422   .     A
C1522  Br1592  1.938   .     S
C1523  C1526   1.425   .     A
C1523  Br1593  1.938   .     S
C1524  Br1594  1.931   .     S
C1524  C1525   1.417   .     A
C1528  C681    1.479   1_556 S
Cu1531 N1537   2.007   .     S
Cu1531 O1543   1.966   .     S
Cu1531 O1539   1.956   .     S
Cu1531 O1545   1.968   .     S
Cu1531 O1541   1.959   .     S
Cu1531 Cu1532  2.671   .     S
Cu1532 O1544   1.966   .     S
Cu1532 N1538   2.007   .     S
Cu1532 O1542   1.959   .     S
Cu1532 O1546   1.968   .     S
Cu1532 O1540   1.956   .     S
C1548  H1550   1.111   .     S
C1548  H1549   1.111   .     S
C1548  O701    1.416   1_556 S
C1548  C705    1.528   1_556 S
C1551  H1553   1.109   .     S
C1551  H1552   1.110   .     S
C1554  H1557   1.110   .     S
C1554  H1555   1.110   .     S
C1554  C705    1.526   1_556 S
C1554  H804    1.109   1_556 S
O1558  C1559   1.414   .     S
C1559  H1561   1.118   .     S
C1559  C1562   1.529   .     S
C1559  H714    1.112   1_556 S
C1562  H1564   1.111   .     S
C1562  C1565   1.523   .     S
C1562  H717    1.112   1_556 S
C1565  H1566   1.111   .     S
C1565  H722    1.109   1_556 S
H1567  C1001   1.107   1_565 S
O1569  C1570   1.410   .     S
C1570  H1572   1.117   .     S
C1570  C1573   1.530   .     S
C1570  H725    1.111   1_556 S
C1573  H1575   1.112   .     S
C1573  C1576   1.523   .     S
C1573  H728    1.112   1_556 S
C1576  H1577   1.110   .     S
C1576  H1014   1.109   1_565 S
C1576  H733    1.110   1_556 S
O1580  C1581   1.418   .     S
C1581  H1583   1.116   .     S
C1581  C1584   1.533   .     S
H1582  C735    1.111   1_556 S
C1584  H1585   1.110   .     S
C1584  H1586   1.108   .     S
C1587  H1588   1.107   .     S
C1587  H1589   1.110   .     S
C1587  H1590   1.109   .     S
C1587  C1678   1.521   .     S
C1599  O1636   1.286   .     A
C1599  C1624   1.442   .     S
C1599  O1633   1.285   .     A
C1600  O1634   1.285   .     A
C1600  O1635   1.288   .     A
C1600  C1623   1.445   .     S
C1601  O1640   1.296   .     A
C1601  C1619   1.476   .     S
C1601  O1637   1.294   .     A
C1602  O1639   1.298   .     A
C1602  O1638   1.297   .     A
C1602  C1620   1.485   .     S
C1603  H1627   1.080   .     S
C1603  N1632   1.366   .     A
C1604  H1628   1.081   .     S
C1604  N1631   1.366   .     A
C1604  C1041   1.414   1_565 S
C1605  H1629   1.081   .     S
C1605  N1632   1.367   .     A
C1606  H1630   1.081   .     S
C1606  N1631   1.366   .     A
C1606  C1039   1.413   1_565 S
C1607  Br1689  1.932   .     S
C1607  C1624   1.405   .     A
C1608  Br1690  1.924   .     S
C1608  C1623   1.404   .     A
C1608  C1422   1.395   1_655 S
C1609  Br1691  1.932   .     S
C1609  C1623   1.405   .     A
C1609  C1419   1.398   1_655 S
C1610  Br1692  1.932   .     S
C1610  C1624   1.404   .     A
C1611  C1621   1.415   .     A
C1611  O1641   1.388   .     S
C1611  C1615   1.398   .     A
C1612  C1616   1.398   .     A
C1612  C1622   1.408   .     A
C1612  O1652   1.386   .     S
C1613  C1617   1.402   .     A
C1613  O1663   1.384   .     S
C1613  C1622   1.406   .     A
C1614  O1674   1.386   .     S
C1614  C1618   1.395   .     A
C1614  C1621   1.408   .     A
C1615  C1619   1.419   .     A
C1615  Br1685  1.934   .     S
C1616  C1620   1.422   .     A
C1616  Br1686  1.938   .     S
C1617  C1620   1.425   .     A
C1617  Br1687  1.938   .     S
C1618  Br1688  1.931   .     S
C1618  C1619   1.417   .     A
C1622  C775    1.479   1_556 S
Cu1625 N1631   2.007   .     S
Cu1625 O1637   1.966   .     S
Cu1625 O1633   1.956   .     S
Cu1625 O1639   1.968   .     S
Cu1625 O1635   1.959   .     S
Cu1625 Cu1626  2.671   .     S
Cu1626 O1638   1.966   .     S
Cu1626 N1632   2.007   .     S
Cu1626 O1636   1.959   .     S
Cu1626 O1640   1.968   .     S
Cu1626 O1634   1.956   .     S
C1642  H1644   1.111   .     S
C1642  H1643   1.111   .     S
C1642  O795    1.416   1_556 S
C1642  C799    1.528   1_556 S
C1645  H1647   1.109   .     S
C1645  H1646   1.110   .     S
C1648  H1651   1.110   .     S
C1648  H1649   1.110   .     S
C1648  C799    1.526   1_556 S
C1648  H616    1.109   1_656 S
O1652  C1653   1.414   .     S
C1653  H1655   1.118   .     S
C1653  C1656   1.529   .     S
C1653  H808    1.112   1_556 S
C1656  H1658   1.111   .     S
C1656  C1659   1.523   .     S
C1656  H811    1.112   1_556 S
C1659  H1660   1.111   .     S
C1659  H816    1.109   1_556 S
H1661  C1095   1.107   1_565 S
O1663  C1664   1.410   .     S
C1664  H1666   1.117   .     S
C1664  C1667   1.530   .     S
C1664  H819    1.111   1_556 S
C1667  H1669   1.112   .     S
C1667  C1670   1.523   .     S
C1667  H822    1.112   1_556 S
C1670  H1671   1.110   .     S
C1670  H1108   1.109   1_565 S
C1670  H827    1.110   1_556 S
O1674  C1675   1.418   .     S
C1675  H1677   1.116   .     S
C1675  C1678   1.533   .     S
H1676  C829    1.111   1_556 S
C1678  H1679   1.110   .     S
C1678  H1680   1.108   .     S
C1681  H1682   1.107   .     S
C1681  H1683   1.110   .     S
C1681  H1684   1.109   .     S
C1681  C1490   1.521   1_655 S
