data_str_m2_o10_o16_pcu_sym.81
_audit_creation_date              2020-01-03
_audit_creation_method            'Materials Studio'
_symmetry_space_group_name_H-M    'P1'
_symmetry_Int_Tables_number       1
_symmetry_cell_setting            triclinic
loop_
_symmetry_equiv_pos_as_xyz
  x,y,z
_cell_length_a                    22.7527
_cell_length_b                    25.9955
_cell_length_c                    26.8784
_cell_angle_alpha                 94.2823
_cell_angle_beta                  79.9498
_cell_angle_gamma                 103.0286
loop_
_atom_site_label
_atom_site_type_symbol
_atom_site_fract_x
_atom_site_fract_y
_atom_site_fract_z
_atom_site_U_iso_or_equiv
_atom_site_adp_type
_atom_site_occupancy
C1     C     0.18166   0.26655   0.25160   0.00000  Uiso   1.00
C2     C     0.11811   0.14642   0.40017   0.00000  Uiso   1.00
C3     C     0.18993   0.32266   0.25238   0.00000  Uiso   1.00
C4     C     0.13458   0.15849   0.34596   0.00000  Uiso   1.00
C5     C     0.14334   0.01067   0.24784   0.00000  Uiso   1.00
C6     C     0.15165   0.06678   0.24848   0.00000  Uiso   1.00
C7     C     0.19871   0.17024   0.15375   0.00000  Uiso   1.00
C8     C     0.28438   0.20720   0.02578   0.00000  Uiso   1.00
C9     C     0.21469   0.17352   0.09930   0.00000  Uiso   1.00
C10    C     0.06628   0.16113   0.42613   0.00000  Uiso   1.00
C11    C     0.03986   0.13553   0.47127   0.00000  Uiso   1.00
C12    C     0.14037   0.13240   0.48384   0.00000  Uiso   1.00
C13    C     0.07670   0.11944   0.00055   0.00000  Uiso   1.00
C14    C     0.15992   0.13708   0.43068   0.00000  Uiso   1.00
C15    C     0.18419   0.15187   0.01645   0.00000  Uiso   1.00
C16    C     0.24311   0.17941   0.49494   0.00000  Uiso   1.00
C17    C     0.26093   0.17615   0.44284   0.00000  Uiso   1.00
C18    C     0.22256   0.14542   0.41299   0.00000  Uiso   1.00
C19    C     0.17046   0.15072   0.06912   0.00000  Uiso   1.00
C20    C     0.27123   0.20266   0.07764   0.00000  Uiso   1.00
Cu21   Cu    0.10710   0.16105   0.24435   0.00000  Uiso   1.00
Cu22   Cu    0.22623   0.17228   0.25564   0.00000  Uiso   1.00
H23    H     0.30459   0.22274   0.10081   0.00000  Uiso   1.00
H24    H     0.23476   0.01318   0.25664   0.00000  Uiso   1.00
H25    H     0.09850   0.32016   0.24361   0.00000  Uiso   1.00
H26    H     0.00364   0.20655   0.28980   0.00000  Uiso   1.00
H27    H     0.32966   0.12673   0.21025   0.00000  Uiso   1.00
H28    H     0.30469   0.19560   0.42458   0.00000  Uiso   1.00
H29    H     0.32778   0.23085   0.01017   0.00000  Uiso   1.00
H30    H     0.12585   0.13239   0.08753   0.00000  Uiso   1.00
H31    H     0.32450   0.12195   0.48031   0.00000  Uiso   1.00
H32    H     0.24246   0.13577   0.37510   0.00000  Uiso   1.00
I33    I     0.08815   0.24626   0.42836   0.00000  Uiso   1.00
I34    I     0.03133   0.06294   0.05585   0.00000  Uiso   1.00
N35    N     0.31574   0.18074   0.26416   0.00000  Uiso   1.00
N36    N     0.01759   0.15259   0.23584   0.00000  Uiso   1.00
O37    O     0.12797   0.23807   0.24633   0.00000  Uiso   1.00
O38    O     0.22858   0.24755   0.25586   0.00000  Uiso   1.00
O39    O     0.09181   0.15960   0.31839   0.00000  Uiso   1.00
O40    O     0.19242   0.16908   0.32793   0.00000  Uiso   1.00
O41    O     0.10476   0.08578   0.24413   0.00000  Uiso   1.00
O42    O     0.20536   0.09526   0.25367   0.00000  Uiso   1.00
O43    O     0.14092   0.16425   0.17207   0.00000  Uiso   1.00
O44    O     0.24152   0.17373   0.18160   0.00000  Uiso   1.00
C45    C     0.51500   0.26655   0.25160   0.00000  Uiso   1.00
C46    C     0.45145   0.14642   0.40017   0.00000  Uiso   1.00
C47    C     0.52326   0.32266   0.25238   0.00000  Uiso   1.00
C48    C     0.46792   0.15849   0.34596   0.00000  Uiso   1.00
C49    C     0.47667   0.01067   0.24784   0.00000  Uiso   1.00
C50    C     0.48498   0.06678   0.24848   0.00000  Uiso   1.00
C51    C     0.53204   0.17024   0.15375   0.00000  Uiso   1.00
C52    C     0.61772   0.20720   0.02578   0.00000  Uiso   1.00
C53    C     0.54802   0.17352   0.09930   0.00000  Uiso   1.00
C54    C     0.39961   0.16113   0.42613   0.00000  Uiso   1.00
C55    C     0.37320   0.13553   0.47127   0.00000  Uiso   1.00
C56    C     0.47370   0.13240   0.48384   0.00000  Uiso   1.00
C57    C     0.41003   0.11944   0.00055   0.00000  Uiso   1.00
C58    C     0.49325   0.13708   0.43068   0.00000  Uiso   1.00
C59    C     0.51753   0.15187   0.01645   0.00000  Uiso   1.00
C60    C     0.57645   0.17941   0.49494   0.00000  Uiso   1.00
C61    C     0.59427   0.17615   0.44284   0.00000  Uiso   1.00
C62    C     0.55589   0.14542   0.41299   0.00000  Uiso   1.00
C63    C     0.50379   0.15072   0.06912   0.00000  Uiso   1.00
C64    C     0.60456   0.20266   0.07764   0.00000  Uiso   1.00
Cu65   Cu    0.44043   0.16105   0.24435   0.00000  Uiso   1.00
Cu66   Cu    0.55957   0.17228   0.25564   0.00000  Uiso   1.00
H67    H     0.63792   0.22274   0.10081   0.00000  Uiso   1.00
H68    H     0.56809   0.01318   0.25664   0.00000  Uiso   1.00
H69    H     0.43183   0.32016   0.24361   0.00000  Uiso   1.00
H70    H     0.33697   0.20655   0.28980   0.00000  Uiso   1.00
H71    H     0.66300   0.12673   0.21025   0.00000  Uiso   1.00
H72    H     0.63802   0.19560   0.42458   0.00000  Uiso   1.00
H73    H     0.66112   0.23085   0.01017   0.00000  Uiso   1.00
H74    H     0.45919   0.13239   0.08753   0.00000  Uiso   1.00
H75    H     0.65783   0.12195   0.48031   0.00000  Uiso   1.00
H76    H     0.57579   0.13577   0.37510   0.00000  Uiso   1.00
I77    I     0.42148   0.24626   0.42836   0.00000  Uiso   1.00
I78    I     0.36466   0.06294   0.05585   0.00000  Uiso   1.00
N79    N     0.64908   0.18074   0.26416   0.00000  Uiso   1.00
N80    N     0.35092   0.15259   0.23584   0.00000  Uiso   1.00
O81    O     0.46131   0.23807   0.24633   0.00000  Uiso   1.00
O82    O     0.56191   0.24755   0.25586   0.00000  Uiso   1.00
O83    O     0.42515   0.15960   0.31839   0.00000  Uiso   1.00
O84    O     0.52575   0.16908   0.32793   0.00000  Uiso   1.00
O85    O     0.43809   0.08578   0.24413   0.00000  Uiso   1.00
O86    O     0.53869   0.09526   0.25367   0.00000  Uiso   1.00
O87    O     0.47425   0.16425   0.17207   0.00000  Uiso   1.00
O88    O     0.57485   0.17373   0.18160   0.00000  Uiso   1.00
C89    C     0.84833   0.26655   0.25160   0.00000  Uiso   1.00
C90    C     0.78478   0.14642   0.40017   0.00000  Uiso   1.00
C91    C     0.85659   0.32266   0.25238   0.00000  Uiso   1.00
C92    C     0.80125   0.15849   0.34596   0.00000  Uiso   1.00
C93    C     0.81000   0.01067   0.24784   0.00000  Uiso   1.00
C94    C     0.81831   0.06678   0.24848   0.00000  Uiso   1.00
C95    C     0.86538   0.17024   0.15375   0.00000  Uiso   1.00
C96    C     0.95105   0.20720   0.02578   0.00000  Uiso   1.00
C97    C     0.88136   0.17352   0.09930   0.00000  Uiso   1.00
C98    C     0.73295   0.16113   0.42613   0.00000  Uiso   1.00
C99    C     0.70653   0.13553   0.47127   0.00000  Uiso   1.00
C100   C     0.80704   0.13240   0.48384   0.00000  Uiso   1.00
C101   C     0.74337   0.11944   0.00055   0.00000  Uiso   1.00
C102   C     0.82658   0.13708   0.43068   0.00000  Uiso   1.00
C103   C     0.85086   0.15187   0.01645   0.00000  Uiso   1.00
C104   C     0.90978   0.17941   0.49494   0.00000  Uiso   1.00
C105   C     0.92760   0.17615   0.44284   0.00000  Uiso   1.00
C106   C     0.88922   0.14542   0.41299   0.00000  Uiso   1.00
C107   C     0.83713   0.15072   0.06912   0.00000  Uiso   1.00
C108   C     0.93790   0.20266   0.07764   0.00000  Uiso   1.00
Cu109  Cu    0.77377   0.16105   0.24435   0.00000  Uiso   1.00
Cu110  Cu    0.89290   0.17228   0.25564   0.00000  Uiso   1.00
H111   H     0.97126   0.22274   0.10081   0.00000  Uiso   1.00
H112   H     0.90143   0.01318   0.25664   0.00000  Uiso   1.00
H113   H     0.76516   0.32016   0.24361   0.00000  Uiso   1.00
H114   H     0.67031   0.20655   0.28980   0.00000  Uiso   1.00
H115   H     0.99633   0.12673   0.21025   0.00000  Uiso   1.00
H116   H     0.97136   0.19560   0.42458   0.00000  Uiso   1.00
H117   H     0.99445   0.23085   0.01017   0.00000  Uiso   1.00
H118   H     0.79252   0.13239   0.08753   0.00000  Uiso   1.00
H119   H     0.99117   0.12195   0.48031   0.00000  Uiso   1.00
H120   H     0.90912   0.13577   0.37510   0.00000  Uiso   1.00
I121   I     0.75482   0.24626   0.42836   0.00000  Uiso   1.00
I122   I     0.69799   0.06294   0.05585   0.00000  Uiso   1.00
N123   N     0.98241   0.18074   0.26416   0.00000  Uiso   1.00
N124   N     0.68426   0.15259   0.23584   0.00000  Uiso   1.00
O125   O     0.79464   0.23807   0.24633   0.00000  Uiso   1.00
O126   O     0.89524   0.24755   0.25586   0.00000  Uiso   1.00
O127   O     0.75848   0.15960   0.31839   0.00000  Uiso   1.00
O128   O     0.85908   0.16908   0.32793   0.00000  Uiso   1.00
O129   O     0.77142   0.08578   0.24413   0.00000  Uiso   1.00
O130   O     0.87203   0.09526   0.25367   0.00000  Uiso   1.00
O131   O     0.80758   0.16425   0.17207   0.00000  Uiso   1.00
O132   O     0.90819   0.17373   0.18160   0.00000  Uiso   1.00
C133   C     0.18166   0.59989   0.25160   0.00000  Uiso   1.00
C134   C     0.11811   0.47976   0.40017   0.00000  Uiso   1.00
C135   C     0.18993   0.65600   0.25238   0.00000  Uiso   1.00
C136   C     0.13458   0.49183   0.34596   0.00000  Uiso   1.00
C137   C     0.14334   0.34400   0.24784   0.00000  Uiso   1.00
C138   C     0.15165   0.40011   0.24848   0.00000  Uiso   1.00
C139   C     0.19871   0.50357   0.15375   0.00000  Uiso   1.00
C140   C     0.28438   0.54053   0.02578   0.00000  Uiso   1.00
C141   C     0.21469   0.50685   0.09930   0.00000  Uiso   1.00
C142   C     0.06628   0.49446   0.42613   0.00000  Uiso   1.00
C143   C     0.03986   0.46886   0.47127   0.00000  Uiso   1.00
C144   C     0.14037   0.46573   0.48384   0.00000  Uiso   1.00
C145   C     0.07670   0.45278   0.00055   0.00000  Uiso   1.00
C146   C     0.15992   0.47042   0.43068   0.00000  Uiso   1.00
C147   C     0.18419   0.48520   0.01645   0.00000  Uiso   1.00
C148   C     0.24311   0.51274   0.49494   0.00000  Uiso   1.00
C149   C     0.26093   0.50949   0.44284   0.00000  Uiso   1.00
C150   C     0.22256   0.47875   0.41299   0.00000  Uiso   1.00
C151   C     0.17046   0.48405   0.06912   0.00000  Uiso   1.00
C152   C     0.27123   0.53599   0.07764   0.00000  Uiso   1.00
Cu153  Cu    0.10710   0.49439   0.24435   0.00000  Uiso   1.00
Cu154  Cu    0.22623   0.50561   0.25564   0.00000  Uiso   1.00
H155   H     0.30459   0.55607   0.10081   0.00000  Uiso   1.00
H156   H     0.23476   0.34651   0.25664   0.00000  Uiso   1.00
H157   H     0.09850   0.65349   0.24361   0.00000  Uiso   1.00
H158   H     0.00364   0.53988   0.28980   0.00000  Uiso   1.00
H159   H     0.32966   0.46006   0.21025   0.00000  Uiso   1.00
H160   H     0.30469   0.52893   0.42458   0.00000  Uiso   1.00
H161   H     0.32778   0.56418   0.01017   0.00000  Uiso   1.00
H162   H     0.12585   0.46572   0.08753   0.00000  Uiso   1.00
H163   H     0.32450   0.45529   0.48031   0.00000  Uiso   1.00
H164   H     0.24246   0.46910   0.37510   0.00000  Uiso   1.00
I165   I     0.08815   0.57959   0.42836   0.00000  Uiso   1.00
I166   I     0.03133   0.39627   0.05585   0.00000  Uiso   1.00
N167   N     0.31574   0.51407   0.26416   0.00000  Uiso   1.00
N168   N     0.01759   0.48593   0.23584   0.00000  Uiso   1.00
O169   O     0.12797   0.57141   0.24633   0.00000  Uiso   1.00
O170   O     0.22858   0.58089   0.25586   0.00000  Uiso   1.00
O171   O     0.09181   0.49293   0.31839   0.00000  Uiso   1.00
O172   O     0.19242   0.50241   0.32793   0.00000  Uiso   1.00
O173   O     0.10476   0.41911   0.24413   0.00000  Uiso   1.00
O174   O     0.20536   0.42859   0.25367   0.00000  Uiso   1.00
O175   O     0.14092   0.49759   0.17207   0.00000  Uiso   1.00
O176   O     0.24152   0.50707   0.18160   0.00000  Uiso   1.00
C177   C     0.51500   0.59989   0.25160   0.00000  Uiso   1.00
C178   C     0.45145   0.47976   0.40017   0.00000  Uiso   1.00
C179   C     0.52326   0.65600   0.25238   0.00000  Uiso   1.00
C180   C     0.46792   0.49183   0.34596   0.00000  Uiso   1.00
C181   C     0.47667   0.34400   0.24784   0.00000  Uiso   1.00
C182   C     0.48498   0.40011   0.24848   0.00000  Uiso   1.00
C183   C     0.53204   0.50357   0.15375   0.00000  Uiso   1.00
C184   C     0.61772   0.54053   0.02578   0.00000  Uiso   1.00
C185   C     0.54802   0.50685   0.09930   0.00000  Uiso   1.00
C186   C     0.39961   0.49446   0.42613   0.00000  Uiso   1.00
C187   C     0.37320   0.46886   0.47127   0.00000  Uiso   1.00
C188   C     0.47370   0.46573   0.48384   0.00000  Uiso   1.00
C189   C     0.41003   0.45278   0.00055   0.00000  Uiso   1.00
C190   C     0.49325   0.47042   0.43068   0.00000  Uiso   1.00
C191   C     0.51753   0.48520   0.01645   0.00000  Uiso   1.00
C192   C     0.57645   0.51274   0.49494   0.00000  Uiso   1.00
C193   C     0.59427   0.50949   0.44284   0.00000  Uiso   1.00
C194   C     0.55589   0.47875   0.41299   0.00000  Uiso   1.00
C195   C     0.50379   0.48405   0.06912   0.00000  Uiso   1.00
C196   C     0.60456   0.53599   0.07764   0.00000  Uiso   1.00
Cu197  Cu    0.44043   0.49439   0.24435   0.00000  Uiso   1.00
Cu198  Cu    0.55957   0.50561   0.25564   0.00000  Uiso   1.00
H199   H     0.63792   0.55607   0.10081   0.00000  Uiso   1.00
H200   H     0.56809   0.34651   0.25664   0.00000  Uiso   1.00
H201   H     0.43183   0.65349   0.24361   0.00000  Uiso   1.00
H202   H     0.33697   0.53988   0.28980   0.00000  Uiso   1.00
H203   H     0.66300   0.46006   0.21025   0.00000  Uiso   1.00
H204   H     0.63802   0.52893   0.42458   0.00000  Uiso   1.00
H205   H     0.66112   0.56418   0.01017   0.00000  Uiso   1.00
H206   H     0.45919   0.46572   0.08753   0.00000  Uiso   1.00
H207   H     0.65783   0.45529   0.48031   0.00000  Uiso   1.00
H208   H     0.57579   0.46910   0.37510   0.00000  Uiso   1.00
I209   I     0.42148   0.57959   0.42836   0.00000  Uiso   1.00
I210   I     0.36466   0.39627   0.05585   0.00000  Uiso   1.00
N211   N     0.64908   0.51407   0.26416   0.00000  Uiso   1.00
N212   N     0.35092   0.48593   0.23584   0.00000  Uiso   1.00
O213   O     0.46131   0.57141   0.24633   0.00000  Uiso   1.00
O214   O     0.56191   0.58089   0.25586   0.00000  Uiso   1.00
O215   O     0.42515   0.49293   0.31839   0.00000  Uiso   1.00
O216   O     0.52575   0.50241   0.32793   0.00000  Uiso   1.00
O217   O     0.43809   0.41911   0.24413   0.00000  Uiso   1.00
O218   O     0.53869   0.42859   0.25367   0.00000  Uiso   1.00
O219   O     0.47425   0.49759   0.17207   0.00000  Uiso   1.00
O220   O     0.57485   0.50707   0.18160   0.00000  Uiso   1.00
C221   C     0.84833   0.59989   0.25160   0.00000  Uiso   1.00
C222   C     0.78478   0.47976   0.40017   0.00000  Uiso   1.00
C223   C     0.85659   0.65600   0.25238   0.00000  Uiso   1.00
C224   C     0.80125   0.49183   0.34596   0.00000  Uiso   1.00
C225   C     0.81000   0.34400   0.24784   0.00000  Uiso   1.00
C226   C     0.81831   0.40011   0.24848   0.00000  Uiso   1.00
C227   C     0.86538   0.50357   0.15375   0.00000  Uiso   1.00
C228   C     0.95105   0.54053   0.02578   0.00000  Uiso   1.00
C229   C     0.88136   0.50685   0.09930   0.00000  Uiso   1.00
C230   C     0.73295   0.49446   0.42613   0.00000  Uiso   1.00
C231   C     0.70653   0.46886   0.47127   0.00000  Uiso   1.00
C232   C     0.80704   0.46573   0.48384   0.00000  Uiso   1.00
C233   C     0.74337   0.45278   0.00055   0.00000  Uiso   1.00
C234   C     0.82658   0.47042   0.43068   0.00000  Uiso   1.00
C235   C     0.85086   0.48520   0.01645   0.00000  Uiso   1.00
C236   C     0.90978   0.51274   0.49494   0.00000  Uiso   1.00
C237   C     0.92760   0.50949   0.44284   0.00000  Uiso   1.00
C238   C     0.88922   0.47875   0.41299   0.00000  Uiso   1.00
C239   C     0.83713   0.48405   0.06912   0.00000  Uiso   1.00
C240   C     0.93790   0.53599   0.07764   0.00000  Uiso   1.00
Cu241  Cu    0.77377   0.49439   0.24435   0.00000  Uiso   1.00
Cu242  Cu    0.89290   0.50561   0.25564   0.00000  Uiso   1.00
H243   H     0.97126   0.55607   0.10081   0.00000  Uiso   1.00
H244   H     0.90143   0.34651   0.25664   0.00000  Uiso   1.00
H245   H     0.76516   0.65349   0.24361   0.00000  Uiso   1.00
H246   H     0.67031   0.53988   0.28980   0.00000  Uiso   1.00
H247   H     0.99633   0.46006   0.21025   0.00000  Uiso   1.00
H248   H     0.97136   0.52893   0.42458   0.00000  Uiso   1.00
H249   H     0.99445   0.56418   0.01017   0.00000  Uiso   1.00
H250   H     0.79252   0.46572   0.08753   0.00000  Uiso   1.00
H251   H     0.99117   0.45529   0.48031   0.00000  Uiso   1.00
H252   H     0.90912   0.46910   0.37510   0.00000  Uiso   1.00
I253   I     0.75482   0.57959   0.42836   0.00000  Uiso   1.00
I254   I     0.69799   0.39627   0.05585   0.00000  Uiso   1.00
N255   N     0.98241   0.51407   0.26416   0.00000  Uiso   1.00
N256   N     0.68426   0.48593   0.23584   0.00000  Uiso   1.00
O257   O     0.79464   0.57141   0.24633   0.00000  Uiso   1.00
O258   O     0.89524   0.58089   0.25586   0.00000  Uiso   1.00
O259   O     0.75848   0.49293   0.31839   0.00000  Uiso   1.00
O260   O     0.85908   0.50241   0.32793   0.00000  Uiso   1.00
O261   O     0.77142   0.41911   0.24413   0.00000  Uiso   1.00
O262   O     0.87203   0.42859   0.25367   0.00000  Uiso   1.00
O263   O     0.80758   0.49759   0.17207   0.00000  Uiso   1.00
O264   O     0.90819   0.50707   0.18160   0.00000  Uiso   1.00
C265   C     0.18166   0.93322   0.25160   0.00000  Uiso   1.00
C266   C     0.11811   0.81309   0.40017   0.00000  Uiso   1.00
C267   C     0.18993   0.98933   0.25238   0.00000  Uiso   1.00
C268   C     0.13458   0.82516   0.34596   0.00000  Uiso   1.00
C269   C     0.14334   0.67734   0.24784   0.00000  Uiso   1.00
C270   C     0.15165   0.73344   0.24848   0.00000  Uiso   1.00
C271   C     0.19871   0.83690   0.15375   0.00000  Uiso   1.00
C272   C     0.28438   0.87386   0.02578   0.00000  Uiso   1.00
C273   C     0.21469   0.84019   0.09930   0.00000  Uiso   1.00
C274   C     0.06628   0.82779   0.42613   0.00000  Uiso   1.00
C275   C     0.03986   0.80220   0.47127   0.00000  Uiso   1.00
C276   C     0.14037   0.79907   0.48384   0.00000  Uiso   1.00
C277   C     0.07670   0.78611   0.00055   0.00000  Uiso   1.00
C278   C     0.15992   0.80375   0.43068   0.00000  Uiso   1.00
C279   C     0.18419   0.81853   0.01645   0.00000  Uiso   1.00
C280   C     0.24311   0.84608   0.49494   0.00000  Uiso   1.00
C281   C     0.26093   0.84282   0.44284   0.00000  Uiso   1.00
C282   C     0.22256   0.81209   0.41299   0.00000  Uiso   1.00
C283   C     0.17046   0.81738   0.06912   0.00000  Uiso   1.00
C284   C     0.27123   0.86932   0.07764   0.00000  Uiso   1.00
Cu285  Cu    0.10710   0.82772   0.24435   0.00000  Uiso   1.00
Cu286  Cu    0.22623   0.83895   0.25564   0.00000  Uiso   1.00
H287   H     0.30459   0.88941   0.10081   0.00000  Uiso   1.00
H288   H     0.23476   0.67984   0.25664   0.00000  Uiso   1.00
H289   H     0.09850   0.98683   0.24361   0.00000  Uiso   1.00
H290   H     0.00364   0.87322   0.28980   0.00000  Uiso   1.00
H291   H     0.32966   0.79339   0.21025   0.00000  Uiso   1.00
H292   H     0.30469   0.86227   0.42458   0.00000  Uiso   1.00
H293   H     0.32778   0.89752   0.01017   0.00000  Uiso   1.00
H294   H     0.12585   0.79906   0.08753   0.00000  Uiso   1.00
H295   H     0.32450   0.78862   0.48031   0.00000  Uiso   1.00
H296   H     0.24246   0.80243   0.37510   0.00000  Uiso   1.00
I297   I     0.08815   0.91292   0.42836   0.00000  Uiso   1.00
I298   I     0.03133   0.72961   0.05585   0.00000  Uiso   1.00
N299   N     0.31574   0.84741   0.26416   0.00000  Uiso   1.00
N300   N     0.01759   0.81926   0.23584   0.00000  Uiso   1.00
O301   O     0.12797   0.90474   0.24633   0.00000  Uiso   1.00
O302   O     0.22858   0.91422   0.25586   0.00000  Uiso   1.00
O303   O     0.09181   0.82627   0.31839   0.00000  Uiso   1.00
O304   O     0.19242   0.83575   0.32793   0.00000  Uiso   1.00
O305   O     0.10476   0.75245   0.24413   0.00000  Uiso   1.00
O306   O     0.20536   0.76193   0.25367   0.00000  Uiso   1.00
O307   O     0.14092   0.83092   0.17207   0.00000  Uiso   1.00
O308   O     0.24152   0.84040   0.18160   0.00000  Uiso   1.00
C309   C     0.51500   0.93322   0.25160   0.00000  Uiso   1.00
C310   C     0.45145   0.81309   0.40017   0.00000  Uiso   1.00
C311   C     0.52326   0.98933   0.25238   0.00000  Uiso   1.00
C312   C     0.46792   0.82516   0.34596   0.00000  Uiso   1.00
C313   C     0.47667   0.67734   0.24784   0.00000  Uiso   1.00
C314   C     0.48498   0.73344   0.24848   0.00000  Uiso   1.00
C315   C     0.53204   0.83690   0.15375   0.00000  Uiso   1.00
C316   C     0.61772   0.87386   0.02578   0.00000  Uiso   1.00
C317   C     0.54802   0.84019   0.09930   0.00000  Uiso   1.00
C318   C     0.39961   0.82779   0.42613   0.00000  Uiso   1.00
C319   C     0.37320   0.80220   0.47127   0.00000  Uiso   1.00
C320   C     0.47370   0.79907   0.48384   0.00000  Uiso   1.00
C321   C     0.41003   0.78611   0.00055   0.00000  Uiso   1.00
C322   C     0.49325   0.80375   0.43068   0.00000  Uiso   1.00
C323   C     0.51753   0.81853   0.01645   0.00000  Uiso   1.00
C324   C     0.57645   0.84608   0.49494   0.00000  Uiso   1.00
C325   C     0.59427   0.84282   0.44284   0.00000  Uiso   1.00
C326   C     0.55589   0.81209   0.41299   0.00000  Uiso   1.00
C327   C     0.50379   0.81738   0.06912   0.00000  Uiso   1.00
C328   C     0.60456   0.86932   0.07764   0.00000  Uiso   1.00
Cu329  Cu    0.44043   0.82772   0.24435   0.00000  Uiso   1.00
Cu330  Cu    0.55957   0.83895   0.25564   0.00000  Uiso   1.00
H331   H     0.63792   0.88941   0.10081   0.00000  Uiso   1.00
H332   H     0.56809   0.67984   0.25664   0.00000  Uiso   1.00
H333   H     0.43183   0.98683   0.24361   0.00000  Uiso   1.00
H334   H     0.33697   0.87322   0.28980   0.00000  Uiso   1.00
H335   H     0.66300   0.79339   0.21025   0.00000  Uiso   1.00
H336   H     0.63802   0.86227   0.42458   0.00000  Uiso   1.00
H337   H     0.66112   0.89752   0.01017   0.00000  Uiso   1.00
H338   H     0.45919   0.79906   0.08753   0.00000  Uiso   1.00
H339   H     0.65783   0.78862   0.48031   0.00000  Uiso   1.00
H340   H     0.57579   0.80243   0.37510   0.00000  Uiso   1.00
I341   I     0.42148   0.91292   0.42836   0.00000  Uiso   1.00
I342   I     0.36466   0.72961   0.05585   0.00000  Uiso   1.00
N343   N     0.64908   0.84741   0.26416   0.00000  Uiso   1.00
N344   N     0.35092   0.81926   0.23584   0.00000  Uiso   1.00
O345   O     0.46131   0.90474   0.24633   0.00000  Uiso   1.00
O346   O     0.56191   0.91422   0.25586   0.00000  Uiso   1.00
O347   O     0.42515   0.82627   0.31839   0.00000  Uiso   1.00
O348   O     0.52575   0.83575   0.32793   0.00000  Uiso   1.00
O349   O     0.43809   0.75245   0.24413   0.00000  Uiso   1.00
O350   O     0.53869   0.76193   0.25367   0.00000  Uiso   1.00
O351   O     0.47425   0.83092   0.17207   0.00000  Uiso   1.00
O352   O     0.57485   0.84040   0.18160   0.00000  Uiso   1.00
C353   C     0.84833   0.93322   0.25160   0.00000  Uiso   1.00
C354   C     0.78478   0.81309   0.40017   0.00000  Uiso   1.00
C355   C     0.85659   0.98933   0.25238   0.00000  Uiso   1.00
C356   C     0.80125   0.82516   0.34596   0.00000  Uiso   1.00
C357   C     0.81000   0.67734   0.24784   0.00000  Uiso   1.00
C358   C     0.81831   0.73344   0.24848   0.00000  Uiso   1.00
C359   C     0.86538   0.83690   0.15375   0.00000  Uiso   1.00
C360   C     0.95105   0.87386   0.02578   0.00000  Uiso   1.00
C361   C     0.88136   0.84019   0.09930   0.00000  Uiso   1.00
C362   C     0.73295   0.82779   0.42613   0.00000  Uiso   1.00
C363   C     0.70653   0.80220   0.47127   0.00000  Uiso   1.00
C364   C     0.80704   0.79907   0.48384   0.00000  Uiso   1.00
C365   C     0.74337   0.78611   0.00055   0.00000  Uiso   1.00
C366   C     0.82658   0.80375   0.43068   0.00000  Uiso   1.00
C367   C     0.85086   0.81853   0.01645   0.00000  Uiso   1.00
C368   C     0.90978   0.84608   0.49494   0.00000  Uiso   1.00
C369   C     0.92760   0.84282   0.44284   0.00000  Uiso   1.00
C370   C     0.88922   0.81209   0.41299   0.00000  Uiso   1.00
C371   C     0.83713   0.81738   0.06912   0.00000  Uiso   1.00
C372   C     0.93790   0.86932   0.07764   0.00000  Uiso   1.00
Cu373  Cu    0.77377   0.82772   0.24435   0.00000  Uiso   1.00
Cu374  Cu    0.89290   0.83895   0.25564   0.00000  Uiso   1.00
H375   H     0.97126   0.88941   0.10081   0.00000  Uiso   1.00
H376   H     0.90143   0.67984   0.25664   0.00000  Uiso   1.00
H377   H     0.76516   0.98683   0.24361   0.00000  Uiso   1.00
H378   H     0.67031   0.87322   0.28980   0.00000  Uiso   1.00
H379   H     0.99633   0.79339   0.21025   0.00000  Uiso   1.00
H380   H     0.97136   0.86227   0.42458   0.00000  Uiso   1.00
H381   H     0.99445   0.89752   0.01017   0.00000  Uiso   1.00
H382   H     0.79252   0.79906   0.08753   0.00000  Uiso   1.00
H383   H     0.99117   0.78862   0.48031   0.00000  Uiso   1.00
H384   H     0.90912   0.80243   0.37510   0.00000  Uiso   1.00
I385   I     0.75482   0.91292   0.42836   0.00000  Uiso   1.00
I386   I     0.69799   0.72961   0.05585   0.00000  Uiso   1.00
N387   N     0.98241   0.84741   0.26416   0.00000  Uiso   1.00
N388   N     0.68426   0.81926   0.23584   0.00000  Uiso   1.00
O389   O     0.79464   0.90474   0.24633   0.00000  Uiso   1.00
O390   O     0.89524   0.91422   0.25586   0.00000  Uiso   1.00
O391   O     0.75848   0.82627   0.31839   0.00000  Uiso   1.00
O392   O     0.85908   0.83575   0.32793   0.00000  Uiso   1.00
O393   O     0.77142   0.75245   0.24413   0.00000  Uiso   1.00
O394   O     0.87203   0.76193   0.25367   0.00000  Uiso   1.00
O395   O     0.80758   0.83092   0.17207   0.00000  Uiso   1.00
O396   O     0.90819   0.84040   0.18160   0.00000  Uiso   1.00
C397   C     0.18166   0.26655   0.75160   0.00000  Uiso   1.00
C398   C     0.11811   0.14642   0.90017   0.00000  Uiso   1.00
C399   C     0.18993   0.32266   0.75238   0.00000  Uiso   1.00
C400   C     0.13458   0.15849   0.84596   0.00000  Uiso   1.00
C401   C     0.14334   0.01067   0.74784   0.00000  Uiso   1.00
C402   C     0.15165   0.06678   0.74848   0.00000  Uiso   1.00
C403   C     0.19871   0.17024   0.65375   0.00000  Uiso   1.00
C404   C     0.28438   0.20720   0.52578   0.00000  Uiso   1.00
C405   C     0.21469   0.17352   0.59930   0.00000  Uiso   1.00
C406   C     0.06628   0.16113   0.92613   0.00000  Uiso   1.00
C407   C     0.03986   0.13553   0.97127   0.00000  Uiso   1.00
C408   C     0.14037   0.13240   0.98384   0.00000  Uiso   1.00
C409   C     0.07670   0.11944   0.50055   0.00000  Uiso   1.00
C410   C     0.15992   0.13708   0.93068   0.00000  Uiso   1.00
C411   C     0.18419   0.15187   0.51645   0.00000  Uiso   1.00
C412   C     0.24311   0.17941   0.99494   0.00000  Uiso   1.00
C413   C     0.26093   0.17615   0.94284   0.00000  Uiso   1.00
C414   C     0.22256   0.14542   0.91299   0.00000  Uiso   1.00
C415   C     0.17046   0.15072   0.56912   0.00000  Uiso   1.00
C416   C     0.27123   0.20266   0.57764   0.00000  Uiso   1.00
Cu417  Cu    0.10710   0.16105   0.74435   0.00000  Uiso   1.00
Cu418  Cu    0.22623   0.17228   0.75564   0.00000  Uiso   1.00
H419   H     0.30459   0.22274   0.60081   0.00000  Uiso   1.00
H420   H     0.23476   0.01318   0.75664   0.00000  Uiso   1.00
H421   H     0.09850   0.32016   0.74361   0.00000  Uiso   1.00
H422   H     0.00364   0.20655   0.78980   0.00000  Uiso   1.00
H423   H     0.32966   0.12673   0.71025   0.00000  Uiso   1.00
H424   H     0.30469   0.19560   0.92458   0.00000  Uiso   1.00
H425   H     0.32778   0.23085   0.51017   0.00000  Uiso   1.00
H426   H     0.12585   0.13239   0.58753   0.00000  Uiso   1.00
H427   H     0.32450   0.12195   0.98031   0.00000  Uiso   1.00
H428   H     0.24246   0.13577   0.87510   0.00000  Uiso   1.00
I429   I     0.08815   0.24626   0.92836   0.00000  Uiso   1.00
I430   I     0.03133   0.06294   0.55585   0.00000  Uiso   1.00
N431   N     0.31574   0.18074   0.76416   0.00000  Uiso   1.00
N432   N     0.01759   0.15259   0.73584   0.00000  Uiso   1.00
O433   O     0.12797   0.23807   0.74633   0.00000  Uiso   1.00
O434   O     0.22858   0.24755   0.75586   0.00000  Uiso   1.00
O435   O     0.09181   0.15960   0.81839   0.00000  Uiso   1.00
O436   O     0.19242   0.16908   0.82793   0.00000  Uiso   1.00
O437   O     0.10476   0.08578   0.74413   0.00000  Uiso   1.00
O438   O     0.20536   0.09526   0.75367   0.00000  Uiso   1.00
O439   O     0.14092   0.16425   0.67207   0.00000  Uiso   1.00
O440   O     0.24152   0.17373   0.68160   0.00000  Uiso   1.00
C441   C     0.51500   0.26655   0.75160   0.00000  Uiso   1.00
C442   C     0.45145   0.14642   0.90017   0.00000  Uiso   1.00
C443   C     0.52326   0.32266   0.75238   0.00000  Uiso   1.00
C444   C     0.46792   0.15849   0.84596   0.00000  Uiso   1.00
C445   C     0.47667   0.01067   0.74784   0.00000  Uiso   1.00
C446   C     0.48498   0.06678   0.74848   0.00000  Uiso   1.00
C447   C     0.53204   0.17024   0.65375   0.00000  Uiso   1.00
C448   C     0.61772   0.20720   0.52578   0.00000  Uiso   1.00
C449   C     0.54802   0.17352   0.59930   0.00000  Uiso   1.00
C450   C     0.39961   0.16113   0.92613   0.00000  Uiso   1.00
C451   C     0.37320   0.13553   0.97127   0.00000  Uiso   1.00
C452   C     0.47370   0.13240   0.98384   0.00000  Uiso   1.00
C453   C     0.41003   0.11944   0.50055   0.00000  Uiso   1.00
C454   C     0.49325   0.13708   0.93068   0.00000  Uiso   1.00
C455   C     0.51753   0.15187   0.51645   0.00000  Uiso   1.00
C456   C     0.57645   0.17941   0.99494   0.00000  Uiso   1.00
C457   C     0.59427   0.17615   0.94284   0.00000  Uiso   1.00
C458   C     0.55589   0.14542   0.91299   0.00000  Uiso   1.00
C459   C     0.50379   0.15072   0.56912   0.00000  Uiso   1.00
C460   C     0.60456   0.20266   0.57764   0.00000  Uiso   1.00
Cu461  Cu    0.44043   0.16105   0.74435   0.00000  Uiso   1.00
Cu462  Cu    0.55957   0.17228   0.75564   0.00000  Uiso   1.00
H463   H     0.63792   0.22274   0.60081   0.00000  Uiso   1.00
H464   H     0.56809   0.01318   0.75664   0.00000  Uiso   1.00
H465   H     0.43183   0.32016   0.74361   0.00000  Uiso   1.00
H466   H     0.33697   0.20655   0.78980   0.00000  Uiso   1.00
H467   H     0.66300   0.12673   0.71025   0.00000  Uiso   1.00
H468   H     0.63802   0.19560   0.92458   0.00000  Uiso   1.00
H469   H     0.66112   0.23085   0.51017   0.00000  Uiso   1.00
H470   H     0.45919   0.13239   0.58753   0.00000  Uiso   1.00
H471   H     0.65783   0.12195   0.98031   0.00000  Uiso   1.00
H472   H     0.57579   0.13577   0.87510   0.00000  Uiso   1.00
I473   I     0.42148   0.24626   0.92836   0.00000  Uiso   1.00
I474   I     0.36466   0.06294   0.55585   0.00000  Uiso   1.00
N475   N     0.64908   0.18074   0.76416   0.00000  Uiso   1.00
N476   N     0.35092   0.15259   0.73584   0.00000  Uiso   1.00
O477   O     0.46131   0.23807   0.74633   0.00000  Uiso   1.00
O478   O     0.56191   0.24755   0.75586   0.00000  Uiso   1.00
O479   O     0.42515   0.15960   0.81839   0.00000  Uiso   1.00
O480   O     0.52575   0.16908   0.82793   0.00000  Uiso   1.00
O481   O     0.43809   0.08578   0.74413   0.00000  Uiso   1.00
O482   O     0.53869   0.09526   0.75367   0.00000  Uiso   1.00
O483   O     0.47425   0.16425   0.67207   0.00000  Uiso   1.00
O484   O     0.57485   0.17373   0.68160   0.00000  Uiso   1.00
C485   C     0.84833   0.26655   0.75160   0.00000  Uiso   1.00
C486   C     0.78478   0.14642   0.90017   0.00000  Uiso   1.00
C487   C     0.85659   0.32266   0.75238   0.00000  Uiso   1.00
C488   C     0.80125   0.15849   0.84596   0.00000  Uiso   1.00
C489   C     0.81000   0.01067   0.74784   0.00000  Uiso   1.00
C490   C     0.81831   0.06678   0.74848   0.00000  Uiso   1.00
C491   C     0.86538   0.17024   0.65375   0.00000  Uiso   1.00
C492   C     0.95105   0.20720   0.52578   0.00000  Uiso   1.00
C493   C     0.88136   0.17352   0.59930   0.00000  Uiso   1.00
C494   C     0.73295   0.16113   0.92613   0.00000  Uiso   1.00
C495   C     0.70653   0.13553   0.97127   0.00000  Uiso   1.00
C496   C     0.80704   0.13240   0.98384   0.00000  Uiso   1.00
C497   C     0.74337   0.11944   0.50055   0.00000  Uiso   1.00
C498   C     0.82658   0.13708   0.93068   0.00000  Uiso   1.00
C499   C     0.85086   0.15187   0.51645   0.00000  Uiso   1.00
C500   C     0.90978   0.17941   0.99494   0.00000  Uiso   1.00
C501   C     0.92760   0.17615   0.94284   0.00000  Uiso   1.00
C502   C     0.88922   0.14542   0.91299   0.00000  Uiso   1.00
C503   C     0.83713   0.15072   0.56912   0.00000  Uiso   1.00
C504   C     0.93790   0.20266   0.57764   0.00000  Uiso   1.00
Cu505  Cu    0.77377   0.16105   0.74435   0.00000  Uiso   1.00
Cu506  Cu    0.89290   0.17228   0.75564   0.00000  Uiso   1.00
H507   H     0.97126   0.22274   0.60081   0.00000  Uiso   1.00
H508   H     0.90143   0.01318   0.75664   0.00000  Uiso   1.00
H509   H     0.76516   0.32016   0.74361   0.00000  Uiso   1.00
H510   H     0.67031   0.20655   0.78980   0.00000  Uiso   1.00
H511   H     0.99633   0.12673   0.71025   0.00000  Uiso   1.00
H512   H     0.97136   0.19560   0.92458   0.00000  Uiso   1.00
H513   H     0.99445   0.23085   0.51017   0.00000  Uiso   1.00
H514   H     0.79252   0.13239   0.58753   0.00000  Uiso   1.00
H515   H     0.99117   0.12195   0.98031   0.00000  Uiso   1.00
H516   H     0.90912   0.13577   0.87510   0.00000  Uiso   1.00
I517   I     0.75482   0.24626   0.92836   0.00000  Uiso   1.00
I518   I     0.69799   0.06294   0.55585   0.00000  Uiso   1.00
N519   N     0.98241   0.18074   0.76416   0.00000  Uiso   1.00
N520   N     0.68426   0.15259   0.73584   0.00000  Uiso   1.00
O521   O     0.79464   0.23807   0.74633   0.00000  Uiso   1.00
O522   O     0.89524   0.24755   0.75586   0.00000  Uiso   1.00
O523   O     0.75848   0.15960   0.81839   0.00000  Uiso   1.00
O524   O     0.85908   0.16908   0.82793   0.00000  Uiso   1.00
O525   O     0.77142   0.08578   0.74413   0.00000  Uiso   1.00
O526   O     0.87203   0.09526   0.75367   0.00000  Uiso   1.00
O527   O     0.80758   0.16425   0.67207   0.00000  Uiso   1.00
O528   O     0.90819   0.17373   0.68160   0.00000  Uiso   1.00
C529   C     0.18166   0.59989   0.75160   0.00000  Uiso   1.00
C530   C     0.11811   0.47976   0.90017   0.00000  Uiso   1.00
C531   C     0.18993   0.65600   0.75238   0.00000  Uiso   1.00
C532   C     0.13458   0.49183   0.84596   0.00000  Uiso   1.00
C533   C     0.14334   0.34400   0.74784   0.00000  Uiso   1.00
C534   C     0.15165   0.40011   0.74848   0.00000  Uiso   1.00
C535   C     0.19871   0.50357   0.65375   0.00000  Uiso   1.00
C536   C     0.28438   0.54053   0.52578   0.00000  Uiso   1.00
C537   C     0.21469   0.50685   0.59930   0.00000  Uiso   1.00
C538   C     0.06628   0.49446   0.92613   0.00000  Uiso   1.00
C539   C     0.03986   0.46886   0.97127   0.00000  Uiso   1.00
C540   C     0.14037   0.46573   0.98384   0.00000  Uiso   1.00
C541   C     0.07670   0.45278   0.50055   0.00000  Uiso   1.00
C542   C     0.15992   0.47042   0.93068   0.00000  Uiso   1.00
C543   C     0.18419   0.48520   0.51645   0.00000  Uiso   1.00
C544   C     0.24311   0.51274   0.99494   0.00000  Uiso   1.00
C545   C     0.26093   0.50949   0.94284   0.00000  Uiso   1.00
C546   C     0.22256   0.47875   0.91299   0.00000  Uiso   1.00
C547   C     0.17046   0.48405   0.56912   0.00000  Uiso   1.00
C548   C     0.27123   0.53599   0.57764   0.00000  Uiso   1.00
Cu549  Cu    0.10710   0.49439   0.74435   0.00000  Uiso   1.00
Cu550  Cu    0.22623   0.50561   0.75564   0.00000  Uiso   1.00
H551   H     0.30459   0.55607   0.60081   0.00000  Uiso   1.00
H552   H     0.23476   0.34651   0.75664   0.00000  Uiso   1.00
H553   H     0.09850   0.65349   0.74361   0.00000  Uiso   1.00
H554   H     0.00364   0.53988   0.78980   0.00000  Uiso   1.00
H555   H     0.32966   0.46006   0.71025   0.00000  Uiso   1.00
H556   H     0.30469   0.52893   0.92458   0.00000  Uiso   1.00
H557   H     0.32778   0.56418   0.51017   0.00000  Uiso   1.00
H558   H     0.12585   0.46572   0.58753   0.00000  Uiso   1.00
H559   H     0.32450   0.45529   0.98031   0.00000  Uiso   1.00
H560   H     0.24246   0.46910   0.87510   0.00000  Uiso   1.00
I561   I     0.08815   0.57959   0.92836   0.00000  Uiso   1.00
I562   I     0.03133   0.39627   0.55585   0.00000  Uiso   1.00
N563   N     0.31574   0.51407   0.76416   0.00000  Uiso   1.00
N564   N     0.01759   0.48593   0.73584   0.00000  Uiso   1.00
O565   O     0.12797   0.57141   0.74633   0.00000  Uiso   1.00
O566   O     0.22858   0.58089   0.75586   0.00000  Uiso   1.00
O567   O     0.09181   0.49293   0.81839   0.00000  Uiso   1.00
O568   O     0.19242   0.50241   0.82793   0.00000  Uiso   1.00
O569   O     0.10476   0.41911   0.74413   0.00000  Uiso   1.00
O570   O     0.20536   0.42859   0.75367   0.00000  Uiso   1.00
O571   O     0.14092   0.49759   0.67207   0.00000  Uiso   1.00
O572   O     0.24152   0.50707   0.68160   0.00000  Uiso   1.00
C573   C     0.51500   0.59989   0.75160   0.00000  Uiso   1.00
C574   C     0.45145   0.47976   0.90017   0.00000  Uiso   1.00
C575   C     0.52326   0.65600   0.75238   0.00000  Uiso   1.00
C576   C     0.46792   0.49183   0.84596   0.00000  Uiso   1.00
C577   C     0.47667   0.34400   0.74784   0.00000  Uiso   1.00
C578   C     0.48498   0.40011   0.74848   0.00000  Uiso   1.00
C579   C     0.53204   0.50357   0.65375   0.00000  Uiso   1.00
C580   C     0.61772   0.54053   0.52578   0.00000  Uiso   1.00
C581   C     0.54802   0.50685   0.59930   0.00000  Uiso   1.00
C582   C     0.39961   0.49446   0.92613   0.00000  Uiso   1.00
C583   C     0.37320   0.46886   0.97127   0.00000  Uiso   1.00
C584   C     0.47370   0.46573   0.98384   0.00000  Uiso   1.00
C585   C     0.41003   0.45278   0.50055   0.00000  Uiso   1.00
C586   C     0.49325   0.47042   0.93068   0.00000  Uiso   1.00
C587   C     0.51753   0.48520   0.51645   0.00000  Uiso   1.00
C588   C     0.57645   0.51274   0.99494   0.00000  Uiso   1.00
C589   C     0.59427   0.50949   0.94284   0.00000  Uiso   1.00
C590   C     0.55589   0.47875   0.91299   0.00000  Uiso   1.00
C591   C     0.50379   0.48405   0.56912   0.00000  Uiso   1.00
C592   C     0.60456   0.53599   0.57764   0.00000  Uiso   1.00
Cu593  Cu    0.44043   0.49439   0.74435   0.00000  Uiso   1.00
Cu594  Cu    0.55957   0.50561   0.75564   0.00000  Uiso   1.00
H595   H     0.63792   0.55607   0.60081   0.00000  Uiso   1.00
H596   H     0.56809   0.34651   0.75664   0.00000  Uiso   1.00
H597   H     0.43183   0.65349   0.74361   0.00000  Uiso   1.00
H598   H     0.33697   0.53988   0.78980   0.00000  Uiso   1.00
H599   H     0.66300   0.46006   0.71025   0.00000  Uiso   1.00
H600   H     0.63802   0.52893   0.92458   0.00000  Uiso   1.00
H601   H     0.66112   0.56418   0.51017   0.00000  Uiso   1.00
H602   H     0.45919   0.46572   0.58753   0.00000  Uiso   1.00
H603   H     0.65783   0.45529   0.98031   0.00000  Uiso   1.00
H604   H     0.57579   0.46910   0.87510   0.00000  Uiso   1.00
I605   I     0.42148   0.57959   0.92836   0.00000  Uiso   1.00
I606   I     0.36466   0.39627   0.55585   0.00000  Uiso   1.00
N607   N     0.64908   0.51407   0.76416   0.00000  Uiso   1.00
N608   N     0.35092   0.48593   0.73584   0.00000  Uiso   1.00
O609   O     0.46131   0.57141   0.74633   0.00000  Uiso   1.00
O610   O     0.56191   0.58089   0.75586   0.00000  Uiso   1.00
O611   O     0.42515   0.49293   0.81839   0.00000  Uiso   1.00
O612   O     0.52575   0.50241   0.82793   0.00000  Uiso   1.00
O613   O     0.43809   0.41911   0.74413   0.00000  Uiso   1.00
O614   O     0.53869   0.42859   0.75367   0.00000  Uiso   1.00
O615   O     0.47425   0.49759   0.67207   0.00000  Uiso   1.00
O616   O     0.57485   0.50707   0.68160   0.00000  Uiso   1.00
C617   C     0.84833   0.59989   0.75160   0.00000  Uiso   1.00
C618   C     0.78478   0.47976   0.90017   0.00000  Uiso   1.00
C619   C     0.85659   0.65600   0.75238   0.00000  Uiso   1.00
C620   C     0.80125   0.49183   0.84596   0.00000  Uiso   1.00
C621   C     0.81000   0.34400   0.74784   0.00000  Uiso   1.00
C622   C     0.81831   0.40011   0.74848   0.00000  Uiso   1.00
C623   C     0.86538   0.50357   0.65375   0.00000  Uiso   1.00
C624   C     0.95105   0.54053   0.52578   0.00000  Uiso   1.00
C625   C     0.88136   0.50685   0.59930   0.00000  Uiso   1.00
C626   C     0.73295   0.49446   0.92613   0.00000  Uiso   1.00
C627   C     0.70653   0.46886   0.97127   0.00000  Uiso   1.00
C628   C     0.80704   0.46573   0.98384   0.00000  Uiso   1.00
C629   C     0.74337   0.45278   0.50055   0.00000  Uiso   1.00
C630   C     0.82658   0.47042   0.93068   0.00000  Uiso   1.00
C631   C     0.85086   0.48520   0.51645   0.00000  Uiso   1.00
C632   C     0.90978   0.51274   0.99494   0.00000  Uiso   1.00
C633   C     0.92760   0.50949   0.94284   0.00000  Uiso   1.00
C634   C     0.88922   0.47875   0.91299   0.00000  Uiso   1.00
C635   C     0.83713   0.48405   0.56912   0.00000  Uiso   1.00
C636   C     0.93790   0.53599   0.57764   0.00000  Uiso   1.00
Cu637  Cu    0.77377   0.49439   0.74435   0.00000  Uiso   1.00
Cu638  Cu    0.89290   0.50561   0.75564   0.00000  Uiso   1.00
H639   H     0.97126   0.55607   0.60081   0.00000  Uiso   1.00
H640   H     0.90143   0.34651   0.75664   0.00000  Uiso   1.00
H641   H     0.76516   0.65349   0.74361   0.00000  Uiso   1.00
H642   H     0.67031   0.53988   0.78980   0.00000  Uiso   1.00
H643   H     0.99633   0.46006   0.71025   0.00000  Uiso   1.00
H644   H     0.97136   0.52893   0.92458   0.00000  Uiso   1.00
H645   H     0.99445   0.56418   0.51017   0.00000  Uiso   1.00
H646   H     0.79252   0.46572   0.58753   0.00000  Uiso   1.00
H647   H     0.99117   0.45529   0.98031   0.00000  Uiso   1.00
H648   H     0.90912   0.46910   0.87510   0.00000  Uiso   1.00
I649   I     0.75482   0.57959   0.92836   0.00000  Uiso   1.00
I650   I     0.69799   0.39627   0.55585   0.00000  Uiso   1.00
N651   N     0.98241   0.51407   0.76416   0.00000  Uiso   1.00
N652   N     0.68426   0.48593   0.73584   0.00000  Uiso   1.00
O653   O     0.79464   0.57141   0.74633   0.00000  Uiso   1.00
O654   O     0.89524   0.58089   0.75586   0.00000  Uiso   1.00
O655   O     0.75848   0.49293   0.81839   0.00000  Uiso   1.00
O656   O     0.85908   0.50241   0.82793   0.00000  Uiso   1.00
O657   O     0.77142   0.41911   0.74413   0.00000  Uiso   1.00
O658   O     0.87203   0.42859   0.75367   0.00000  Uiso   1.00
O659   O     0.80758   0.49759   0.67207   0.00000  Uiso   1.00
O660   O     0.90819   0.50707   0.68160   0.00000  Uiso   1.00
C661   C     0.18166   0.93322   0.75160   0.00000  Uiso   1.00
C662   C     0.11811   0.81309   0.90017   0.00000  Uiso   1.00
C663   C     0.18993   0.98933   0.75238   0.00000  Uiso   1.00
C664   C     0.13458   0.82516   0.84596   0.00000  Uiso   1.00
C665   C     0.14334   0.67734   0.74784   0.00000  Uiso   1.00
C666   C     0.15165   0.73344   0.74848   0.00000  Uiso   1.00
C667   C     0.19871   0.83690   0.65375   0.00000  Uiso   1.00
C668   C     0.28438   0.87386   0.52578   0.00000  Uiso   1.00
C669   C     0.21469   0.84019   0.59930   0.00000  Uiso   1.00
C670   C     0.06628   0.82779   0.92613   0.00000  Uiso   1.00
C671   C     0.03986   0.80220   0.97127   0.00000  Uiso   1.00
C672   C     0.14037   0.79907   0.98384   0.00000  Uiso   1.00
C673   C     0.07670   0.78611   0.50055   0.00000  Uiso   1.00
C674   C     0.15992   0.80375   0.93068   0.00000  Uiso   1.00
C675   C     0.18419   0.81853   0.51645   0.00000  Uiso   1.00
C676   C     0.24311   0.84608   0.99494   0.00000  Uiso   1.00
C677   C     0.26093   0.84282   0.94284   0.00000  Uiso   1.00
C678   C     0.22256   0.81209   0.91299   0.00000  Uiso   1.00
C679   C     0.17046   0.81738   0.56912   0.00000  Uiso   1.00
C680   C     0.27123   0.86932   0.57764   0.00000  Uiso   1.00
Cu681  Cu    0.10710   0.82772   0.74435   0.00000  Uiso   1.00
Cu682  Cu    0.22623   0.83895   0.75564   0.00000  Uiso   1.00
H683   H     0.30459   0.88941   0.60081   0.00000  Uiso   1.00
H684   H     0.23476   0.67984   0.75664   0.00000  Uiso   1.00
H685   H     0.09850   0.98683   0.74361   0.00000  Uiso   1.00
H686   H     0.00364   0.87322   0.78980   0.00000  Uiso   1.00
H687   H     0.32966   0.79339   0.71025   0.00000  Uiso   1.00
H688   H     0.30469   0.86227   0.92458   0.00000  Uiso   1.00
H689   H     0.32778   0.89752   0.51017   0.00000  Uiso   1.00
H690   H     0.12585   0.79906   0.58753   0.00000  Uiso   1.00
H691   H     0.32450   0.78862   0.98031   0.00000  Uiso   1.00
H692   H     0.24246   0.80243   0.87510   0.00000  Uiso   1.00
I693   I     0.08815   0.91292   0.92836   0.00000  Uiso   1.00
I694   I     0.03133   0.72961   0.55585   0.00000  Uiso   1.00
N695   N     0.31574   0.84741   0.76416   0.00000  Uiso   1.00
N696   N     0.01759   0.81926   0.73584   0.00000  Uiso   1.00
O697   O     0.12797   0.90474   0.74633   0.00000  Uiso   1.00
O698   O     0.22858   0.91422   0.75586   0.00000  Uiso   1.00
O699   O     0.09181   0.82627   0.81839   0.00000  Uiso   1.00
O700   O     0.19242   0.83575   0.82793   0.00000  Uiso   1.00
O701   O     0.10476   0.75245   0.74413   0.00000  Uiso   1.00
O702   O     0.20536   0.76193   0.75367   0.00000  Uiso   1.00
O703   O     0.14092   0.83092   0.67207   0.00000  Uiso   1.00
O704   O     0.24152   0.84040   0.68160   0.00000  Uiso   1.00
C705   C     0.51500   0.93322   0.75160   0.00000  Uiso   1.00
C706   C     0.45145   0.81309   0.90017   0.00000  Uiso   1.00
C707   C     0.52326   0.98933   0.75238   0.00000  Uiso   1.00
C708   C     0.46792   0.82516   0.84596   0.00000  Uiso   1.00
C709   C     0.47667   0.67734   0.74784   0.00000  Uiso   1.00
C710   C     0.48498   0.73344   0.74848   0.00000  Uiso   1.00
C711   C     0.53204   0.83690   0.65375   0.00000  Uiso   1.00
C712   C     0.61772   0.87386   0.52578   0.00000  Uiso   1.00
C713   C     0.54802   0.84019   0.59930   0.00000  Uiso   1.00
C714   C     0.39961   0.82779   0.92613   0.00000  Uiso   1.00
C715   C     0.37320   0.80220   0.97127   0.00000  Uiso   1.00
C716   C     0.47370   0.79907   0.98384   0.00000  Uiso   1.00
C717   C     0.41003   0.78611   0.50055   0.00000  Uiso   1.00
C718   C     0.49325   0.80375   0.93068   0.00000  Uiso   1.00
C719   C     0.51753   0.81853   0.51645   0.00000  Uiso   1.00
C720   C     0.57645   0.84608   0.99494   0.00000  Uiso   1.00
C721   C     0.59427   0.84282   0.94284   0.00000  Uiso   1.00
C722   C     0.55589   0.81209   0.91299   0.00000  Uiso   1.00
C723   C     0.50379   0.81738   0.56912   0.00000  Uiso   1.00
C724   C     0.60456   0.86932   0.57764   0.00000  Uiso   1.00
Cu725  Cu    0.44043   0.82772   0.74435   0.00000  Uiso   1.00
Cu726  Cu    0.55957   0.83895   0.75564   0.00000  Uiso   1.00
H727   H     0.63792   0.88941   0.60081   0.00000  Uiso   1.00
H728   H     0.56809   0.67984   0.75664   0.00000  Uiso   1.00
H729   H     0.43183   0.98683   0.74361   0.00000  Uiso   1.00
H730   H     0.33697   0.87322   0.78980   0.00000  Uiso   1.00
H731   H     0.66300   0.79339   0.71025   0.00000  Uiso   1.00
H732   H     0.63802   0.86227   0.92458   0.00000  Uiso   1.00
H733   H     0.66112   0.89752   0.51017   0.00000  Uiso   1.00
H734   H     0.45919   0.79906   0.58753   0.00000  Uiso   1.00
H735   H     0.65783   0.78862   0.98031   0.00000  Uiso   1.00
H736   H     0.57579   0.80243   0.87510   0.00000  Uiso   1.00
I737   I     0.42148   0.91292   0.92836   0.00000  Uiso   1.00
I738   I     0.36466   0.72961   0.55585   0.00000  Uiso   1.00
N739   N     0.64908   0.84741   0.76416   0.00000  Uiso   1.00
N740   N     0.35092   0.81926   0.73584   0.00000  Uiso   1.00
O741   O     0.46131   0.90474   0.74633   0.00000  Uiso   1.00
O742   O     0.56191   0.91422   0.75586   0.00000  Uiso   1.00
O743   O     0.42515   0.82627   0.81839   0.00000  Uiso   1.00
O744   O     0.52575   0.83575   0.82793   0.00000  Uiso   1.00
O745   O     0.43809   0.75245   0.74413   0.00000  Uiso   1.00
O746   O     0.53869   0.76193   0.75367   0.00000  Uiso   1.00
O747   O     0.47425   0.83092   0.67207   0.00000  Uiso   1.00
O748   O     0.57485   0.84040   0.68160   0.00000  Uiso   1.00
C749   C     0.84833   0.93322   0.75160   0.00000  Uiso   1.00
C750   C     0.78478   0.81309   0.90017   0.00000  Uiso   1.00
C751   C     0.85659   0.98933   0.75238   0.00000  Uiso   1.00
C752   C     0.80125   0.82516   0.84596   0.00000  Uiso   1.00
C753   C     0.81000   0.67734   0.74784   0.00000  Uiso   1.00
C754   C     0.81831   0.73344   0.74848   0.00000  Uiso   1.00
C755   C     0.86538   0.83690   0.65375   0.00000  Uiso   1.00
C756   C     0.95105   0.87386   0.52578   0.00000  Uiso   1.00
C757   C     0.88136   0.84019   0.59930   0.00000  Uiso   1.00
C758   C     0.73295   0.82779   0.92613   0.00000  Uiso   1.00
C759   C     0.70653   0.80220   0.97127   0.00000  Uiso   1.00
C760   C     0.80704   0.79907   0.98384   0.00000  Uiso   1.00
C761   C     0.74337   0.78611   0.50055   0.00000  Uiso   1.00
C762   C     0.82658   0.80375   0.93068   0.00000  Uiso   1.00
C763   C     0.85086   0.81853   0.51645   0.00000  Uiso   1.00
C764   C     0.90978   0.84608   0.99494   0.00000  Uiso   1.00
C765   C     0.92760   0.84282   0.94284   0.00000  Uiso   1.00
C766   C     0.88922   0.81209   0.91299   0.00000  Uiso   1.00
C767   C     0.83713   0.81738   0.56912   0.00000  Uiso   1.00
C768   C     0.93790   0.86932   0.57764   0.00000  Uiso   1.00
Cu769  Cu    0.77377   0.82772   0.74435   0.00000  Uiso   1.00
Cu770  Cu    0.89290   0.83895   0.75564   0.00000  Uiso   1.00
H771   H     0.97126   0.88941   0.60081   0.00000  Uiso   1.00
H772   H     0.90143   0.67984   0.75664   0.00000  Uiso   1.00
H773   H     0.76516   0.98683   0.74361   0.00000  Uiso   1.00
H774   H     0.67031   0.87322   0.78980   0.00000  Uiso   1.00
H775   H     0.99633   0.79339   0.71025   0.00000  Uiso   1.00
H776   H     0.97136   0.86227   0.92458   0.00000  Uiso   1.00
H777   H     0.99445   0.89752   0.51017   0.00000  Uiso   1.00
H778   H     0.79252   0.79906   0.58753   0.00000  Uiso   1.00
H779   H     0.99117   0.78862   0.98031   0.00000  Uiso   1.00
H780   H     0.90912   0.80243   0.87510   0.00000  Uiso   1.00
I781   I     0.75482   0.91292   0.92836   0.00000  Uiso   1.00
I782   I     0.69799   0.72961   0.55585   0.00000  Uiso   1.00
N783   N     0.98241   0.84741   0.76416   0.00000  Uiso   1.00
N784   N     0.68426   0.81926   0.73584   0.00000  Uiso   1.00
O785   O     0.79464   0.90474   0.74633   0.00000  Uiso   1.00
O786   O     0.89524   0.91422   0.75586   0.00000  Uiso   1.00
O787   O     0.75848   0.82627   0.81839   0.00000  Uiso   1.00
O788   O     0.85908   0.83575   0.82793   0.00000  Uiso   1.00
O789   O     0.77142   0.75245   0.74413   0.00000  Uiso   1.00
O790   O     0.87203   0.76193   0.75367   0.00000  Uiso   1.00
O791   O     0.80758   0.83092   0.67207   0.00000  Uiso   1.00
O792   O     0.90819   0.84040   0.68160   0.00000  Uiso   1.00
loop_
_geom_bond_atom_site_label_1
_geom_bond_atom_site_label_2
_geom_bond_distance
_geom_bond_site_symmetry_2
_ccdc_geom_bond_type
C1     O37     1.303   .     A
C1     O38     1.298   .     A
C1     C3      1.427   .     S
C2     C4      1.479   .     S
C2     C14     1.429   .     A
C2     C10     1.378   .     A
C3     C137    1.329   .     S
C3     H156    1.088   .     S
C4     O39     1.328   .     A
C4     O40     1.295   .     A
C5     C6      1.427   .     S
C5     C267    1.329   1_545 S
C5     H289    1.088   1_545 S
C6     O42     1.303   .     A
C6     O41     1.298   .     A
C7     O43     1.300   .     A
C7     O44     1.312   .     A
C7     C9      1.449   .     S
C8     C20     1.382   .     A
C8     H29     1.072   .     S
C8     C412    1.402   1_554 S
C9     C20     1.390   .     A
C9     C19     1.402   .     A
C10    I33     2.155   .     S
C10    C11     1.401   .     A
C11    C409    1.391   .     S
C11    H119    1.074   1_455 S
C12    C14     1.426   .     A
C12    C409    1.410   .     S
C12    C411    1.425   .     S
C13    I34     2.131   .     S
C13    C407    1.391   1_554 S
C13    C408    1.410   1_554 S
C14    C18     1.394   .     A
C15    C19     1.397   .     A
C15    C408    1.425   1_554 S
C15    C412    1.415   1_554 S
C16    C17     1.390   .     A
C16    C404    1.402   .     S
C16    C411    1.415   .     S
C17    H28     1.062   .     S
C17    C18     1.371   .     A
C18    H32     1.076   .     S
C19    H30     1.070   .     S
C20    H23     1.084   .     S
Cu21   O39     1.961   .     S
Cu21   N36     2.050   .     S
Cu21   O41     1.945   .     S
Cu21   Cu22    2.728   .     S
Cu21   O37     1.950   .     S
Cu21   O43     1.961   .     S
Cu22   O40     1.961   .     S
Cu22   N35     2.050   .     S
Cu22   O42     1.950   .     S
Cu22   O44     1.961   .     S
Cu22   O38     1.945   .     S
H24    C267    1.088   1_545 S
H25    C137    1.088   .     S
H26    N123    1.029   1_455 S
H27    N80     1.029   .     S
H31    C55     1.074   .     S
N35    H70     1.029   .     S
N35    N80     1.313   .     S
N36    H115    1.029   1_455 S
N36    N123    1.313   1_455 S
C45    O81     1.303   .     A
C45    O82     1.298   .     A
C45    C47     1.427   .     S
C46    C48     1.479   .     S
C46    C58     1.429   .     A
C46    C54     1.378   .     A
C47    C181    1.329   .     S
C47    H200    1.088   .     S
C48    O83     1.328   .     A
C48    O84     1.295   .     A
C49    C50     1.427   .     S
C49    C311    1.329   1_545 S
C49    H333    1.088   1_545 S
C50    O86     1.303   .     A
C50    O85     1.298   .     A
C51    O87     1.300   .     A
C51    O88     1.312   .     A
C51    C53     1.449   .     S
C52    C64     1.382   .     A
C52    H73     1.072   .     S
C52    C456    1.402   1_554 S
C53    C64     1.390   .     A
C53    C63     1.402   .     A
C54    I77     2.155   .     S
C54    C55     1.401   .     A
C55    C453    1.391   .     S
C56    C58     1.426   .     A
C56    C453    1.410   .     S
C56    C455    1.425   .     S
C57    I78     2.131   .     S
C57    C451    1.391   1_554 S
C57    C452    1.410   1_554 S
C58    C62     1.394   .     A
C59    C63     1.397   .     A
C59    C452    1.425   1_554 S
C59    C456    1.415   1_554 S
C60    C61     1.390   .     A
C60    C448    1.402   .     S
C60    C455    1.415   .     S
C61    H72     1.062   .     S
C61    C62     1.371   .     A
C62    H76     1.076   .     S
C63    H74     1.070   .     S
C64    H67     1.084   .     S
Cu65   O83     1.961   .     S
Cu65   N80     2.050   .     S
Cu65   O85     1.945   .     S
Cu65   Cu66    2.728   .     S
Cu65   O81     1.950   .     S
Cu65   O87     1.961   .     S
Cu66   O84     1.961   .     S
Cu66   N79     2.050   .     S
Cu66   O86     1.950   .     S
Cu66   O88     1.961   .     S
Cu66   O82     1.945   .     S
H68    C311    1.088   1_545 S
H69    C181    1.088   .     S
H71    N124    1.029   .     S
H75    C99     1.074   .     S
N79    H114    1.029   .     S
N79    N124    1.313   .     S
C89    O125    1.303   .     A
C89    O126    1.298   .     A
C89    C91     1.427   .     S
C90    C92     1.479   .     S
C90    C102    1.429   .     A
C90    C98     1.378   .     A
C91    C225    1.329   .     S
C91    H244    1.088   .     S
C92    O127    1.328   .     A
C92    O128    1.295   .     A
C93    C94     1.427   .     S
C93    C355    1.329   1_545 S
C93    H377    1.088   1_545 S
C94    O130    1.303   .     A
C94    O129    1.298   .     A
C95    O131    1.300   .     A
C95    O132    1.312   .     A
C95    C97     1.449   .     S
C96    C108    1.382   .     A
C96    H117    1.072   .     S
C96    C500    1.402   1_554 S
C97    C108    1.390   .     A
C97    C107    1.402   .     A
C98    I121    2.155   .     S
C98    C99     1.401   .     A
C99    C497    1.391   .     S
C100   C102    1.426   .     A
C100   C497    1.410   .     S
C100   C499    1.425   .     S
C101   I122    2.131   .     S
C101   C495    1.391   1_554 S
C101   C496    1.410   1_554 S
C102   C106    1.394   .     A
C103   C107    1.397   .     A
C103   C496    1.425   1_554 S
C103   C500    1.415   1_554 S
C104   C105    1.390   .     A
C104   C492    1.402   .     S
C104   C499    1.415   .     S
C105   H116    1.062   .     S
C105   C106    1.371   .     A
C106   H120    1.076   .     S
C107   H118    1.070   .     S
C108   H111    1.084   .     S
Cu109  O127    1.961   .     S
Cu109  N124    2.050   .     S
Cu109  O129    1.945   .     S
Cu109  Cu110   2.728   .     S
Cu109  O125    1.950   .     S
Cu109  O131    1.961   .     S
Cu110  O128    1.961   .     S
Cu110  N123    2.050   .     S
Cu110  O130    1.950   .     S
Cu110  O132    1.961   .     S
Cu110  O126    1.945   .     S
H112   C355    1.088   1_545 S
H113   C225    1.088   .     S
H115   N36     1.029   1_655 S
H119   C11     1.074   1_655 S
N123   H26     1.029   1_655 S
N123   N36     1.313   1_655 S
C133   O169    1.303   .     A
C133   O170    1.298   .     A
C133   C135    1.427   .     S
C134   C136    1.479   .     S
C134   C146    1.429   .     A
C134   C142    1.378   .     A
C135   C269    1.329   .     S
C135   H288    1.088   .     S
C136   O171    1.328   .     A
C136   O172    1.295   .     A
C137   C138    1.427   .     S
C138   O174    1.303   .     A
C138   O173    1.298   .     A
C139   O175    1.300   .     A
C139   O176    1.312   .     A
C139   C141    1.449   .     S
C140   C152    1.382   .     A
C140   H161    1.072   .     S
C140   C544    1.402   1_554 S
C141   C152    1.390   .     A
C141   C151    1.402   .     A
C142   I165    2.155   .     S
C142   C143    1.401   .     A
C143   C541    1.391   .     S
C143   H251    1.074   1_455 S
C144   C146    1.426   .     A
C144   C541    1.410   .     S
C144   C543    1.425   .     S
C145   I166    2.131   .     S
C145   C539    1.391   1_554 S
C145   C540    1.410   1_554 S
C146   C150    1.394   .     A
C147   C151    1.397   .     A
C147   C540    1.425   1_554 S
C147   C544    1.415   1_554 S
C148   C149    1.390   .     A
C148   C536    1.402   .     S
C148   C543    1.415   .     S
C149   H160    1.062   .     S
C149   C150    1.371   .     A
C150   H164    1.076   .     S
C151   H162    1.070   .     S
C152   H155    1.084   .     S
Cu153  O171    1.961   .     S
Cu153  N168    2.050   .     S
Cu153  O173    1.945   .     S
Cu153  Cu154   2.728   .     S
Cu153  O169    1.950   .     S
Cu153  O175    1.961   .     S
Cu154  O172    1.961   .     S
Cu154  N167    2.050   .     S
Cu154  O174    1.950   .     S
Cu154  O176    1.961   .     S
Cu154  O170    1.945   .     S
H157   C269    1.088   .     S
H158   N255    1.029   1_455 S
H159   N212    1.029   .     S
H163   C187    1.074   .     S
N167   H202    1.029   .     S
N167   N212    1.313   .     S
N168   H247    1.029   1_455 S
N168   N255    1.313   1_455 S
C177   O213    1.303   .     A
C177   O214    1.298   .     A
C177   C179    1.427   .     S
C178   C180    1.479   .     S
C178   C190    1.429   .     A
C178   C186    1.378   .     A
C179   C313    1.329   .     S
C179   H332    1.088   .     S
C180   O215    1.328   .     A
C180   O216    1.295   .     A
C181   C182    1.427   .     S
C182   O218    1.303   .     A
C182   O217    1.298   .     A
C183   O219    1.300   .     A
C183   O220    1.312   .     A
C183   C185    1.449   .     S
C184   C196    1.382   .     A
C184   H205    1.072   .     S
C184   C588    1.402   1_554 S
C185   C196    1.390   .     A
C185   C195    1.402   .     A
C186   I209    2.155   .     S
C186   C187    1.401   .     A
C187   C585    1.391   .     S
C188   C190    1.426   .     A
C188   C585    1.410   .     S
C188   C587    1.425   .     S
C189   I210    2.131   .     S
C189   C583    1.391   1_554 S
C189   C584    1.410   1_554 S
C190   C194    1.394   .     A
C191   C195    1.397   .     A
C191   C584    1.425   1_554 S
C191   C588    1.415   1_554 S
C192   C193    1.390   .     A
C192   C580    1.402   .     S
C192   C587    1.415   .     S
C193   H204    1.062   .     S
C193   C194    1.371   .     A
C194   H208    1.076   .     S
C195   H206    1.070   .     S
C196   H199    1.084   .     S
Cu197  O215    1.961   .     S
Cu197  N212    2.050   .     S
Cu197  O217    1.945   .     S
Cu197  Cu198   2.728   .     S
Cu197  O213    1.950   .     S
Cu197  O219    1.961   .     S
Cu198  O216    1.961   .     S
Cu198  N211    2.050   .     S
Cu198  O218    1.950   .     S
Cu198  O220    1.961   .     S
Cu198  O214    1.945   .     S
H201   C313    1.088   .     S
H203   N256    1.029   .     S
H207   C231    1.074   .     S
N211   H246    1.029   .     S
N211   N256    1.313   .     S
C221   O257    1.303   .     A
C221   O258    1.298   .     A
C221   C223    1.427   .     S
C222   C224    1.479   .     S
C222   C234    1.429   .     A
C222   C230    1.378   .     A
C223   C357    1.329   .     S
C223   H376    1.088   .     S
C224   O259    1.328   .     A
C224   O260    1.295   .     A
C225   C226    1.427   .     S
C226   O262    1.303   .     A
C226   O261    1.298   .     A
C227   O263    1.300   .     A
C227   O264    1.312   .     A
C227   C229    1.449   .     S
C228   C240    1.382   .     A
C228   H249    1.072   .     S
C228   C632    1.402   1_554 S
C229   C240    1.390   .     A
C229   C239    1.402   .     A
C230   I253    2.155   .     S
C230   C231    1.401   .     A
C231   C629    1.391   .     S
C232   C234    1.426   .     A
C232   C629    1.410   .     S
C232   C631    1.425   .     S
C233   I254    2.131   .     S
C233   C627    1.391   1_554 S
C233   C628    1.410   1_554 S
C234   C238    1.394   .     A
C235   C239    1.397   .     A
C235   C628    1.425   1_554 S
C235   C632    1.415   1_554 S
C236   C237    1.390   .     A
C236   C624    1.402   .     S
C236   C631    1.415   .     S
C237   H248    1.062   .     S
C237   C238    1.371   .     A
C238   H252    1.076   .     S
C239   H250    1.070   .     S
C240   H243    1.084   .     S
Cu241  O259    1.961   .     S
Cu241  N256    2.050   .     S
Cu241  O261    1.945   .     S
Cu241  Cu242   2.728   .     S
Cu241  O257    1.950   .     S
Cu241  O263    1.961   .     S
Cu242  O260    1.961   .     S
Cu242  N255    2.050   .     S
Cu242  O262    1.950   .     S
Cu242  O264    1.961   .     S
Cu242  O258    1.945   .     S
H245   C357    1.088   .     S
H247   N168    1.029   1_655 S
H251   C143    1.074   1_655 S
N255   H158    1.029   1_655 S
N255   N168    1.313   1_655 S
C265   O301    1.303   .     A
C265   O302    1.298   .     A
C265   C267    1.427   .     S
C266   C268    1.479   .     S
C266   C278    1.429   .     A
C266   C274    1.378   .     A
C267   C5      1.329   1_565 S
C267   H24     1.088   1_565 S
C268   O303    1.328   .     A
C268   O304    1.295   .     A
C269   C270    1.427   .     S
C270   O306    1.303   .     A
C270   O305    1.298   .     A
C271   O307    1.300   .     A
C271   O308    1.312   .     A
C271   C273    1.449   .     S
C272   C284    1.382   .     A
C272   H293    1.072   .     S
C272   C676    1.402   1_554 S
C273   C284    1.390   .     A
C273   C283    1.402   .     A
C274   I297    2.155   .     S
C274   C275    1.401   .     A
C275   C673    1.391   .     S
C275   H383    1.074   1_455 S
C276   C278    1.426   .     A
C276   C673    1.410   .     S
C276   C675    1.425   .     S
C277   I298    2.131   .     S
C277   C671    1.391   1_554 S
C277   C672    1.410   1_554 S
C278   C282    1.394   .     A
C279   C283    1.397   .     A
C279   C672    1.425   1_554 S
C279   C676    1.415   1_554 S
C280   C281    1.390   .     A
C280   C668    1.402   .     S
C280   C675    1.415   .     S
C281   H292    1.062   .     S
C281   C282    1.371   .     A
C282   H296    1.076   .     S
C283   H294    1.070   .     S
C284   H287    1.084   .     S
Cu285  O303    1.961   .     S
Cu285  N300    2.050   .     S
Cu285  O305    1.945   .     S
Cu285  Cu286   2.728   .     S
Cu285  O301    1.950   .     S
Cu285  O307    1.961   .     S
Cu286  O304    1.961   .     S
Cu286  N299    2.050   .     S
Cu286  O306    1.950   .     S
Cu286  O308    1.961   .     S
Cu286  O302    1.945   .     S
H289   C5      1.088   1_565 S
H290   N387    1.029   1_455 S
H291   N344    1.029   .     S
H295   C319    1.074   .     S
N299   H334    1.029   .     S
N299   N344    1.313   .     S
N300   H379    1.029   1_455 S
N300   N387    1.313   1_455 S
C309   O345    1.303   .     A
C309   O346    1.298   .     A
C309   C311    1.427   .     S
C310   C312    1.479   .     S
C310   C322    1.429   .     A
C310   C318    1.378   .     A
C311   C49     1.329   1_565 S
C311   H68     1.088   1_565 S
C312   O347    1.328   .     A
C312   O348    1.295   .     A
C313   C314    1.427   .     S
C314   O350    1.303   .     A
C314   O349    1.298   .     A
C315   O351    1.300   .     A
C315   O352    1.312   .     A
C315   C317    1.449   .     S
C316   C328    1.382   .     A
C316   H337    1.072   .     S
C316   C720    1.402   1_554 S
C317   C328    1.390   .     A
C317   C327    1.402   .     A
C318   I341    2.155   .     S
C318   C319    1.401   .     A
C319   C717    1.391   .     S
C320   C322    1.426   .     A
C320   C717    1.410   .     S
C320   C719    1.425   .     S
C321   I342    2.131   .     S
C321   C715    1.391   1_554 S
C321   C716    1.410   1_554 S
C322   C326    1.394   .     A
C323   C327    1.397   .     A
C323   C716    1.425   1_554 S
C323   C720    1.415   1_554 S
C324   C325    1.390   .     A
C324   C712    1.402   .     S
C324   C719    1.415   .     S
C325   H336    1.062   .     S
C325   C326    1.371   .     A
C326   H340    1.076   .     S
C327   H338    1.070   .     S
C328   H331    1.084   .     S
Cu329  O347    1.961   .     S
Cu329  N344    2.050   .     S
Cu329  O349    1.945   .     S
Cu329  Cu330   2.728   .     S
Cu329  O345    1.950   .     S
Cu329  O351    1.961   .     S
Cu330  O348    1.961   .     S
Cu330  N343    2.050   .     S
Cu330  O350    1.950   .     S
Cu330  O352    1.961   .     S
Cu330  O346    1.945   .     S
H333   C49     1.088   1_565 S
H335   N388    1.029   .     S
H339   C363    1.074   .     S
N343   H378    1.029   .     S
N343   N388    1.313   .     S
C353   O389    1.303   .     A
C353   O390    1.298   .     A
C353   C355    1.427   .     S
C354   C356    1.479   .     S
C354   C366    1.429   .     A
C354   C362    1.378   .     A
C355   C93     1.329   1_565 S
C355   H112    1.088   1_565 S
C356   O391    1.328   .     A
C356   O392    1.295   .     A
C357   C358    1.427   .     S
C358   O394    1.303   .     A
C358   O393    1.298   .     A
C359   O395    1.300   .     A
C359   O396    1.312   .     A
C359   C361    1.449   .     S
C360   C372    1.382   .     A
C360   H381    1.072   .     S
C360   C764    1.402   1_554 S
C361   C372    1.390   .     A
C361   C371    1.402   .     A
C362   I385    2.155   .     S
C362   C363    1.401   .     A
C363   C761    1.391   .     S
C364   C366    1.426   .     A
C364   C761    1.410   .     S
C364   C763    1.425   .     S
C365   I386    2.131   .     S
C365   C759    1.391   1_554 S
C365   C760    1.410   1_554 S
C366   C370    1.394   .     A
C367   C371    1.397   .     A
C367   C760    1.425   1_554 S
C367   C764    1.415   1_554 S
C368   C369    1.390   .     A
C368   C756    1.402   .     S
C368   C763    1.415   .     S
C369   H380    1.062   .     S
C369   C370    1.371   .     A
C370   H384    1.076   .     S
C371   H382    1.070   .     S
C372   H375    1.084   .     S
Cu373  O391    1.961   .     S
Cu373  N388    2.050   .     S
Cu373  O393    1.945   .     S
Cu373  Cu374   2.728   .     S
Cu373  O389    1.950   .     S
Cu373  O395    1.961   .     S
Cu374  O392    1.961   .     S
Cu374  N387    2.050   .     S
Cu374  O394    1.950   .     S
Cu374  O396    1.961   .     S
Cu374  O390    1.945   .     S
H377   C93     1.088   1_565 S
H379   N300    1.029   1_655 S
H383   C275    1.074   1_655 S
N387   H290    1.029   1_655 S
N387   N300    1.313   1_655 S
C397   O433    1.303   .     A
C397   O434    1.298   .     A
C397   C399    1.427   .     S
C398   C400    1.479   .     S
C398   C410    1.429   .     A
C398   C406    1.378   .     A
C399   C533    1.329   .     S
C399   H552    1.088   .     S
C400   O435    1.328   .     A
C400   O436    1.295   .     A
C401   C402    1.427   .     S
C401   C663    1.329   1_545 S
C401   H685    1.088   1_545 S
C402   O438    1.303   .     A
C402   O437    1.298   .     A
C403   O439    1.300   .     A
C403   O440    1.312   .     A
C403   C405    1.449   .     S
C404   C416    1.382   .     A
C404   H425    1.072   .     S
C405   C416    1.390   .     A
C405   C415    1.402   .     A
C406   I429    2.155   .     S
C406   C407    1.401   .     A
C407   C13     1.391   1_556 S
C407   H515    1.074   1_455 S
C408   C410    1.426   .     A
C408   C13     1.410   1_556 S
C408   C15     1.425   1_556 S
C409   I430    2.131   .     S
C410   C414    1.394   .     A
C411   C415    1.397   .     A
C412   C413    1.390   .     A
C412   C8      1.402   1_556 S
C412   C15     1.415   1_556 S
C413   H424    1.062   .     S
C413   C414    1.371   .     A
C414   H428    1.076   .     S
C415   H426    1.070   .     S
C416   H419    1.084   .     S
Cu417  O435    1.961   .     S
Cu417  N432    2.050   .     S
Cu417  O437    1.945   .     S
Cu417  Cu418   2.728   .     S
Cu417  O433    1.950   .     S
Cu417  O439    1.961   .     S
Cu418  O436    1.961   .     S
Cu418  N431    2.050   .     S
Cu418  O438    1.950   .     S
Cu418  O440    1.961   .     S
Cu418  O434    1.945   .     S
H420   C663    1.088   1_545 S
H421   C533    1.088   .     S
H422   N519    1.029   1_455 S
H423   N476    1.029   .     S
H427   C451    1.074   .     S
N431   H466    1.029   .     S
N431   N476    1.313   .     S
N432   H511    1.029   1_455 S
N432   N519    1.313   1_455 S
C441   O477    1.303   .     A
C441   O478    1.298   .     A
C441   C443    1.427   .     S
C442   C444    1.479   .     S
C442   C454    1.429   .     A
C442   C450    1.378   .     A
C443   C577    1.329   .     S
C443   H596    1.088   .     S
C444   O479    1.328   .     A
C444   O480    1.295   .     A
C445   C446    1.427   .     S
C445   C707    1.329   1_545 S
C445   H729    1.088   1_545 S
C446   O482    1.303   .     A
C446   O481    1.298   .     A
C447   O483    1.300   .     A
C447   O484    1.312   .     A
C447   C449    1.449   .     S
C448   C460    1.382   .     A
C448   H469    1.072   .     S
C449   C460    1.390   .     A
C449   C459    1.402   .     A
C450   I473    2.155   .     S
C450   C451    1.401   .     A
C451   C57     1.391   1_556 S
C452   C454    1.426   .     A
C452   C57     1.410   1_556 S
C452   C59     1.425   1_556 S
C453   I474    2.131   .     S
C454   C458    1.394   .     A
C455   C459    1.397   .     A
C456   C457    1.390   .     A
C456   C52     1.402   1_556 S
C456   C59     1.415   1_556 S
C457   H468    1.062   .     S
C457   C458    1.371   .     A
C458   H472    1.076   .     S
C459   H470    1.070   .     S
C460   H463    1.084   .     S
Cu461  O479    1.961   .     S
Cu461  N476    2.050   .     S
Cu461  O481    1.945   .     S
Cu461  Cu462   2.728   .     S
Cu461  O477    1.950   .     S
Cu461  O483    1.961   .     S
Cu462  O480    1.961   .     S
Cu462  N475    2.050   .     S
Cu462  O482    1.950   .     S
Cu462  O484    1.961   .     S
Cu462  O478    1.945   .     S
H464   C707    1.088   1_545 S
H465   C577    1.088   .     S
H467   N520    1.029   .     S
H471   C495    1.074   .     S
N475   H510    1.029   .     S
N475   N520    1.313   .     S
C485   O521    1.303   .     A
C485   O522    1.298   .     A
C485   C487    1.427   .     S
C486   C488    1.479   .     S
C486   C498    1.429   .     A
C486   C494    1.378   .     A
C487   C621    1.329   .     S
C487   H640    1.088   .     S
C488   O523    1.328   .     A
C488   O524    1.295   .     A
C489   C490    1.427   .     S
C489   C751    1.329   1_545 S
C489   H773    1.088   1_545 S
C490   O526    1.303   .     A
C490   O525    1.298   .     A
C491   O527    1.300   .     A
C491   O528    1.312   .     A
C491   C493    1.449   .     S
C492   C504    1.382   .     A
C492   H513    1.072   .     S
C493   C504    1.390   .     A
C493   C503    1.402   .     A
C494   I517    2.155   .     S
C494   C495    1.401   .     A
C495   C101    1.391   1_556 S
C496   C498    1.426   .     A
C496   C101    1.410   1_556 S
C496   C103    1.425   1_556 S
C497   I518    2.131   .     S
C498   C502    1.394   .     A
C499   C503    1.397   .     A
C500   C501    1.390   .     A
C500   C96     1.402   1_556 S
C500   C103    1.415   1_556 S
C501   H512    1.062   .     S
C501   C502    1.371   .     A
C502   H516    1.076   .     S
C503   H514    1.070   .     S
C504   H507    1.084   .     S
Cu505  O523    1.961   .     S
Cu505  N520    2.050   .     S
Cu505  O525    1.945   .     S
Cu505  Cu506   2.728   .     S
Cu505  O521    1.950   .     S
Cu505  O527    1.961   .     S
Cu506  O524    1.961   .     S
Cu506  N519    2.050   .     S
Cu506  O526    1.950   .     S
Cu506  O528    1.961   .     S
Cu506  O522    1.945   .     S
H508   C751    1.088   1_545 S
H509   C621    1.088   .     S
H511   N432    1.029   1_655 S
H515   C407    1.074   1_655 S
N519   H422    1.029   1_655 S
N519   N432    1.313   1_655 S
C529   O565    1.303   .     A
C529   O566    1.298   .     A
C529   C531    1.427   .     S
C530   C532    1.479   .     S
C530   C542    1.429   .     A
C530   C538    1.378   .     A
C531   C665    1.329   .     S
C531   H684    1.088   .     S
C532   O567    1.328   .     A
C532   O568    1.295   .     A
C533   C534    1.427   .     S
C534   O570    1.303   .     A
C534   O569    1.298   .     A
C535   O571    1.300   .     A
C535   O572    1.312   .     A
C535   C537    1.449   .     S
C536   C548    1.382   .     A
C536   H557    1.072   .     S
C537   C548    1.390   .     A
C537   C547    1.402   .     A
C538   I561    2.155   .     S
C538   C539    1.401   .     A
C539   C145    1.391   1_556 S
C539   H647    1.074   1_455 S
C540   C542    1.426   .     A
C540   C145    1.410   1_556 S
C540   C147    1.425   1_556 S
C541   I562    2.131   .     S
C542   C546    1.394   .     A
C543   C547    1.397   .     A
C544   C545    1.390   .     A
C544   C140    1.402   1_556 S
C544   C147    1.415   1_556 S
C545   H556    1.062   .     S
C545   C546    1.371   .     A
C546   H560    1.076   .     S
C547   H558    1.070   .     S
C548   H551    1.084   .     S
Cu549  O567    1.961   .     S
Cu549  N564    2.050   .     S
Cu549  O569    1.945   .     S
Cu549  Cu550   2.728   .     S
Cu549  O565    1.950   .     S
Cu549  O571    1.961   .     S
Cu550  O568    1.961   .     S
Cu550  N563    2.050   .     S
Cu550  O570    1.950   .     S
Cu550  O572    1.961   .     S
Cu550  O566    1.945   .     S
H553   C665    1.088   .     S
H554   N651    1.029   1_455 S
H555   N608    1.029   .     S
H559   C583    1.074   .     S
N563   H598    1.029   .     S
N563   N608    1.313   .     S
N564   H643    1.029   1_455 S
N564   N651    1.313   1_455 S
C573   O609    1.303   .     A
C573   O610    1.298   .     A
C573   C575    1.427   .     S
C574   C576    1.479   .     S
C574   C586    1.429   .     A
C574   C582    1.378   .     A
C575   C709    1.329   .     S
C575   H728    1.088   .     S
C576   O611    1.328   .     A
C576   O612    1.295   .     A
C577   C578    1.427   .     S
C578   O614    1.303   .     A
C578   O613    1.298   .     A
C579   O615    1.300   .     A
C579   O616    1.312   .     A
C579   C581    1.449   .     S
C580   C592    1.382   .     A
C580   H601    1.072   .     S
C581   C592    1.390   .     A
C581   C591    1.402   .     A
C582   I605    2.155   .     S
C582   C583    1.401   .     A
C583   C189    1.391   1_556 S
C584   C586    1.426   .     A
C584   C189    1.410   1_556 S
C584   C191    1.425   1_556 S
C585   I606    2.131   .     S
C586   C590    1.394   .     A
C587   C591    1.397   .     A
C588   C589    1.390   .     A
C588   C184    1.402   1_556 S
C588   C191    1.415   1_556 S
C589   H600    1.062   .     S
C589   C590    1.371   .     A
C590   H604    1.076   .     S
C591   H602    1.070   .     S
C592   H595    1.084   .     S
Cu593  O611    1.961   .     S
Cu593  N608    2.050   .     S
Cu593  O613    1.945   .     S
Cu593  Cu594   2.728   .     S
Cu593  O609    1.950   .     S
Cu593  O615    1.961   .     S
Cu594  O612    1.961   .     S
Cu594  N607    2.050   .     S
Cu594  O614    1.950   .     S
Cu594  O616    1.961   .     S
Cu594  O610    1.945   .     S
H597   C709    1.088   .     S
H599   N652    1.029   .     S
H603   C627    1.074   .     S
N607   H642    1.029   .     S
N607   N652    1.313   .     S
C617   O653    1.303   .     A
C617   O654    1.298   .     A
C617   C619    1.427   .     S
C618   C620    1.479   .     S
C618   C630    1.429   .     A
C618   C626    1.378   .     A
C619   C753    1.329   .     S
C619   H772    1.088   .     S
C620   O655    1.328   .     A
C620   O656    1.295   .     A
C621   C622    1.427   .     S
C622   O658    1.303   .     A
C622   O657    1.298   .     A
C623   O659    1.300   .     A
C623   O660    1.312   .     A
C623   C625    1.449   .     S
C624   C636    1.382   .     A
C624   H645    1.072   .     S
C625   C636    1.390   .     A
C625   C635    1.402   .     A
C626   I649    2.155   .     S
C626   C627    1.401   .     A
C627   C233    1.391   1_556 S
C628   C630    1.426   .     A
C628   C233    1.410   1_556 S
C628   C235    1.425   1_556 S
C629   I650    2.131   .     S
C630   C634    1.394   .     A
C631   C635    1.397   .     A
C632   C633    1.390   .     A
C632   C228    1.402   1_556 S
C632   C235    1.415   1_556 S
C633   H644    1.062   .     S
C633   C634    1.371   .     A
C634   H648    1.076   .     S
C635   H646    1.070   .     S
C636   H639    1.084   .     S
Cu637  O655    1.961   .     S
Cu637  N652    2.050   .     S
Cu637  O657    1.945   .     S
Cu637  Cu638   2.728   .     S
Cu637  O653    1.950   .     S
Cu637  O659    1.961   .     S
Cu638  O656    1.961   .     S
Cu638  N651    2.050   .     S
Cu638  O658    1.950   .     S
Cu638  O660    1.961   .     S
Cu638  O654    1.945   .     S
H641   C753    1.088   .     S
H643   N564    1.029   1_655 S
H647   C539    1.074   1_655 S
N651   H554    1.029   1_655 S
N651   N564    1.313   1_655 S
C661   O697    1.303   .     A
C661   O698    1.298   .     A
C661   C663    1.427   .     S
C662   C664    1.479   .     S
C662   C674    1.429   .     A
C662   C670    1.378   .     A
C663   C401    1.329   1_565 S
C663   H420    1.088   1_565 S
C664   O699    1.328   .     A
C664   O700    1.295   .     A
C665   C666    1.427   .     S
C666   O702    1.303   .     A
C666   O701    1.298   .     A
C667   O703    1.300   .     A
C667   O704    1.312   .     A
C667   C669    1.449   .     S
C668   C680    1.382   .     A
C668   H689    1.072   .     S
C669   C680    1.390   .     A
C669   C679    1.402   .     A
C670   I693    2.155   .     S
C670   C671    1.401   .     A
C671   C277    1.391   1_556 S
C671   H779    1.074   1_455 S
C672   C674    1.426   .     A
C672   C277    1.410   1_556 S
C672   C279    1.425   1_556 S
C673   I694    2.131   .     S
C674   C678    1.394   .     A
C675   C679    1.397   .     A
C676   C677    1.390   .     A
C676   C272    1.402   1_556 S
C676   C279    1.415   1_556 S
C677   H688    1.062   .     S
C677   C678    1.371   .     A
C678   H692    1.076   .     S
C679   H690    1.070   .     S
C680   H683    1.084   .     S
Cu681  O699    1.961   .     S
Cu681  N696    2.050   .     S
Cu681  O701    1.945   .     S
Cu681  Cu682   2.728   .     S
Cu681  O697    1.950   .     S
Cu681  O703    1.961   .     S
Cu682  O700    1.961   .     S
Cu682  N695    2.050   .     S
Cu682  O702    1.950   .     S
Cu682  O704    1.961   .     S
Cu682  O698    1.945   .     S
H685   C401    1.088   1_565 S
H686   N783    1.029   1_455 S
H687   N740    1.029   .     S
H691   C715    1.074   .     S
N695   H730    1.029   .     S
N695   N740    1.313   .     S
N696   H775    1.029   1_455 S
N696   N783    1.313   1_455 S
C705   O741    1.303   .     A
C705   O742    1.298   .     A
C705   C707    1.427   .     S
C706   C708    1.479   .     S
C706   C718    1.429   .     A
C706   C714    1.378   .     A
C707   C445    1.329   1_565 S
C707   H464    1.088   1_565 S
C708   O743    1.328   .     A
C708   O744    1.295   .     A
C709   C710    1.427   .     S
C710   O746    1.303   .     A
C710   O745    1.298   .     A
C711   O747    1.300   .     A
C711   O748    1.312   .     A
C711   C713    1.449   .     S
C712   C724    1.382   .     A
C712   H733    1.072   .     S
C713   C724    1.390   .     A
C713   C723    1.402   .     A
C714   I737    2.155   .     S
C714   C715    1.401   .     A
C715   C321    1.391   1_556 S
C716   C718    1.426   .     A
C716   C321    1.410   1_556 S
C716   C323    1.425   1_556 S
C717   I738    2.131   .     S
C718   C722    1.394   .     A
C719   C723    1.397   .     A
C720   C721    1.390   .     A
C720   C316    1.402   1_556 S
C720   C323    1.415   1_556 S
C721   H732    1.062   .     S
C721   C722    1.371   .     A
C722   H736    1.076   .     S
C723   H734    1.070   .     S
C724   H727    1.084   .     S
Cu725  O743    1.961   .     S
Cu725  N740    2.050   .     S
Cu725  O745    1.945   .     S
Cu725  Cu726   2.728   .     S
Cu725  O741    1.950   .     S
Cu725  O747    1.961   .     S
Cu726  O744    1.961   .     S
Cu726  N739    2.050   .     S
Cu726  O746    1.950   .     S
Cu726  O748    1.961   .     S
Cu726  O742    1.945   .     S
H729   C445    1.088   1_565 S
H731   N784    1.029   .     S
H735   C759    1.074   .     S
N739   H774    1.029   .     S
N739   N784    1.313   .     S
C749   O785    1.303   .     A
C749   O786    1.298   .     A
C749   C751    1.427   .     S
C750   C752    1.479   .     S
C750   C762    1.429   .     A
C750   C758    1.378   .     A
C751   C489    1.329   1_565 S
C751   H508    1.088   1_565 S
C752   O787    1.328   .     A
C752   O788    1.295   .     A
C753   C754    1.427   .     S
C754   O790    1.303   .     A
C754   O789    1.298   .     A
C755   O791    1.300   .     A
C755   O792    1.312   .     A
C755   C757    1.449   .     S
C756   C768    1.382   .     A
C756   H777    1.072   .     S
C757   C768    1.390   .     A
C757   C767    1.402   .     A
C758   I781    2.155   .     S
C758   C759    1.401   .     A
C759   C365    1.391   1_556 S
C760   C762    1.426   .     A
C760   C365    1.410   1_556 S
C760   C367    1.425   1_556 S
C761   I782    2.131   .     S
C762   C766    1.394   .     A
C763   C767    1.397   .     A
C764   C765    1.390   .     A
C764   C360    1.402   1_556 S
C764   C367    1.415   1_556 S
C765   H776    1.062   .     S
C765   C766    1.371   .     A
C766   H780    1.076   .     S
C767   H778    1.070   .     S
C768   H771    1.084   .     S
Cu769  O787    1.961   .     S
Cu769  N784    2.050   .     S
Cu769  O789    1.945   .     S
Cu769  Cu770   2.728   .     S
Cu769  O785    1.950   .     S
Cu769  O791    1.961   .     S
Cu770  O788    1.961   .     S
Cu770  N783    2.050   .     S
Cu770  O790    1.950   .     S
Cu770  O792    1.961   .     S
Cu770  O786    1.945   .     S
H773   C489    1.088   1_565 S
H775   N696    1.029   1_655 S
H779   C671    1.074   1_655 S
N783   H686    1.029   1_655 S
N783   N696    1.313   1_655 S
