data_str_m2_o10_o18_pcu_sym.13
_audit_creation_date              2020-01-03
_audit_creation_method            'Materials Studio'
_symmetry_space_group_name_H-M    'P1'
_symmetry_Int_Tables_number       1
_symmetry_cell_setting            triclinic
loop_
_symmetry_equiv_pos_as_xyz
  x,y,z
_cell_length_a                    22.4274
_cell_length_b                    26.0717
_cell_length_c                    31.6324
_cell_angle_alpha                 95.0112
_cell_angle_beta                  75.3287
_cell_angle_gamma                 103.4692
loop_
_atom_site_label
_atom_site_type_symbol
_atom_site_fract_x
_atom_site_fract_y
_atom_site_fract_z
_atom_site_U_iso_or_equiv
_atom_site_adp_type
_atom_site_occupancy
C1     C     0.18176   0.26673   0.25133   0.00000  Uiso   1.00
C2     C     0.20508   0.17029   0.16695   0.00000  Uiso   1.00
C3     C     0.10507   0.15514   0.38021   0.00000  Uiso   1.00
C4     C     0.22821   0.17447   0.11935   0.00000  Uiso   1.00
C5     C     0.02666   0.11334   0.44187   0.00000  Uiso   1.00
C6     C     0.31015   0.20561   0.05546   0.00000  Uiso   1.00
C7     C     0.04376   0.12725   0.39823   0.00000  Uiso   1.00
C8     C     0.29150   0.19627   0.10007   0.00000  Uiso   1.00
C9     C     0.14804   0.17101   0.40655   0.00000  Uiso   1.00
C10    C     0.18464   0.15950   0.09332   0.00000  Uiso   1.00
C11    C     0.13293   0.15580   0.45020   0.00000  Uiso   1.00
C12    C     0.15156   0.06661   0.24867   0.00000  Uiso   1.00
C13    C     0.20240   0.16746   0.04808   0.00000  Uiso   1.00
C14    C     0.07077   0.12689   0.46779   0.00000  Uiso   1.00
C15    C     0.26597   0.19241   0.02960   0.00000  Uiso   1.00
C16    C     0.17786   0.16776   0.47654   0.00000  Uiso   1.00
C17    C     0.15841   0.15310   0.02113   0.00000  Uiso   1.00
C18    C     0.09598   0.12388   0.03709   0.00000  Uiso   1.00
C19    C     0.24185   0.19281   0.45958   0.00000  Uiso   1.00
C20    C     0.05333   0.11105   0.01083   0.00000  Uiso   1.00
C21    C     0.28482   0.20458   0.48564   0.00000  Uiso   1.00
C22    C     0.19016   0.32281   0.25193   0.00000  Uiso   1.00
C23    C     0.14317   0.01052   0.24809   0.00000  Uiso   1.00
C24    C     0.12822   0.16263   0.33300   0.00000  Uiso   1.00
Cu25   Cu    0.10737   0.16108   0.24517   0.00000  Uiso   1.00
Cu26   Cu    0.22596   0.17225   0.25484   0.00000  Uiso   1.00
H27    H     0.00609   0.08851   0.02445   0.00000  Uiso   1.00
H28    H     0.26124   0.20303   0.42589   0.00000  Uiso   1.00
H29    H     0.23534   0.01353   0.25552   0.00000  Uiso   1.00
H30    H     0.09799   0.31980   0.24450   0.00000  Uiso   1.00
H31    H     0.30415   0.22889   0.30872   0.00000  Uiso   1.00
H32    H     0.02919   0.10445   0.19128   0.00000  Uiso   1.00
H33    H     0.00004   0.22355   0.47116   0.00000  Uiso   1.00
H34    H     0.13640   0.14354   0.10963   0.00000  Uiso   1.00
H35    H     0.19344   0.19471   0.39163   0.00000  Uiso   1.00
H36    H     0.32593   0.20794   0.11966   0.00000  Uiso   1.00
H37    H     0.00989   0.11462   0.37829   0.00000  Uiso   1.00
H38    H     0.31249   0.09118   0.45523   0.00000  Uiso   1.00
H39    H     0.02566   0.22397   0.04126   0.00000  Uiso   1.00
H40    H     0.07857   0.10885   0.06958   0.00000  Uiso   1.00
N41    N     0.31506   0.18068   0.26212   0.00000  Uiso   1.00
N42    N     0.01827   0.15265   0.23788   0.00000  Uiso   1.00
O43    O     0.12815   0.23809   0.24686   0.00000  Uiso   1.00
O44    O     0.32833   0.12217   0.20695   0.00000  Uiso   1.00
O45    O     0.20518   0.09524   0.25314   0.00000  Uiso   1.00
O46    O     0.22829   0.24753   0.25503   0.00000  Uiso   1.00
O47    O     0.10504   0.08580   0.24498   0.00000  Uiso   1.00
O48    O     0.08851   0.15930   0.30855   0.00000  Uiso   1.00
O49    O     0.24482   0.17403   0.19146   0.00000  Uiso   1.00
O50    O     0.18866   0.16874   0.31671   0.00000  Uiso   1.00
O51    O     0.14468   0.16460   0.18329   0.00000  Uiso   1.00
O52    O     0.00500   0.21117   0.29305   0.00000  Uiso   1.00
C53    C     0.51510   0.26673   0.25133   0.00000  Uiso   1.00
C54    C     0.53841   0.17029   0.16695   0.00000  Uiso   1.00
C55    C     0.43840   0.15514   0.38021   0.00000  Uiso   1.00
C56    C     0.56154   0.17447   0.11935   0.00000  Uiso   1.00
C57    C     0.35999   0.11334   0.44187   0.00000  Uiso   1.00
C58    C     0.64348   0.20561   0.05546   0.00000  Uiso   1.00
C59    C     0.37710   0.12725   0.39823   0.00000  Uiso   1.00
C60    C     0.62483   0.19627   0.10007   0.00000  Uiso   1.00
C61    C     0.48138   0.17101   0.40655   0.00000  Uiso   1.00
C62    C     0.51797   0.15950   0.09332   0.00000  Uiso   1.00
C63    C     0.46627   0.15580   0.45020   0.00000  Uiso   1.00
C64    C     0.48490   0.06661   0.24867   0.00000  Uiso   1.00
C65    C     0.53573   0.16746   0.04808   0.00000  Uiso   1.00
C66    C     0.40411   0.12689   0.46779   0.00000  Uiso   1.00
C67    C     0.59930   0.19241   0.02960   0.00000  Uiso   1.00
C68    C     0.51119   0.16776   0.47654   0.00000  Uiso   1.00
C69    C     0.49174   0.15310   0.02113   0.00000  Uiso   1.00
C70    C     0.42931   0.12388   0.03709   0.00000  Uiso   1.00
C71    C     0.57519   0.19281   0.45958   0.00000  Uiso   1.00
C72    C     0.38666   0.11105   0.01083   0.00000  Uiso   1.00
C73    C     0.61815   0.20458   0.48564   0.00000  Uiso   1.00
C74    C     0.52349   0.32281   0.25193   0.00000  Uiso   1.00
C75    C     0.47650   0.01052   0.24809   0.00000  Uiso   1.00
C76    C     0.46155   0.16263   0.33300   0.00000  Uiso   1.00
Cu77   Cu    0.44071   0.16108   0.24517   0.00000  Uiso   1.00
Cu78   Cu    0.55929   0.17225   0.25484   0.00000  Uiso   1.00
H79    H     0.33943   0.08851   0.02445   0.00000  Uiso   1.00
H80    H     0.59457   0.20303   0.42589   0.00000  Uiso   1.00
H81    H     0.56867   0.01353   0.25552   0.00000  Uiso   1.00
H82    H     0.43132   0.31980   0.24450   0.00000  Uiso   1.00
H83    H     0.63748   0.22889   0.30872   0.00000  Uiso   1.00
H84    H     0.36252   0.10445   0.19128   0.00000  Uiso   1.00
H85    H     0.33338   0.22355   0.47116   0.00000  Uiso   1.00
H86    H     0.46973   0.14354   0.10963   0.00000  Uiso   1.00
H87    H     0.52678   0.19471   0.39163   0.00000  Uiso   1.00
H88    H     0.65927   0.20794   0.11966   0.00000  Uiso   1.00
H89    H     0.34323   0.11462   0.37829   0.00000  Uiso   1.00
H90    H     0.64582   0.09118   0.45523   0.00000  Uiso   1.00
H91    H     0.35900   0.22397   0.04126   0.00000  Uiso   1.00
H92    H     0.41191   0.10885   0.06958   0.00000  Uiso   1.00
N93    N     0.64839   0.18068   0.26212   0.00000  Uiso   1.00
N94    N     0.35161   0.15265   0.23788   0.00000  Uiso   1.00
O95    O     0.46148   0.23809   0.24686   0.00000  Uiso   1.00
O96    O     0.66166   0.12217   0.20695   0.00000  Uiso   1.00
O97    O     0.53852   0.09524   0.25314   0.00000  Uiso   1.00
O98    O     0.56163   0.24753   0.25503   0.00000  Uiso   1.00
O99    O     0.43837   0.08580   0.24498   0.00000  Uiso   1.00
O100   O     0.42185   0.15930   0.30855   0.00000  Uiso   1.00
O101   O     0.57815   0.17403   0.19146   0.00000  Uiso   1.00
O102   O     0.52199   0.16874   0.31671   0.00000  Uiso   1.00
O103   O     0.47801   0.16460   0.18329   0.00000  Uiso   1.00
O104   O     0.33834   0.21117   0.29305   0.00000  Uiso   1.00
C105   C     0.84843   0.26673   0.25133   0.00000  Uiso   1.00
C106   C     0.87175   0.17029   0.16695   0.00000  Uiso   1.00
C107   C     0.77173   0.15514   0.38021   0.00000  Uiso   1.00
C108   C     0.89488   0.17447   0.11935   0.00000  Uiso   1.00
C109   C     0.69332   0.11334   0.44187   0.00000  Uiso   1.00
C110   C     0.97681   0.20561   0.05546   0.00000  Uiso   1.00
C111   C     0.71043   0.12725   0.39823   0.00000  Uiso   1.00
C112   C     0.95816   0.19627   0.10007   0.00000  Uiso   1.00
C113   C     0.81471   0.17101   0.40655   0.00000  Uiso   1.00
C114   C     0.85131   0.15950   0.09332   0.00000  Uiso   1.00
C115   C     0.79960   0.15580   0.45020   0.00000  Uiso   1.00
C116   C     0.81823   0.06661   0.24867   0.00000  Uiso   1.00
C117   C     0.86906   0.16746   0.04808   0.00000  Uiso   1.00
C118   C     0.73744   0.12689   0.46779   0.00000  Uiso   1.00
C119   C     0.93264   0.19241   0.02960   0.00000  Uiso   1.00
C120   C     0.84452   0.16776   0.47654   0.00000  Uiso   1.00
C121   C     0.82507   0.15310   0.02113   0.00000  Uiso   1.00
C122   C     0.76265   0.12388   0.03709   0.00000  Uiso   1.00
C123   C     0.90852   0.19281   0.45958   0.00000  Uiso   1.00
C124   C     0.71999   0.11105   0.01083   0.00000  Uiso   1.00
C125   C     0.95149   0.20458   0.48564   0.00000  Uiso   1.00
C126   C     0.85682   0.32281   0.25193   0.00000  Uiso   1.00
C127   C     0.80983   0.01052   0.24809   0.00000  Uiso   1.00
C128   C     0.79489   0.16263   0.33300   0.00000  Uiso   1.00
Cu129  Cu    0.77404   0.16108   0.24517   0.00000  Uiso   1.00
Cu130  Cu    0.89263   0.17225   0.25484   0.00000  Uiso   1.00
H131   H     0.67276   0.08851   0.02445   0.00000  Uiso   1.00
H132   H     0.92791   0.20303   0.42589   0.00000  Uiso   1.00
H133   H     0.90200   0.01353   0.25552   0.00000  Uiso   1.00
H134   H     0.76465   0.31980   0.24450   0.00000  Uiso   1.00
H135   H     0.97082   0.22889   0.30872   0.00000  Uiso   1.00
H136   H     0.69585   0.10445   0.19128   0.00000  Uiso   1.00
H137   H     0.66671   0.22355   0.47116   0.00000  Uiso   1.00
H138   H     0.80307   0.14354   0.10963   0.00000  Uiso   1.00
H139   H     0.86011   0.19471   0.39163   0.00000  Uiso   1.00
H140   H     0.99260   0.20794   0.11966   0.00000  Uiso   1.00
H141   H     0.67656   0.11462   0.37829   0.00000  Uiso   1.00
H142   H     0.97916   0.09118   0.45523   0.00000  Uiso   1.00
H143   H     0.69233   0.22397   0.04126   0.00000  Uiso   1.00
H144   H     0.74524   0.10885   0.06958   0.00000  Uiso   1.00
N145   N     0.98173   0.18068   0.26212   0.00000  Uiso   1.00
N146   N     0.68494   0.15265   0.23788   0.00000  Uiso   1.00
O147   O     0.79482   0.23809   0.24686   0.00000  Uiso   1.00
O148   O     0.99500   0.12217   0.20695   0.00000  Uiso   1.00
O149   O     0.87185   0.09524   0.25314   0.00000  Uiso   1.00
O150   O     0.89496   0.24753   0.25503   0.00000  Uiso   1.00
O151   O     0.77171   0.08580   0.24498   0.00000  Uiso   1.00
O152   O     0.75518   0.15930   0.30855   0.00000  Uiso   1.00
O153   O     0.91149   0.17403   0.19146   0.00000  Uiso   1.00
O154   O     0.85532   0.16874   0.31671   0.00000  Uiso   1.00
O155   O     0.81134   0.16460   0.18329   0.00000  Uiso   1.00
O156   O     0.67167   0.21117   0.29305   0.00000  Uiso   1.00
C157   C     0.18176   0.60006   0.25133   0.00000  Uiso   1.00
C158   C     0.20508   0.50363   0.16695   0.00000  Uiso   1.00
C159   C     0.10507   0.48847   0.38021   0.00000  Uiso   1.00
C160   C     0.22821   0.50780   0.11935   0.00000  Uiso   1.00
C161   C     0.02666   0.44668   0.44187   0.00000  Uiso   1.00
C162   C     0.31015   0.53895   0.05546   0.00000  Uiso   1.00
C163   C     0.04376   0.46058   0.39823   0.00000  Uiso   1.00
C164   C     0.29150   0.52960   0.10007   0.00000  Uiso   1.00
C165   C     0.14804   0.50434   0.40655   0.00000  Uiso   1.00
C166   C     0.18464   0.49283   0.09332   0.00000  Uiso   1.00
C167   C     0.13293   0.48913   0.45020   0.00000  Uiso   1.00
C168   C     0.15156   0.39994   0.24867   0.00000  Uiso   1.00
C169   C     0.20240   0.50079   0.04808   0.00000  Uiso   1.00
C170   C     0.07077   0.46022   0.46779   0.00000  Uiso   1.00
C171   C     0.26597   0.52574   0.02960   0.00000  Uiso   1.00
C172   C     0.17786   0.50109   0.47654   0.00000  Uiso   1.00
C173   C     0.15841   0.48644   0.02113   0.00000  Uiso   1.00
C174   C     0.09598   0.45722   0.03709   0.00000  Uiso   1.00
C175   C     0.24185   0.52615   0.45958   0.00000  Uiso   1.00
C176   C     0.05333   0.44438   0.01083   0.00000  Uiso   1.00
C177   C     0.28482   0.53791   0.48564   0.00000  Uiso   1.00
C178   C     0.19016   0.65614   0.25193   0.00000  Uiso   1.00
C179   C     0.14317   0.34386   0.24809   0.00000  Uiso   1.00
C180   C     0.12822   0.49596   0.33300   0.00000  Uiso   1.00
Cu181  Cu    0.10737   0.49441   0.24517   0.00000  Uiso   1.00
Cu182  Cu    0.22596   0.50559   0.25484   0.00000  Uiso   1.00
H183   H     0.00609   0.42184   0.02445   0.00000  Uiso   1.00
H184   H     0.26124   0.53637   0.42589   0.00000  Uiso   1.00
H185   H     0.23534   0.34687   0.25552   0.00000  Uiso   1.00
H186   H     0.09799   0.65313   0.24450   0.00000  Uiso   1.00
H187   H     0.30415   0.56222   0.30872   0.00000  Uiso   1.00
H188   H     0.02919   0.43778   0.19128   0.00000  Uiso   1.00
H189   H     0.00004   0.55689   0.47116   0.00000  Uiso   1.00
H190   H     0.13640   0.47688   0.10963   0.00000  Uiso   1.00
H191   H     0.19344   0.52804   0.39163   0.00000  Uiso   1.00
H192   H     0.32593   0.54127   0.11966   0.00000  Uiso   1.00
H193   H     0.00989   0.44795   0.37829   0.00000  Uiso   1.00
H194   H     0.31249   0.42452   0.45523   0.00000  Uiso   1.00
H195   H     0.02566   0.55731   0.04126   0.00000  Uiso   1.00
H196   H     0.07857   0.44218   0.06958   0.00000  Uiso   1.00
N197   N     0.31506   0.51401   0.26212   0.00000  Uiso   1.00
N198   N     0.01827   0.48599   0.23788   0.00000  Uiso   1.00
O199   O     0.12815   0.57142   0.24686   0.00000  Uiso   1.00
O200   O     0.32833   0.45550   0.20695   0.00000  Uiso   1.00
O201   O     0.20518   0.42858   0.25314   0.00000  Uiso   1.00
O202   O     0.22829   0.58086   0.25503   0.00000  Uiso   1.00
O203   O     0.10504   0.41914   0.24498   0.00000  Uiso   1.00
O204   O     0.08851   0.49263   0.30855   0.00000  Uiso   1.00
O205   O     0.24482   0.50737   0.19146   0.00000  Uiso   1.00
O206   O     0.18866   0.50207   0.31671   0.00000  Uiso   1.00
O207   O     0.14468   0.49793   0.18329   0.00000  Uiso   1.00
O208   O     0.00500   0.54450   0.29305   0.00000  Uiso   1.00
C209   C     0.51510   0.60006   0.25133   0.00000  Uiso   1.00
C210   C     0.53841   0.50363   0.16695   0.00000  Uiso   1.00
C211   C     0.43840   0.48847   0.38021   0.00000  Uiso   1.00
C212   C     0.56154   0.50780   0.11935   0.00000  Uiso   1.00
C213   C     0.35999   0.44668   0.44187   0.00000  Uiso   1.00
C214   C     0.64348   0.53895   0.05546   0.00000  Uiso   1.00
C215   C     0.37710   0.46058   0.39823   0.00000  Uiso   1.00
C216   C     0.62483   0.52960   0.10007   0.00000  Uiso   1.00
C217   C     0.48138   0.50434   0.40655   0.00000  Uiso   1.00
C218   C     0.51797   0.49283   0.09332   0.00000  Uiso   1.00
C219   C     0.46627   0.48913   0.45020   0.00000  Uiso   1.00
C220   C     0.48490   0.39994   0.24867   0.00000  Uiso   1.00
C221   C     0.53573   0.50079   0.04808   0.00000  Uiso   1.00
C222   C     0.40411   0.46022   0.46779   0.00000  Uiso   1.00
C223   C     0.59930   0.52574   0.02960   0.00000  Uiso   1.00
C224   C     0.51119   0.50109   0.47654   0.00000  Uiso   1.00
C225   C     0.49174   0.48644   0.02113   0.00000  Uiso   1.00
C226   C     0.42931   0.45722   0.03709   0.00000  Uiso   1.00
C227   C     0.57519   0.52615   0.45958   0.00000  Uiso   1.00
C228   C     0.38666   0.44438   0.01083   0.00000  Uiso   1.00
C229   C     0.61815   0.53791   0.48564   0.00000  Uiso   1.00
C230   C     0.52349   0.65614   0.25193   0.00000  Uiso   1.00
C231   C     0.47650   0.34386   0.24809   0.00000  Uiso   1.00
C232   C     0.46155   0.49596   0.33300   0.00000  Uiso   1.00
Cu233  Cu    0.44071   0.49441   0.24517   0.00000  Uiso   1.00
Cu234  Cu    0.55929   0.50559   0.25484   0.00000  Uiso   1.00
H235   H     0.33943   0.42184   0.02445   0.00000  Uiso   1.00
H236   H     0.59457   0.53637   0.42589   0.00000  Uiso   1.00
H237   H     0.56867   0.34687   0.25552   0.00000  Uiso   1.00
H238   H     0.43132   0.65313   0.24450   0.00000  Uiso   1.00
H239   H     0.63748   0.56222   0.30872   0.00000  Uiso   1.00
H240   H     0.36252   0.43778   0.19128   0.00000  Uiso   1.00
H241   H     0.33338   0.55689   0.47116   0.00000  Uiso   1.00
H242   H     0.46973   0.47688   0.10963   0.00000  Uiso   1.00
H243   H     0.52678   0.52804   0.39163   0.00000  Uiso   1.00
H244   H     0.65927   0.54127   0.11966   0.00000  Uiso   1.00
H245   H     0.34323   0.44795   0.37829   0.00000  Uiso   1.00
H246   H     0.64582   0.42452   0.45523   0.00000  Uiso   1.00
H247   H     0.35900   0.55731   0.04126   0.00000  Uiso   1.00
H248   H     0.41191   0.44218   0.06958   0.00000  Uiso   1.00
N249   N     0.64839   0.51401   0.26212   0.00000  Uiso   1.00
N250   N     0.35161   0.48599   0.23788   0.00000  Uiso   1.00
O251   O     0.46148   0.57142   0.24686   0.00000  Uiso   1.00
O252   O     0.66166   0.45550   0.20695   0.00000  Uiso   1.00
O253   O     0.53852   0.42858   0.25314   0.00000  Uiso   1.00
O254   O     0.56163   0.58086   0.25503   0.00000  Uiso   1.00
O255   O     0.43837   0.41914   0.24498   0.00000  Uiso   1.00
O256   O     0.42185   0.49263   0.30855   0.00000  Uiso   1.00
O257   O     0.57815   0.50737   0.19146   0.00000  Uiso   1.00
O258   O     0.52199   0.50207   0.31671   0.00000  Uiso   1.00
O259   O     0.47801   0.49793   0.18329   0.00000  Uiso   1.00
O260   O     0.33834   0.54450   0.29305   0.00000  Uiso   1.00
C261   C     0.84843   0.60006   0.25133   0.00000  Uiso   1.00
C262   C     0.87175   0.50363   0.16695   0.00000  Uiso   1.00
C263   C     0.77173   0.48847   0.38021   0.00000  Uiso   1.00
C264   C     0.89488   0.50780   0.11935   0.00000  Uiso   1.00
C265   C     0.69332   0.44668   0.44187   0.00000  Uiso   1.00
C266   C     0.97681   0.53895   0.05546   0.00000  Uiso   1.00
C267   C     0.71043   0.46058   0.39823   0.00000  Uiso   1.00
C268   C     0.95816   0.52960   0.10007   0.00000  Uiso   1.00
C269   C     0.81471   0.50434   0.40655   0.00000  Uiso   1.00
C270   C     0.85131   0.49283   0.09332   0.00000  Uiso   1.00
C271   C     0.79960   0.48913   0.45020   0.00000  Uiso   1.00
C272   C     0.81823   0.39994   0.24867   0.00000  Uiso   1.00
C273   C     0.86906   0.50079   0.04808   0.00000  Uiso   1.00
C274   C     0.73744   0.46022   0.46779   0.00000  Uiso   1.00
C275   C     0.93264   0.52574   0.02960   0.00000  Uiso   1.00
C276   C     0.84452   0.50109   0.47654   0.00000  Uiso   1.00
C277   C     0.82507   0.48644   0.02113   0.00000  Uiso   1.00
C278   C     0.76265   0.45722   0.03709   0.00000  Uiso   1.00
C279   C     0.90852   0.52615   0.45958   0.00000  Uiso   1.00
C280   C     0.71999   0.44438   0.01083   0.00000  Uiso   1.00
C281   C     0.95149   0.53791   0.48564   0.00000  Uiso   1.00
C282   C     0.85682   0.65614   0.25193   0.00000  Uiso   1.00
C283   C     0.80983   0.34386   0.24809   0.00000  Uiso   1.00
C284   C     0.79489   0.49596   0.33300   0.00000  Uiso   1.00
Cu285  Cu    0.77404   0.49441   0.24517   0.00000  Uiso   1.00
Cu286  Cu    0.89263   0.50559   0.25484   0.00000  Uiso   1.00
H287   H     0.67276   0.42184   0.02445   0.00000  Uiso   1.00
H288   H     0.92791   0.53637   0.42589   0.00000  Uiso   1.00
H289   H     0.90200   0.34687   0.25552   0.00000  Uiso   1.00
H290   H     0.76465   0.65313   0.24450   0.00000  Uiso   1.00
H291   H     0.97082   0.56222   0.30872   0.00000  Uiso   1.00
H292   H     0.69585   0.43778   0.19128   0.00000  Uiso   1.00
H293   H     0.66671   0.55689   0.47116   0.00000  Uiso   1.00
H294   H     0.80307   0.47688   0.10963   0.00000  Uiso   1.00
H295   H     0.86011   0.52804   0.39163   0.00000  Uiso   1.00
H296   H     0.99260   0.54127   0.11966   0.00000  Uiso   1.00
H297   H     0.67656   0.44795   0.37829   0.00000  Uiso   1.00
H298   H     0.97916   0.42452   0.45523   0.00000  Uiso   1.00
H299   H     0.69233   0.55731   0.04126   0.00000  Uiso   1.00
H300   H     0.74524   0.44218   0.06958   0.00000  Uiso   1.00
N301   N     0.98173   0.51401   0.26212   0.00000  Uiso   1.00
N302   N     0.68494   0.48599   0.23788   0.00000  Uiso   1.00
O303   O     0.79482   0.57142   0.24686   0.00000  Uiso   1.00
O304   O     0.99500   0.45550   0.20695   0.00000  Uiso   1.00
O305   O     0.87185   0.42858   0.25314   0.00000  Uiso   1.00
O306   O     0.89496   0.58086   0.25503   0.00000  Uiso   1.00
O307   O     0.77171   0.41914   0.24498   0.00000  Uiso   1.00
O308   O     0.75518   0.49263   0.30855   0.00000  Uiso   1.00
O309   O     0.91149   0.50737   0.19146   0.00000  Uiso   1.00
O310   O     0.85532   0.50207   0.31671   0.00000  Uiso   1.00
O311   O     0.81134   0.49793   0.18329   0.00000  Uiso   1.00
O312   O     0.67167   0.54450   0.29305   0.00000  Uiso   1.00
C313   C     0.18176   0.93339   0.25133   0.00000  Uiso   1.00
C314   C     0.20508   0.83696   0.16695   0.00000  Uiso   1.00
C315   C     0.10507   0.82180   0.38021   0.00000  Uiso   1.00
C316   C     0.22821   0.84114   0.11935   0.00000  Uiso   1.00
C317   C     0.02666   0.78001   0.44187   0.00000  Uiso   1.00
C318   C     0.31015   0.87228   0.05546   0.00000  Uiso   1.00
C319   C     0.04376   0.79391   0.39823   0.00000  Uiso   1.00
C320   C     0.29150   0.86294   0.10007   0.00000  Uiso   1.00
C321   C     0.14804   0.83768   0.40655   0.00000  Uiso   1.00
C322   C     0.18464   0.82617   0.09332   0.00000  Uiso   1.00
C323   C     0.13293   0.82247   0.45020   0.00000  Uiso   1.00
C324   C     0.15156   0.73327   0.24867   0.00000  Uiso   1.00
C325   C     0.20240   0.83412   0.04808   0.00000  Uiso   1.00
C326   C     0.07077   0.79355   0.46779   0.00000  Uiso   1.00
C327   C     0.26597   0.85908   0.02960   0.00000  Uiso   1.00
C328   C     0.17786   0.83443   0.47654   0.00000  Uiso   1.00
C329   C     0.15841   0.81977   0.02113   0.00000  Uiso   1.00
C330   C     0.09598   0.79055   0.03709   0.00000  Uiso   1.00
C331   C     0.24185   0.85948   0.45958   0.00000  Uiso   1.00
C332   C     0.05333   0.77771   0.01083   0.00000  Uiso   1.00
C333   C     0.28482   0.87124   0.48564   0.00000  Uiso   1.00
C334   C     0.19016   0.98948   0.25193   0.00000  Uiso   1.00
C335   C     0.14317   0.67719   0.24809   0.00000  Uiso   1.00
C336   C     0.12822   0.82929   0.33300   0.00000  Uiso   1.00
Cu337  Cu    0.10737   0.82775   0.24517   0.00000  Uiso   1.00
Cu338  Cu    0.22596   0.83892   0.25484   0.00000  Uiso   1.00
H339   H     0.00609   0.75517   0.02445   0.00000  Uiso   1.00
H340   H     0.26124   0.86970   0.42589   0.00000  Uiso   1.00
H341   H     0.23534   0.68020   0.25552   0.00000  Uiso   1.00
H342   H     0.09799   0.98647   0.24450   0.00000  Uiso   1.00
H343   H     0.30415   0.89556   0.30872   0.00000  Uiso   1.00
H344   H     0.02919   0.77111   0.19128   0.00000  Uiso   1.00
H345   H     0.00004   0.89022   0.47116   0.00000  Uiso   1.00
H346   H     0.13640   0.81021   0.10963   0.00000  Uiso   1.00
H347   H     0.19344   0.86137   0.39163   0.00000  Uiso   1.00
H348   H     0.32593   0.87461   0.11966   0.00000  Uiso   1.00
H349   H     0.00989   0.78129   0.37829   0.00000  Uiso   1.00
H350   H     0.31249   0.75785   0.45523   0.00000  Uiso   1.00
H351   H     0.02566   0.89064   0.04126   0.00000  Uiso   1.00
H352   H     0.07857   0.77551   0.06958   0.00000  Uiso   1.00
N353   N     0.31506   0.84735   0.26212   0.00000  Uiso   1.00
N354   N     0.01827   0.81932   0.23788   0.00000  Uiso   1.00
O355   O     0.12815   0.90476   0.24686   0.00000  Uiso   1.00
O356   O     0.32833   0.78884   0.20695   0.00000  Uiso   1.00
O357   O     0.20518   0.76191   0.25314   0.00000  Uiso   1.00
O358   O     0.22829   0.91420   0.25503   0.00000  Uiso   1.00
O359   O     0.10504   0.75247   0.24498   0.00000  Uiso   1.00
O360   O     0.08851   0.82597   0.30855   0.00000  Uiso   1.00
O361   O     0.24482   0.84070   0.19146   0.00000  Uiso   1.00
O362   O     0.18866   0.83540   0.31671   0.00000  Uiso   1.00
O363   O     0.14468   0.83126   0.18329   0.00000  Uiso   1.00
O364   O     0.00500   0.87783   0.29305   0.00000  Uiso   1.00
C365   C     0.51510   0.93339   0.25133   0.00000  Uiso   1.00
C366   C     0.53841   0.83696   0.16695   0.00000  Uiso   1.00
C367   C     0.43840   0.82180   0.38021   0.00000  Uiso   1.00
C368   C     0.56154   0.84114   0.11935   0.00000  Uiso   1.00
C369   C     0.35999   0.78001   0.44187   0.00000  Uiso   1.00
C370   C     0.64348   0.87228   0.05546   0.00000  Uiso   1.00
C371   C     0.37710   0.79391   0.39823   0.00000  Uiso   1.00
C372   C     0.62483   0.86294   0.10007   0.00000  Uiso   1.00
C373   C     0.48138   0.83768   0.40655   0.00000  Uiso   1.00
C374   C     0.51797   0.82617   0.09332   0.00000  Uiso   1.00
C375   C     0.46627   0.82247   0.45020   0.00000  Uiso   1.00
C376   C     0.48490   0.73327   0.24867   0.00000  Uiso   1.00
C377   C     0.53573   0.83412   0.04808   0.00000  Uiso   1.00
C378   C     0.40411   0.79355   0.46779   0.00000  Uiso   1.00
C379   C     0.59930   0.85908   0.02960   0.00000  Uiso   1.00
C380   C     0.51119   0.83443   0.47654   0.00000  Uiso   1.00
C381   C     0.49174   0.81977   0.02113   0.00000  Uiso   1.00
C382   C     0.42931   0.79055   0.03709   0.00000  Uiso   1.00
C383   C     0.57519   0.85948   0.45958   0.00000  Uiso   1.00
C384   C     0.38666   0.77771   0.01083   0.00000  Uiso   1.00
C385   C     0.61815   0.87124   0.48564   0.00000  Uiso   1.00
C386   C     0.52349   0.98948   0.25193   0.00000  Uiso   1.00
C387   C     0.47650   0.67719   0.24809   0.00000  Uiso   1.00
C388   C     0.46155   0.82929   0.33300   0.00000  Uiso   1.00
Cu389  Cu    0.44071   0.82775   0.24517   0.00000  Uiso   1.00
Cu390  Cu    0.55929   0.83892   0.25484   0.00000  Uiso   1.00
H391   H     0.33943   0.75517   0.02445   0.00000  Uiso   1.00
H392   H     0.59457   0.86970   0.42589   0.00000  Uiso   1.00
H393   H     0.56867   0.68020   0.25552   0.00000  Uiso   1.00
H394   H     0.43132   0.98647   0.24450   0.00000  Uiso   1.00
H395   H     0.63748   0.89556   0.30872   0.00000  Uiso   1.00
H396   H     0.36252   0.77111   0.19128   0.00000  Uiso   1.00
H397   H     0.33338   0.89022   0.47116   0.00000  Uiso   1.00
H398   H     0.46973   0.81021   0.10963   0.00000  Uiso   1.00
H399   H     0.52678   0.86137   0.39163   0.00000  Uiso   1.00
H400   H     0.65927   0.87461   0.11966   0.00000  Uiso   1.00
H401   H     0.34323   0.78129   0.37829   0.00000  Uiso   1.00
H402   H     0.64582   0.75785   0.45523   0.00000  Uiso   1.00
H403   H     0.35900   0.89064   0.04126   0.00000  Uiso   1.00
H404   H     0.41191   0.77551   0.06958   0.00000  Uiso   1.00
N405   N     0.64839   0.84735   0.26212   0.00000  Uiso   1.00
N406   N     0.35161   0.81932   0.23788   0.00000  Uiso   1.00
O407   O     0.46148   0.90476   0.24686   0.00000  Uiso   1.00
O408   O     0.66166   0.78884   0.20695   0.00000  Uiso   1.00
O409   O     0.53852   0.76191   0.25314   0.00000  Uiso   1.00
O410   O     0.56163   0.91420   0.25503   0.00000  Uiso   1.00
O411   O     0.43837   0.75247   0.24498   0.00000  Uiso   1.00
O412   O     0.42185   0.82597   0.30855   0.00000  Uiso   1.00
O413   O     0.57815   0.84070   0.19146   0.00000  Uiso   1.00
O414   O     0.52199   0.83540   0.31671   0.00000  Uiso   1.00
O415   O     0.47801   0.83126   0.18329   0.00000  Uiso   1.00
O416   O     0.33834   0.87783   0.29305   0.00000  Uiso   1.00
C417   C     0.84843   0.93339   0.25133   0.00000  Uiso   1.00
C418   C     0.87175   0.83696   0.16695   0.00000  Uiso   1.00
C419   C     0.77173   0.82180   0.38021   0.00000  Uiso   1.00
C420   C     0.89488   0.84114   0.11935   0.00000  Uiso   1.00
C421   C     0.69332   0.78001   0.44187   0.00000  Uiso   1.00
C422   C     0.97681   0.87228   0.05546   0.00000  Uiso   1.00
C423   C     0.71043   0.79391   0.39823   0.00000  Uiso   1.00
C424   C     0.95816   0.86294   0.10007   0.00000  Uiso   1.00
C425   C     0.81471   0.83768   0.40655   0.00000  Uiso   1.00
C426   C     0.85131   0.82617   0.09332   0.00000  Uiso   1.00
C427   C     0.79960   0.82247   0.45020   0.00000  Uiso   1.00
C428   C     0.81823   0.73327   0.24867   0.00000  Uiso   1.00
C429   C     0.86906   0.83412   0.04808   0.00000  Uiso   1.00
C430   C     0.73744   0.79355   0.46779   0.00000  Uiso   1.00
C431   C     0.93264   0.85908   0.02960   0.00000  Uiso   1.00
C432   C     0.84452   0.83443   0.47654   0.00000  Uiso   1.00
C433   C     0.82507   0.81977   0.02113   0.00000  Uiso   1.00
C434   C     0.76265   0.79055   0.03709   0.00000  Uiso   1.00
C435   C     0.90852   0.85948   0.45958   0.00000  Uiso   1.00
C436   C     0.71999   0.77771   0.01083   0.00000  Uiso   1.00
C437   C     0.95149   0.87124   0.48564   0.00000  Uiso   1.00
C438   C     0.85682   0.98948   0.25193   0.00000  Uiso   1.00
C439   C     0.80983   0.67719   0.24809   0.00000  Uiso   1.00
C440   C     0.79489   0.82929   0.33300   0.00000  Uiso   1.00
Cu441  Cu    0.77404   0.82775   0.24517   0.00000  Uiso   1.00
Cu442  Cu    0.89263   0.83892   0.25484   0.00000  Uiso   1.00
H443   H     0.67276   0.75517   0.02445   0.00000  Uiso   1.00
H444   H     0.92791   0.86970   0.42589   0.00000  Uiso   1.00
H445   H     0.90200   0.68020   0.25552   0.00000  Uiso   1.00
H446   H     0.76465   0.98647   0.24450   0.00000  Uiso   1.00
H447   H     0.97082   0.89556   0.30872   0.00000  Uiso   1.00
H448   H     0.69585   0.77111   0.19128   0.00000  Uiso   1.00
H449   H     0.66671   0.89022   0.47116   0.00000  Uiso   1.00
H450   H     0.80307   0.81021   0.10963   0.00000  Uiso   1.00
H451   H     0.86011   0.86137   0.39163   0.00000  Uiso   1.00
H452   H     0.99260   0.87461   0.11966   0.00000  Uiso   1.00
H453   H     0.67656   0.78129   0.37829   0.00000  Uiso   1.00
H454   H     0.97916   0.75785   0.45523   0.00000  Uiso   1.00
H455   H     0.69233   0.89064   0.04126   0.00000  Uiso   1.00
H456   H     0.74524   0.77551   0.06958   0.00000  Uiso   1.00
N457   N     0.98173   0.84735   0.26212   0.00000  Uiso   1.00
N458   N     0.68494   0.81932   0.23788   0.00000  Uiso   1.00
O459   O     0.79482   0.90476   0.24686   0.00000  Uiso   1.00
O460   O     0.99500   0.78884   0.20695   0.00000  Uiso   1.00
O461   O     0.87185   0.76191   0.25314   0.00000  Uiso   1.00
O462   O     0.89496   0.91420   0.25503   0.00000  Uiso   1.00
O463   O     0.77171   0.75247   0.24498   0.00000  Uiso   1.00
O464   O     0.75518   0.82597   0.30855   0.00000  Uiso   1.00
O465   O     0.91149   0.84070   0.19146   0.00000  Uiso   1.00
O466   O     0.85532   0.83540   0.31671   0.00000  Uiso   1.00
O467   O     0.81134   0.83126   0.18329   0.00000  Uiso   1.00
O468   O     0.67167   0.87783   0.29305   0.00000  Uiso   1.00
C469   C     0.18176   0.26673   0.75133   0.00000  Uiso   1.00
C470   C     0.20508   0.17029   0.66695   0.00000  Uiso   1.00
C471   C     0.10507   0.15514   0.88021   0.00000  Uiso   1.00
C472   C     0.22821   0.17447   0.61935   0.00000  Uiso   1.00
C473   C     0.02666   0.11334   0.94187   0.00000  Uiso   1.00
C474   C     0.31015   0.20561   0.55546   0.00000  Uiso   1.00
C475   C     0.04376   0.12725   0.89823   0.00000  Uiso   1.00
C476   C     0.29150   0.19627   0.60007   0.00000  Uiso   1.00
C477   C     0.14804   0.17101   0.90655   0.00000  Uiso   1.00
C478   C     0.18464   0.15950   0.59332   0.00000  Uiso   1.00
C479   C     0.13293   0.15580   0.95020   0.00000  Uiso   1.00
C480   C     0.15156   0.06661   0.74867   0.00000  Uiso   1.00
C481   C     0.20240   0.16746   0.54808   0.00000  Uiso   1.00
C482   C     0.07077   0.12689   0.96779   0.00000  Uiso   1.00
C483   C     0.26597   0.19241   0.52960   0.00000  Uiso   1.00
C484   C     0.17786   0.16776   0.97654   0.00000  Uiso   1.00
C485   C     0.15841   0.15310   0.52113   0.00000  Uiso   1.00
C486   C     0.09598   0.12388   0.53709   0.00000  Uiso   1.00
C487   C     0.24185   0.19281   0.95958   0.00000  Uiso   1.00
C488   C     0.05333   0.11105   0.51083   0.00000  Uiso   1.00
C489   C     0.28482   0.20458   0.98564   0.00000  Uiso   1.00
C490   C     0.19016   0.32281   0.75193   0.00000  Uiso   1.00
C491   C     0.14317   0.01052   0.74809   0.00000  Uiso   1.00
C492   C     0.12822   0.16263   0.83300   0.00000  Uiso   1.00
Cu493  Cu    0.10737   0.16108   0.74517   0.00000  Uiso   1.00
Cu494  Cu    0.22596   0.17225   0.75484   0.00000  Uiso   1.00
H495   H     0.00609   0.08851   0.52445   0.00000  Uiso   1.00
H496   H     0.26124   0.20303   0.92589   0.00000  Uiso   1.00
H497   H     0.23534   0.01353   0.75552   0.00000  Uiso   1.00
H498   H     0.09799   0.31980   0.74450   0.00000  Uiso   1.00
H499   H     0.30415   0.22889   0.80872   0.00000  Uiso   1.00
H500   H     0.02919   0.10445   0.69128   0.00000  Uiso   1.00
H501   H     0.00004   0.22355   0.97116   0.00000  Uiso   1.00
H502   H     0.13640   0.14354   0.60963   0.00000  Uiso   1.00
H503   H     0.19344   0.19471   0.89163   0.00000  Uiso   1.00
H504   H     0.32593   0.20794   0.61966   0.00000  Uiso   1.00
H505   H     0.00989   0.11462   0.87829   0.00000  Uiso   1.00
H506   H     0.31249   0.09118   0.95523   0.00000  Uiso   1.00
H507   H     0.02566   0.22397   0.54126   0.00000  Uiso   1.00
H508   H     0.07857   0.10885   0.56958   0.00000  Uiso   1.00
N509   N     0.31506   0.18068   0.76212   0.00000  Uiso   1.00
N510   N     0.01827   0.15265   0.73788   0.00000  Uiso   1.00
O511   O     0.12815   0.23809   0.74686   0.00000  Uiso   1.00
O512   O     0.32833   0.12217   0.70695   0.00000  Uiso   1.00
O513   O     0.20518   0.09524   0.75314   0.00000  Uiso   1.00
O514   O     0.22829   0.24753   0.75503   0.00000  Uiso   1.00
O515   O     0.10504   0.08580   0.74498   0.00000  Uiso   1.00
O516   O     0.08851   0.15930   0.80855   0.00000  Uiso   1.00
O517   O     0.24482   0.17403   0.69146   0.00000  Uiso   1.00
O518   O     0.18866   0.16874   0.81671   0.00000  Uiso   1.00
O519   O     0.14468   0.16460   0.68329   0.00000  Uiso   1.00
O520   O     0.00500   0.21117   0.79305   0.00000  Uiso   1.00
C521   C     0.51510   0.26673   0.75133   0.00000  Uiso   1.00
C522   C     0.53841   0.17029   0.66695   0.00000  Uiso   1.00
C523   C     0.43840   0.15514   0.88021   0.00000  Uiso   1.00
C524   C     0.56154   0.17447   0.61935   0.00000  Uiso   1.00
C525   C     0.35999   0.11334   0.94187   0.00000  Uiso   1.00
C526   C     0.64348   0.20561   0.55546   0.00000  Uiso   1.00
C527   C     0.37710   0.12725   0.89823   0.00000  Uiso   1.00
C528   C     0.62483   0.19627   0.60007   0.00000  Uiso   1.00
C529   C     0.48138   0.17101   0.90655   0.00000  Uiso   1.00
C530   C     0.51797   0.15950   0.59332   0.00000  Uiso   1.00
C531   C     0.46627   0.15580   0.95020   0.00000  Uiso   1.00
C532   C     0.48490   0.06661   0.74867   0.00000  Uiso   1.00
C533   C     0.53573   0.16746   0.54808   0.00000  Uiso   1.00
C534   C     0.40411   0.12689   0.96779   0.00000  Uiso   1.00
C535   C     0.59930   0.19241   0.52960   0.00000  Uiso   1.00
C536   C     0.51119   0.16776   0.97654   0.00000  Uiso   1.00
C537   C     0.49174   0.15310   0.52113   0.00000  Uiso   1.00
C538   C     0.42931   0.12388   0.53709   0.00000  Uiso   1.00
C539   C     0.57519   0.19281   0.95958   0.00000  Uiso   1.00
C540   C     0.38666   0.11105   0.51083   0.00000  Uiso   1.00
C541   C     0.61815   0.20458   0.98564   0.00000  Uiso   1.00
C542   C     0.52349   0.32281   0.75193   0.00000  Uiso   1.00
C543   C     0.47650   0.01052   0.74809   0.00000  Uiso   1.00
C544   C     0.46155   0.16263   0.83300   0.00000  Uiso   1.00
Cu545  Cu    0.44071   0.16108   0.74517   0.00000  Uiso   1.00
Cu546  Cu    0.55929   0.17225   0.75484   0.00000  Uiso   1.00
H547   H     0.33943   0.08851   0.52445   0.00000  Uiso   1.00
H548   H     0.59457   0.20303   0.92589   0.00000  Uiso   1.00
H549   H     0.56867   0.01353   0.75552   0.00000  Uiso   1.00
H550   H     0.43132   0.31980   0.74450   0.00000  Uiso   1.00
H551   H     0.63748   0.22889   0.80872   0.00000  Uiso   1.00
H552   H     0.36252   0.10445   0.69128   0.00000  Uiso   1.00
H553   H     0.33338   0.22355   0.97116   0.00000  Uiso   1.00
H554   H     0.46973   0.14354   0.60963   0.00000  Uiso   1.00
H555   H     0.52678   0.19471   0.89163   0.00000  Uiso   1.00
H556   H     0.65927   0.20794   0.61966   0.00000  Uiso   1.00
H557   H     0.34323   0.11462   0.87829   0.00000  Uiso   1.00
H558   H     0.64582   0.09118   0.95523   0.00000  Uiso   1.00
H559   H     0.35900   0.22397   0.54126   0.00000  Uiso   1.00
H560   H     0.41191   0.10885   0.56958   0.00000  Uiso   1.00
N561   N     0.64839   0.18068   0.76212   0.00000  Uiso   1.00
N562   N     0.35161   0.15265   0.73788   0.00000  Uiso   1.00
O563   O     0.46148   0.23809   0.74686   0.00000  Uiso   1.00
O564   O     0.66166   0.12217   0.70695   0.00000  Uiso   1.00
O565   O     0.53852   0.09524   0.75314   0.00000  Uiso   1.00
O566   O     0.56163   0.24753   0.75503   0.00000  Uiso   1.00
O567   O     0.43837   0.08580   0.74498   0.00000  Uiso   1.00
O568   O     0.42185   0.15930   0.80855   0.00000  Uiso   1.00
O569   O     0.57815   0.17403   0.69146   0.00000  Uiso   1.00
O570   O     0.52199   0.16874   0.81671   0.00000  Uiso   1.00
O571   O     0.47801   0.16460   0.68329   0.00000  Uiso   1.00
O572   O     0.33834   0.21117   0.79305   0.00000  Uiso   1.00
C573   C     0.84843   0.26673   0.75133   0.00000  Uiso   1.00
C574   C     0.87175   0.17029   0.66695   0.00000  Uiso   1.00
C575   C     0.77173   0.15514   0.88021   0.00000  Uiso   1.00
C576   C     0.89488   0.17447   0.61935   0.00000  Uiso   1.00
C577   C     0.69332   0.11334   0.94187   0.00000  Uiso   1.00
C578   C     0.97681   0.20561   0.55546   0.00000  Uiso   1.00
C579   C     0.71043   0.12725   0.89823   0.00000  Uiso   1.00
C580   C     0.95816   0.19627   0.60007   0.00000  Uiso   1.00
C581   C     0.81471   0.17101   0.90655   0.00000  Uiso   1.00
C582   C     0.85131   0.15950   0.59332   0.00000  Uiso   1.00
C583   C     0.79960   0.15580   0.95020   0.00000  Uiso   1.00
C584   C     0.81823   0.06661   0.74867   0.00000  Uiso   1.00
C585   C     0.86906   0.16746   0.54808   0.00000  Uiso   1.00
C586   C     0.73744   0.12689   0.96779   0.00000  Uiso   1.00
C587   C     0.93264   0.19241   0.52960   0.00000  Uiso   1.00
C588   C     0.84452   0.16776   0.97654   0.00000  Uiso   1.00
C589   C     0.82507   0.15310   0.52113   0.00000  Uiso   1.00
C590   C     0.76265   0.12388   0.53709   0.00000  Uiso   1.00
C591   C     0.90852   0.19281   0.95958   0.00000  Uiso   1.00
C592   C     0.71999   0.11105   0.51083   0.00000  Uiso   1.00
C593   C     0.95149   0.20458   0.98564   0.00000  Uiso   1.00
C594   C     0.85682   0.32281   0.75193   0.00000  Uiso   1.00
C595   C     0.80983   0.01052   0.74809   0.00000  Uiso   1.00
C596   C     0.79489   0.16263   0.83300   0.00000  Uiso   1.00
Cu597  Cu    0.77404   0.16108   0.74517   0.00000  Uiso   1.00
Cu598  Cu    0.89263   0.17225   0.75484   0.00000  Uiso   1.00
H599   H     0.67276   0.08851   0.52445   0.00000  Uiso   1.00
H600   H     0.92791   0.20303   0.92589   0.00000  Uiso   1.00
H601   H     0.90200   0.01353   0.75552   0.00000  Uiso   1.00
H602   H     0.76465   0.31980   0.74450   0.00000  Uiso   1.00
H603   H     0.97082   0.22889   0.80872   0.00000  Uiso   1.00
H604   H     0.69585   0.10445   0.69128   0.00000  Uiso   1.00
H605   H     0.66671   0.22355   0.97116   0.00000  Uiso   1.00
H606   H     0.80307   0.14354   0.60963   0.00000  Uiso   1.00
H607   H     0.86011   0.19471   0.89163   0.00000  Uiso   1.00
H608   H     0.99260   0.20794   0.61966   0.00000  Uiso   1.00
H609   H     0.67656   0.11462   0.87829   0.00000  Uiso   1.00
H610   H     0.97916   0.09118   0.95523   0.00000  Uiso   1.00
H611   H     0.69233   0.22397   0.54126   0.00000  Uiso   1.00
H612   H     0.74524   0.10885   0.56958   0.00000  Uiso   1.00
N613   N     0.98173   0.18068   0.76212   0.00000  Uiso   1.00
N614   N     0.68494   0.15265   0.73788   0.00000  Uiso   1.00
O615   O     0.79482   0.23809   0.74686   0.00000  Uiso   1.00
O616   O     0.99500   0.12217   0.70695   0.00000  Uiso   1.00
O617   O     0.87185   0.09524   0.75314   0.00000  Uiso   1.00
O618   O     0.89496   0.24753   0.75503   0.00000  Uiso   1.00
O619   O     0.77171   0.08580   0.74498   0.00000  Uiso   1.00
O620   O     0.75518   0.15930   0.80855   0.00000  Uiso   1.00
O621   O     0.91149   0.17403   0.69146   0.00000  Uiso   1.00
O622   O     0.85532   0.16874   0.81671   0.00000  Uiso   1.00
O623   O     0.81134   0.16460   0.68329   0.00000  Uiso   1.00
O624   O     0.67167   0.21117   0.79305   0.00000  Uiso   1.00
C625   C     0.18176   0.60006   0.75133   0.00000  Uiso   1.00
C626   C     0.20508   0.50363   0.66695   0.00000  Uiso   1.00
C627   C     0.10507   0.48847   0.88021   0.00000  Uiso   1.00
C628   C     0.22821   0.50780   0.61935   0.00000  Uiso   1.00
C629   C     0.02666   0.44668   0.94187   0.00000  Uiso   1.00
C630   C     0.31015   0.53895   0.55546   0.00000  Uiso   1.00
C631   C     0.04376   0.46058   0.89823   0.00000  Uiso   1.00
C632   C     0.29150   0.52960   0.60007   0.00000  Uiso   1.00
C633   C     0.14804   0.50434   0.90655   0.00000  Uiso   1.00
C634   C     0.18464   0.49283   0.59332   0.00000  Uiso   1.00
C635   C     0.13293   0.48913   0.95020   0.00000  Uiso   1.00
C636   C     0.15156   0.39994   0.74867   0.00000  Uiso   1.00
C637   C     0.20240   0.50079   0.54808   0.00000  Uiso   1.00
C638   C     0.07077   0.46022   0.96779   0.00000  Uiso   1.00
C639   C     0.26597   0.52574   0.52960   0.00000  Uiso   1.00
C640   C     0.17786   0.50109   0.97654   0.00000  Uiso   1.00
C641   C     0.15841   0.48644   0.52113   0.00000  Uiso   1.00
C642   C     0.09598   0.45722   0.53709   0.00000  Uiso   1.00
C643   C     0.24185   0.52615   0.95958   0.00000  Uiso   1.00
C644   C     0.05333   0.44438   0.51083   0.00000  Uiso   1.00
C645   C     0.28482   0.53791   0.98564   0.00000  Uiso   1.00
C646   C     0.19016   0.65614   0.75193   0.00000  Uiso   1.00
C647   C     0.14317   0.34386   0.74809   0.00000  Uiso   1.00
C648   C     0.12822   0.49596   0.83300   0.00000  Uiso   1.00
Cu649  Cu    0.10737   0.49441   0.74517   0.00000  Uiso   1.00
Cu650  Cu    0.22596   0.50559   0.75484   0.00000  Uiso   1.00
H651   H     0.00609   0.42184   0.52445   0.00000  Uiso   1.00
H652   H     0.26124   0.53637   0.92589   0.00000  Uiso   1.00
H653   H     0.23534   0.34687   0.75552   0.00000  Uiso   1.00
H654   H     0.09799   0.65313   0.74450   0.00000  Uiso   1.00
H655   H     0.30415   0.56222   0.80872   0.00000  Uiso   1.00
H656   H     0.02919   0.43778   0.69128   0.00000  Uiso   1.00
H657   H     0.00004   0.55689   0.97116   0.00000  Uiso   1.00
H658   H     0.13640   0.47688   0.60963   0.00000  Uiso   1.00
H659   H     0.19344   0.52804   0.89163   0.00000  Uiso   1.00
H660   H     0.32593   0.54127   0.61966   0.00000  Uiso   1.00
H661   H     0.00989   0.44795   0.87829   0.00000  Uiso   1.00
H662   H     0.31249   0.42452   0.95523   0.00000  Uiso   1.00
H663   H     0.02566   0.55731   0.54126   0.00000  Uiso   1.00
H664   H     0.07857   0.44218   0.56958   0.00000  Uiso   1.00
N665   N     0.31506   0.51401   0.76212   0.00000  Uiso   1.00
N666   N     0.01827   0.48599   0.73788   0.00000  Uiso   1.00
O667   O     0.12815   0.57142   0.74686   0.00000  Uiso   1.00
O668   O     0.32833   0.45550   0.70695   0.00000  Uiso   1.00
O669   O     0.20518   0.42858   0.75314   0.00000  Uiso   1.00
O670   O     0.22829   0.58086   0.75503   0.00000  Uiso   1.00
O671   O     0.10504   0.41914   0.74498   0.00000  Uiso   1.00
O672   O     0.08851   0.49263   0.80855   0.00000  Uiso   1.00
O673   O     0.24482   0.50737   0.69146   0.00000  Uiso   1.00
O674   O     0.18866   0.50207   0.81671   0.00000  Uiso   1.00
O675   O     0.14468   0.49793   0.68329   0.00000  Uiso   1.00
O676   O     0.00500   0.54450   0.79305   0.00000  Uiso   1.00
C677   C     0.51510   0.60006   0.75133   0.00000  Uiso   1.00
C678   C     0.53841   0.50363   0.66695   0.00000  Uiso   1.00
C679   C     0.43840   0.48847   0.88021   0.00000  Uiso   1.00
C680   C     0.56154   0.50780   0.61935   0.00000  Uiso   1.00
C681   C     0.35999   0.44668   0.94187   0.00000  Uiso   1.00
C682   C     0.64348   0.53895   0.55546   0.00000  Uiso   1.00
C683   C     0.37710   0.46058   0.89823   0.00000  Uiso   1.00
C684   C     0.62483   0.52960   0.60007   0.00000  Uiso   1.00
C685   C     0.48138   0.50434   0.90655   0.00000  Uiso   1.00
C686   C     0.51797   0.49283   0.59332   0.00000  Uiso   1.00
C687   C     0.46627   0.48913   0.95020   0.00000  Uiso   1.00
C688   C     0.48490   0.39994   0.74867   0.00000  Uiso   1.00
C689   C     0.53573   0.50079   0.54808   0.00000  Uiso   1.00
C690   C     0.40411   0.46022   0.96779   0.00000  Uiso   1.00
C691   C     0.59930   0.52574   0.52960   0.00000  Uiso   1.00
C692   C     0.51119   0.50109   0.97654   0.00000  Uiso   1.00
C693   C     0.49174   0.48644   0.52113   0.00000  Uiso   1.00
C694   C     0.42931   0.45722   0.53709   0.00000  Uiso   1.00
C695   C     0.57519   0.52615   0.95958   0.00000  Uiso   1.00
C696   C     0.38666   0.44438   0.51083   0.00000  Uiso   1.00
C697   C     0.61815   0.53791   0.98564   0.00000  Uiso   1.00
C698   C     0.52349   0.65614   0.75193   0.00000  Uiso   1.00
C699   C     0.47650   0.34386   0.74809   0.00000  Uiso   1.00
C700   C     0.46155   0.49596   0.83300   0.00000  Uiso   1.00
Cu701  Cu    0.44071   0.49441   0.74517   0.00000  Uiso   1.00
Cu702  Cu    0.55929   0.50559   0.75484   0.00000  Uiso   1.00
H703   H     0.33943   0.42184   0.52445   0.00000  Uiso   1.00
H704   H     0.59457   0.53637   0.92589   0.00000  Uiso   1.00
H705   H     0.56867   0.34687   0.75552   0.00000  Uiso   1.00
H706   H     0.43132   0.65313   0.74450   0.00000  Uiso   1.00
H707   H     0.63748   0.56222   0.80872   0.00000  Uiso   1.00
H708   H     0.36252   0.43778   0.69128   0.00000  Uiso   1.00
H709   H     0.33338   0.55689   0.97116   0.00000  Uiso   1.00
H710   H     0.46973   0.47688   0.60963   0.00000  Uiso   1.00
H711   H     0.52678   0.52804   0.89163   0.00000  Uiso   1.00
H712   H     0.65927   0.54127   0.61966   0.00000  Uiso   1.00
H713   H     0.34323   0.44795   0.87829   0.00000  Uiso   1.00
H714   H     0.64582   0.42452   0.95523   0.00000  Uiso   1.00
H715   H     0.35900   0.55731   0.54126   0.00000  Uiso   1.00
H716   H     0.41191   0.44218   0.56958   0.00000  Uiso   1.00
N717   N     0.64839   0.51401   0.76212   0.00000  Uiso   1.00
N718   N     0.35161   0.48599   0.73788   0.00000  Uiso   1.00
O719   O     0.46148   0.57142   0.74686   0.00000  Uiso   1.00
O720   O     0.66166   0.45550   0.70695   0.00000  Uiso   1.00
O721   O     0.53852   0.42858   0.75314   0.00000  Uiso   1.00
O722   O     0.56163   0.58086   0.75503   0.00000  Uiso   1.00
O723   O     0.43837   0.41914   0.74498   0.00000  Uiso   1.00
O724   O     0.42185   0.49263   0.80855   0.00000  Uiso   1.00
O725   O     0.57815   0.50737   0.69146   0.00000  Uiso   1.00
O726   O     0.52199   0.50207   0.81671   0.00000  Uiso   1.00
O727   O     0.47801   0.49793   0.68329   0.00000  Uiso   1.00
O728   O     0.33834   0.54450   0.79305   0.00000  Uiso   1.00
C729   C     0.84843   0.60006   0.75133   0.00000  Uiso   1.00
C730   C     0.87175   0.50363   0.66695   0.00000  Uiso   1.00
C731   C     0.77173   0.48847   0.88021   0.00000  Uiso   1.00
C732   C     0.89488   0.50780   0.61935   0.00000  Uiso   1.00
C733   C     0.69332   0.44668   0.94187   0.00000  Uiso   1.00
C734   C     0.97681   0.53895   0.55546   0.00000  Uiso   1.00
C735   C     0.71043   0.46058   0.89823   0.00000  Uiso   1.00
C736   C     0.95816   0.52960   0.60007   0.00000  Uiso   1.00
C737   C     0.81471   0.50434   0.90655   0.00000  Uiso   1.00
C738   C     0.85131   0.49283   0.59332   0.00000  Uiso   1.00
C739   C     0.79960   0.48913   0.95020   0.00000  Uiso   1.00
C740   C     0.81823   0.39994   0.74867   0.00000  Uiso   1.00
C741   C     0.86906   0.50079   0.54808   0.00000  Uiso   1.00
C742   C     0.73744   0.46022   0.96779   0.00000  Uiso   1.00
C743   C     0.93264   0.52574   0.52960   0.00000  Uiso   1.00
C744   C     0.84452   0.50109   0.97654   0.00000  Uiso   1.00
C745   C     0.82507   0.48644   0.52113   0.00000  Uiso   1.00
C746   C     0.76265   0.45722   0.53709   0.00000  Uiso   1.00
C747   C     0.90852   0.52615   0.95958   0.00000  Uiso   1.00
C748   C     0.71999   0.44438   0.51083   0.00000  Uiso   1.00
C749   C     0.95149   0.53791   0.98564   0.00000  Uiso   1.00
C750   C     0.85682   0.65614   0.75193   0.00000  Uiso   1.00
C751   C     0.80983   0.34386   0.74809   0.00000  Uiso   1.00
C752   C     0.79489   0.49596   0.83300   0.00000  Uiso   1.00
Cu753  Cu    0.77404   0.49441   0.74517   0.00000  Uiso   1.00
Cu754  Cu    0.89263   0.50559   0.75484   0.00000  Uiso   1.00
H755   H     0.67276   0.42184   0.52445   0.00000  Uiso   1.00
H756   H     0.92791   0.53637   0.92589   0.00000  Uiso   1.00
H757   H     0.90200   0.34687   0.75552   0.00000  Uiso   1.00
H758   H     0.76465   0.65313   0.74450   0.00000  Uiso   1.00
H759   H     0.97082   0.56222   0.80872   0.00000  Uiso   1.00
H760   H     0.69585   0.43778   0.69128   0.00000  Uiso   1.00
H761   H     0.66671   0.55689   0.97116   0.00000  Uiso   1.00
H762   H     0.80307   0.47688   0.60963   0.00000  Uiso   1.00
H763   H     0.86011   0.52804   0.89163   0.00000  Uiso   1.00
H764   H     0.99260   0.54127   0.61966   0.00000  Uiso   1.00
H765   H     0.67656   0.44795   0.87829   0.00000  Uiso   1.00
H766   H     0.97916   0.42452   0.95523   0.00000  Uiso   1.00
H767   H     0.69233   0.55731   0.54126   0.00000  Uiso   1.00
H768   H     0.74524   0.44218   0.56958   0.00000  Uiso   1.00
N769   N     0.98173   0.51401   0.76212   0.00000  Uiso   1.00
N770   N     0.68494   0.48599   0.73788   0.00000  Uiso   1.00
O771   O     0.79482   0.57142   0.74686   0.00000  Uiso   1.00
O772   O     0.99500   0.45550   0.70695   0.00000  Uiso   1.00
O773   O     0.87185   0.42858   0.75314   0.00000  Uiso   1.00
O774   O     0.89496   0.58086   0.75503   0.00000  Uiso   1.00
O775   O     0.77171   0.41914   0.74498   0.00000  Uiso   1.00
O776   O     0.75518   0.49263   0.80855   0.00000  Uiso   1.00
O777   O     0.91149   0.50737   0.69146   0.00000  Uiso   1.00
O778   O     0.85532   0.50207   0.81671   0.00000  Uiso   1.00
O779   O     0.81134   0.49793   0.68329   0.00000  Uiso   1.00
O780   O     0.67167   0.54450   0.79305   0.00000  Uiso   1.00
C781   C     0.18176   0.93339   0.75133   0.00000  Uiso   1.00
C782   C     0.20508   0.83696   0.66695   0.00000  Uiso   1.00
C783   C     0.10507   0.82180   0.88021   0.00000  Uiso   1.00
C784   C     0.22821   0.84114   0.61935   0.00000  Uiso   1.00
C785   C     0.02666   0.78001   0.94187   0.00000  Uiso   1.00
C786   C     0.31015   0.87228   0.55546   0.00000  Uiso   1.00
C787   C     0.04376   0.79391   0.89823   0.00000  Uiso   1.00
C788   C     0.29150   0.86294   0.60007   0.00000  Uiso   1.00
C789   C     0.14804   0.83768   0.90655   0.00000  Uiso   1.00
C790   C     0.18464   0.82617   0.59332   0.00000  Uiso   1.00
C791   C     0.13293   0.82247   0.95020   0.00000  Uiso   1.00
C792   C     0.15156   0.73327   0.74867   0.00000  Uiso   1.00
C793   C     0.20240   0.83412   0.54808   0.00000  Uiso   1.00
C794   C     0.07077   0.79355   0.96779   0.00000  Uiso   1.00
C795   C     0.26597   0.85908   0.52960   0.00000  Uiso   1.00
C796   C     0.17786   0.83443   0.97654   0.00000  Uiso   1.00
C797   C     0.15841   0.81977   0.52113   0.00000  Uiso   1.00
C798   C     0.09598   0.79055   0.53709   0.00000  Uiso   1.00
C799   C     0.24185   0.85948   0.95958   0.00000  Uiso   1.00
C800   C     0.05333   0.77771   0.51083   0.00000  Uiso   1.00
C801   C     0.28482   0.87124   0.98564   0.00000  Uiso   1.00
C802   C     0.19016   0.98948   0.75193   0.00000  Uiso   1.00
C803   C     0.14317   0.67719   0.74809   0.00000  Uiso   1.00
C804   C     0.12822   0.82929   0.83300   0.00000  Uiso   1.00
Cu805  Cu    0.10737   0.82775   0.74517   0.00000  Uiso   1.00
Cu806  Cu    0.22596   0.83892   0.75484   0.00000  Uiso   1.00
H807   H     0.00609   0.75517   0.52445   0.00000  Uiso   1.00
H808   H     0.26124   0.86970   0.92589   0.00000  Uiso   1.00
H809   H     0.23534   0.68020   0.75552   0.00000  Uiso   1.00
H810   H     0.09799   0.98647   0.74450   0.00000  Uiso   1.00
H811   H     0.30415   0.89556   0.80872   0.00000  Uiso   1.00
H812   H     0.02919   0.77111   0.69128   0.00000  Uiso   1.00
H813   H     0.00004   0.89022   0.97116   0.00000  Uiso   1.00
H814   H     0.13640   0.81021   0.60963   0.00000  Uiso   1.00
H815   H     0.19344   0.86137   0.89163   0.00000  Uiso   1.00
H816   H     0.32593   0.87461   0.61966   0.00000  Uiso   1.00
H817   H     0.00989   0.78129   0.87829   0.00000  Uiso   1.00
H818   H     0.31249   0.75785   0.95523   0.00000  Uiso   1.00
H819   H     0.02566   0.89064   0.54126   0.00000  Uiso   1.00
H820   H     0.07857   0.77551   0.56958   0.00000  Uiso   1.00
N821   N     0.31506   0.84735   0.76212   0.00000  Uiso   1.00
N822   N     0.01827   0.81932   0.73788   0.00000  Uiso   1.00
O823   O     0.12815   0.90476   0.74686   0.00000  Uiso   1.00
O824   O     0.32833   0.78884   0.70695   0.00000  Uiso   1.00
O825   O     0.20518   0.76191   0.75314   0.00000  Uiso   1.00
O826   O     0.22829   0.91420   0.75503   0.00000  Uiso   1.00
O827   O     0.10504   0.75247   0.74498   0.00000  Uiso   1.00
O828   O     0.08851   0.82597   0.80855   0.00000  Uiso   1.00
O829   O     0.24482   0.84070   0.69146   0.00000  Uiso   1.00
O830   O     0.18866   0.83540   0.81671   0.00000  Uiso   1.00
O831   O     0.14468   0.83126   0.68329   0.00000  Uiso   1.00
O832   O     0.00500   0.87783   0.79305   0.00000  Uiso   1.00
C833   C     0.51510   0.93339   0.75133   0.00000  Uiso   1.00
C834   C     0.53841   0.83696   0.66695   0.00000  Uiso   1.00
C835   C     0.43840   0.82180   0.88021   0.00000  Uiso   1.00
C836   C     0.56154   0.84114   0.61935   0.00000  Uiso   1.00
C837   C     0.35999   0.78001   0.94187   0.00000  Uiso   1.00
C838   C     0.64348   0.87228   0.55546   0.00000  Uiso   1.00
C839   C     0.37710   0.79391   0.89823   0.00000  Uiso   1.00
C840   C     0.62483   0.86294   0.60007   0.00000  Uiso   1.00
C841   C     0.48138   0.83768   0.90655   0.00000  Uiso   1.00
C842   C     0.51797   0.82617   0.59332   0.00000  Uiso   1.00
C843   C     0.46627   0.82247   0.95020   0.00000  Uiso   1.00
C844   C     0.48490   0.73327   0.74867   0.00000  Uiso   1.00
C845   C     0.53573   0.83412   0.54808   0.00000  Uiso   1.00
C846   C     0.40411   0.79355   0.96779   0.00000  Uiso   1.00
C847   C     0.59930   0.85908   0.52960   0.00000  Uiso   1.00
C848   C     0.51119   0.83443   0.97654   0.00000  Uiso   1.00
C849   C     0.49174   0.81977   0.52113   0.00000  Uiso   1.00
C850   C     0.42931   0.79055   0.53709   0.00000  Uiso   1.00
C851   C     0.57519   0.85948   0.95958   0.00000  Uiso   1.00
C852   C     0.38666   0.77771   0.51083   0.00000  Uiso   1.00
C853   C     0.61815   0.87124   0.98564   0.00000  Uiso   1.00
C854   C     0.52349   0.98948   0.75193   0.00000  Uiso   1.00
C855   C     0.47650   0.67719   0.74809   0.00000  Uiso   1.00
C856   C     0.46155   0.82929   0.83300   0.00000  Uiso   1.00
Cu857  Cu    0.44071   0.82775   0.74517   0.00000  Uiso   1.00
Cu858  Cu    0.55929   0.83892   0.75484   0.00000  Uiso   1.00
H859   H     0.33943   0.75517   0.52445   0.00000  Uiso   1.00
H860   H     0.59457   0.86970   0.92589   0.00000  Uiso   1.00
H861   H     0.56867   0.68020   0.75552   0.00000  Uiso   1.00
H862   H     0.43132   0.98647   0.74450   0.00000  Uiso   1.00
H863   H     0.63748   0.89556   0.80872   0.00000  Uiso   1.00
H864   H     0.36252   0.77111   0.69128   0.00000  Uiso   1.00
H865   H     0.33338   0.89022   0.97116   0.00000  Uiso   1.00
H866   H     0.46973   0.81021   0.60963   0.00000  Uiso   1.00
H867   H     0.52678   0.86137   0.89163   0.00000  Uiso   1.00
H868   H     0.65927   0.87461   0.61966   0.00000  Uiso   1.00
H869   H     0.34323   0.78129   0.87829   0.00000  Uiso   1.00
H870   H     0.64582   0.75785   0.95523   0.00000  Uiso   1.00
H871   H     0.35900   0.89064   0.54126   0.00000  Uiso   1.00
H872   H     0.41191   0.77551   0.56958   0.00000  Uiso   1.00
N873   N     0.64839   0.84735   0.76212   0.00000  Uiso   1.00
N874   N     0.35161   0.81932   0.73788   0.00000  Uiso   1.00
O875   O     0.46148   0.90476   0.74686   0.00000  Uiso   1.00
O876   O     0.66166   0.78884   0.70695   0.00000  Uiso   1.00
O877   O     0.53852   0.76191   0.75314   0.00000  Uiso   1.00
O878   O     0.56163   0.91420   0.75503   0.00000  Uiso   1.00
O879   O     0.43837   0.75247   0.74498   0.00000  Uiso   1.00
O880   O     0.42185   0.82597   0.80855   0.00000  Uiso   1.00
O881   O     0.57815   0.84070   0.69146   0.00000  Uiso   1.00
O882   O     0.52199   0.83540   0.81671   0.00000  Uiso   1.00
O883   O     0.47801   0.83126   0.68329   0.00000  Uiso   1.00
O884   O     0.33834   0.87783   0.79305   0.00000  Uiso   1.00
C885   C     0.84843   0.93339   0.75133   0.00000  Uiso   1.00
C886   C     0.87175   0.83696   0.66695   0.00000  Uiso   1.00
C887   C     0.77173   0.82180   0.88021   0.00000  Uiso   1.00
C888   C     0.89488   0.84114   0.61935   0.00000  Uiso   1.00
C889   C     0.69332   0.78001   0.94187   0.00000  Uiso   1.00
C890   C     0.97681   0.87228   0.55546   0.00000  Uiso   1.00
C891   C     0.71043   0.79391   0.89823   0.00000  Uiso   1.00
C892   C     0.95816   0.86294   0.60007   0.00000  Uiso   1.00
C893   C     0.81471   0.83768   0.90655   0.00000  Uiso   1.00
C894   C     0.85131   0.82617   0.59332   0.00000  Uiso   1.00
C895   C     0.79960   0.82247   0.95020   0.00000  Uiso   1.00
C896   C     0.81823   0.73327   0.74867   0.00000  Uiso   1.00
C897   C     0.86906   0.83412   0.54808   0.00000  Uiso   1.00
C898   C     0.73744   0.79355   0.96779   0.00000  Uiso   1.00
C899   C     0.93264   0.85908   0.52960   0.00000  Uiso   1.00
C900   C     0.84452   0.83443   0.97654   0.00000  Uiso   1.00
C901   C     0.82507   0.81977   0.52113   0.00000  Uiso   1.00
C902   C     0.76265   0.79055   0.53709   0.00000  Uiso   1.00
C903   C     0.90852   0.85948   0.95958   0.00000  Uiso   1.00
C904   C     0.71999   0.77771   0.51083   0.00000  Uiso   1.00
C905   C     0.95149   0.87124   0.98564   0.00000  Uiso   1.00
C906   C     0.85682   0.98948   0.75193   0.00000  Uiso   1.00
C907   C     0.80983   0.67719   0.74809   0.00000  Uiso   1.00
C908   C     0.79489   0.82929   0.83300   0.00000  Uiso   1.00
Cu909  Cu    0.77404   0.82775   0.74517   0.00000  Uiso   1.00
Cu910  Cu    0.89263   0.83892   0.75484   0.00000  Uiso   1.00
H911   H     0.67276   0.75517   0.52445   0.00000  Uiso   1.00
H912   H     0.92791   0.86970   0.92589   0.00000  Uiso   1.00
H913   H     0.90200   0.68020   0.75552   0.00000  Uiso   1.00
H914   H     0.76465   0.98647   0.74450   0.00000  Uiso   1.00
H915   H     0.97082   0.89556   0.80872   0.00000  Uiso   1.00
H916   H     0.69585   0.77111   0.69128   0.00000  Uiso   1.00
H917   H     0.66671   0.89022   0.97116   0.00000  Uiso   1.00
H918   H     0.80307   0.81021   0.60963   0.00000  Uiso   1.00
H919   H     0.86011   0.86137   0.89163   0.00000  Uiso   1.00
H920   H     0.99260   0.87461   0.61966   0.00000  Uiso   1.00
H921   H     0.67656   0.78129   0.87829   0.00000  Uiso   1.00
H922   H     0.97916   0.75785   0.95523   0.00000  Uiso   1.00
H923   H     0.69233   0.89064   0.54126   0.00000  Uiso   1.00
H924   H     0.74524   0.77551   0.56958   0.00000  Uiso   1.00
N925   N     0.98173   0.84735   0.76212   0.00000  Uiso   1.00
N926   N     0.68494   0.81932   0.73788   0.00000  Uiso   1.00
O927   O     0.79482   0.90476   0.74686   0.00000  Uiso   1.00
O928   O     0.99500   0.78884   0.70695   0.00000  Uiso   1.00
O929   O     0.87185   0.76191   0.75314   0.00000  Uiso   1.00
O930   O     0.89496   0.91420   0.75503   0.00000  Uiso   1.00
O931   O     0.77171   0.75247   0.74498   0.00000  Uiso   1.00
O932   O     0.75518   0.82597   0.80855   0.00000  Uiso   1.00
O933   O     0.91149   0.84070   0.69146   0.00000  Uiso   1.00
O934   O     0.85532   0.83540   0.81671   0.00000  Uiso   1.00
O935   O     0.81134   0.83126   0.68329   0.00000  Uiso   1.00
O936   O     0.67167   0.87783   0.79305   0.00000  Uiso   1.00
loop_
_geom_bond_atom_site_label_1
_geom_bond_atom_site_label_2
_geom_bond_distance
_geom_bond_site_symmetry_2
_ccdc_geom_bond_type
C1     C22     1.429   .     S
C1     O46     1.292   .     A
C1     O43     1.293   .     A
C2     C4      1.468   .     S
C2     O49     1.304   .     A
C2     O51     1.300   .     A
C3     C9      1.398   .     A
C3     C7      1.398   .     A
C3     C24     1.466   .     S
C4     C8      1.399   .     A
C4     C10     1.400   .     A
C5     C14     1.405   .     A
C5     C7      1.392   .     A
C5     H142    1.084   1_455 S
C6     C8      1.392   .     A
C6     C15     1.404   .     A
C6     H91     1.084   .     S
C7     H37     1.083   .     S
C8     H36     1.083   .     S
C9     C11     1.405   .     A
C9     H35     1.075   .     S
C10    H34     1.075   .     S
C10    C13     1.405   .     A
C11    C14     1.418   .     A
C11    C16     1.428   .     A
C12    C23     1.429   .     S
C12    O47     1.292   .     A
C12    O45     1.293   .     A
C13    C17     1.428   .     A
C13    C15     1.418   .     A
C14    C488    1.390   .     S
C15    C489    1.389   1_554 S
C16    C19     1.417   .     A
C16    C485    1.425   .     S
C17    C18     1.417   .     A
C17    C484    1.425   1_554 S
C18    C20     1.386   .     A
C18    H40     1.076   .     S
C19    H28     1.076   .     S
C19    C21     1.387   .     A
C20    H27     1.084   .     S
C20    C482    1.390   1_554 S
C21    C483    1.389   .     S
C21    H85     1.085   .     S
C22    C179    1.331   .     S
C22    H185    1.088   .     S
C23    C334    1.331   1_545 S
C23    H342    1.088   1_545 S
C24    O50     1.299   .     A
C24    O48     1.304   .     A
Cu25   N42     2.028   .     S
Cu25   O51     1.925   .     S
Cu25   O47     1.951   .     S
Cu25   O48     1.944   .     S
Cu25   O43     1.952   .     S
Cu25   Cu26    2.700   .     S
Cu26   O50     1.925   .     S
Cu26   O46     1.951   .     S
Cu26   O49     1.944   .     S
Cu26   O45     1.952   .     S
Cu26   N41     2.028   .     S
H29    C334    1.088   1_545 S
H30    C179    1.088   .     S
H31    O104    0.990   .     S
H32    O148    0.990   1_455 S
H33    C125    1.085   1_455 S
H38    C57     1.084   .     S
H39    C110    1.084   1_455 S
N41    N94     1.287   .     S
N41    O104    1.338   .     S
N42    N145    1.287   1_455 S
N42    O148    1.338   1_455 S
O44    H84     0.990   .     S
O44    N94     1.338   .     S
O52    H135    0.990   1_455 S
O52    N145    1.338   1_455 S
C53    C74     1.429   .     S
C53    O98     1.292   .     A
C53    O95     1.293   .     A
C54    C56     1.468   .     S
C54    O101    1.304   .     A
C54    O103    1.300   .     A
C55    C61     1.398   .     A
C55    C59     1.398   .     A
C55    C76     1.466   .     S
C56    C60     1.399   .     A
C56    C62     1.400   .     A
C57    C66     1.405   .     A
C57    C59     1.392   .     A
C58    C60     1.392   .     A
C58    C67     1.404   .     A
C58    H143    1.084   .     S
C59    H89     1.083   .     S
C60    H88     1.083   .     S
C61    C63     1.405   .     A
C61    H87     1.075   .     S
C62    H86     1.075   .     S
C62    C65     1.405   .     A
C63    C66     1.418   .     A
C63    C68     1.428   .     A
C64    C75     1.429   .     S
C64    O99     1.292   .     A
C64    O97     1.293   .     A
C65    C69     1.428   .     A
C65    C67     1.418   .     A
C66    C540    1.390   .     S
C67    C541    1.389   1_554 S
C68    C71     1.417   .     A
C68    C537    1.425   .     S
C69    C70     1.417   .     A
C69    C536    1.425   1_554 S
C70    C72     1.386   .     A
C70    H92     1.076   .     S
C71    H80     1.076   .     S
C71    C73     1.387   .     A
C72    H79     1.084   .     S
C72    C534    1.390   1_554 S
C73    C535    1.389   .     S
C73    H137    1.085   .     S
C74    C231    1.331   .     S
C74    H237    1.088   .     S
C75    C386    1.331   1_545 S
C75    H394    1.088   1_545 S
C76    O102    1.299   .     A
C76    O100    1.304   .     A
Cu77   N94     2.028   .     S
Cu77   O103    1.925   .     S
Cu77   O99     1.951   .     S
Cu77   O100    1.944   .     S
Cu77   O95     1.952   .     S
Cu77   Cu78    2.700   .     S
Cu78   O102    1.925   .     S
Cu78   O98     1.951   .     S
Cu78   O101    1.944   .     S
Cu78   O97     1.952   .     S
Cu78   N93     2.028   .     S
H81    C386    1.088   1_545 S
H82    C231    1.088   .     S
H83    O156    0.990   .     S
H90    C109    1.084   .     S
N93    N146    1.287   .     S
N93    O156    1.338   .     S
O96    H136    0.990   .     S
O96    N146    1.338   .     S
C105   C126    1.429   .     S
C105   O150    1.292   .     A
C105   O147    1.293   .     A
C106   C108    1.468   .     S
C106   O153    1.304   .     A
C106   O155    1.300   .     A
C107   C113    1.398   .     A
C107   C111    1.398   .     A
C107   C128    1.466   .     S
C108   C112    1.399   .     A
C108   C114    1.400   .     A
C109   C118    1.405   .     A
C109   C111    1.392   .     A
C110   C112    1.392   .     A
C110   C119    1.404   .     A
C110   H39     1.084   1_655 S
C111   H141    1.083   .     S
C112   H140    1.083   .     S
C113   C115    1.405   .     A
C113   H139    1.075   .     S
C114   H138    1.075   .     S
C114   C117    1.405   .     A
C115   C118    1.418   .     A
C115   C120    1.428   .     A
C116   C127    1.429   .     S
C116   O151    1.292   .     A
C116   O149    1.293   .     A
C117   C121    1.428   .     A
C117   C119    1.418   .     A
C118   C592    1.390   .     S
C119   C593    1.389   1_554 S
C120   C123    1.417   .     A
C120   C589    1.425   .     S
C121   C122    1.417   .     A
C121   C588    1.425   1_554 S
C122   C124    1.386   .     A
C122   H144    1.076   .     S
C123   H132    1.076   .     S
C123   C125    1.387   .     A
C124   H131    1.084   .     S
C124   C586    1.390   1_554 S
C125   C587    1.389   .     S
C125   H33     1.085   1_655 S
C126   C283    1.331   .     S
C126   H289    1.088   .     S
C127   C438    1.331   1_545 S
C127   H446    1.088   1_545 S
C128   O154    1.299   .     A
C128   O152    1.304   .     A
Cu129  N146    2.028   .     S
Cu129  O155    1.925   .     S
Cu129  O151    1.951   .     S
Cu129  O152    1.944   .     S
Cu129  O147    1.952   .     S
Cu129  Cu130   2.700   .     S
Cu130  O154    1.925   .     S
Cu130  O150    1.951   .     S
Cu130  O153    1.944   .     S
Cu130  O149    1.952   .     S
Cu130  N145    2.028   .     S
H133   C438    1.088   1_545 S
H134   C283    1.088   .     S
H135   O52     0.990   1_655 S
H142   C5      1.084   1_655 S
N145   N42     1.287   1_655 S
N145   O52     1.338   1_655 S
O148   H32     0.990   1_655 S
O148   N42     1.338   1_655 S
C157   C178    1.429   .     S
C157   O202    1.292   .     A
C157   O199    1.293   .     A
C158   C160    1.468   .     S
C158   O205    1.304   .     A
C158   O207    1.300   .     A
C159   C165    1.398   .     A
C159   C163    1.398   .     A
C159   C180    1.466   .     S
C160   C164    1.399   .     A
C160   C166    1.400   .     A
C161   C170    1.405   .     A
C161   C163    1.392   .     A
C161   H298    1.084   1_455 S
C162   C164    1.392   .     A
C162   C171    1.404   .     A
C162   H247    1.084   .     S
C163   H193    1.083   .     S
C164   H192    1.083   .     S
C165   C167    1.405   .     A
C165   H191    1.075   .     S
C166   H190    1.075   .     S
C166   C169    1.405   .     A
C167   C170    1.418   .     A
C167   C172    1.428   .     A
C168   C179    1.429   .     S
C168   O203    1.292   .     A
C168   O201    1.293   .     A
C169   C173    1.428   .     A
C169   C171    1.418   .     A
C170   C644    1.390   .     S
C171   C645    1.389   1_554 S
C172   C175    1.417   .     A
C172   C641    1.425   .     S
C173   C174    1.417   .     A
C173   C640    1.425   1_554 S
C174   C176    1.386   .     A
C174   H196    1.076   .     S
C175   H184    1.076   .     S
C175   C177    1.387   .     A
C176   H183    1.084   .     S
C176   C638    1.390   1_554 S
C177   C639    1.389   .     S
C177   H241    1.085   .     S
C178   C335    1.331   .     S
C178   H341    1.088   .     S
C180   O206    1.299   .     A
C180   O204    1.304   .     A
Cu181  N198    2.028   .     S
Cu181  O207    1.925   .     S
Cu181  O203    1.951   .     S
Cu181  O204    1.944   .     S
Cu181  O199    1.952   .     S
Cu181  Cu182   2.700   .     S
Cu182  O206    1.925   .     S
Cu182  O202    1.951   .     S
Cu182  O205    1.944   .     S
Cu182  O201    1.952   .     S
Cu182  N197    2.028   .     S
H186   C335    1.088   .     S
H187   O260    0.990   .     S
H188   O304    0.990   1_455 S
H189   C281    1.085   1_455 S
H194   C213    1.084   .     S
H195   C266    1.084   1_455 S
N197   N250    1.287   .     S
N197   O260    1.338   .     S
N198   N301    1.287   1_455 S
N198   O304    1.338   1_455 S
O200   H240    0.990   .     S
O200   N250    1.338   .     S
O208   H291    0.990   1_455 S
O208   N301    1.338   1_455 S
C209   C230    1.429   .     S
C209   O254    1.292   .     A
C209   O251    1.293   .     A
C210   C212    1.468   .     S
C210   O257    1.304   .     A
C210   O259    1.300   .     A
C211   C217    1.398   .     A
C211   C215    1.398   .     A
C211   C232    1.466   .     S
C212   C216    1.399   .     A
C212   C218    1.400   .     A
C213   C222    1.405   .     A
C213   C215    1.392   .     A
C214   C216    1.392   .     A
C214   C223    1.404   .     A
C214   H299    1.084   .     S
C215   H245    1.083   .     S
C216   H244    1.083   .     S
C217   C219    1.405   .     A
C217   H243    1.075   .     S
C218   H242    1.075   .     S
C218   C221    1.405   .     A
C219   C222    1.418   .     A
C219   C224    1.428   .     A
C220   C231    1.429   .     S
C220   O255    1.292   .     A
C220   O253    1.293   .     A
C221   C225    1.428   .     A
C221   C223    1.418   .     A
C222   C696    1.390   .     S
C223   C697    1.389   1_554 S
C224   C227    1.417   .     A
C224   C693    1.425   .     S
C225   C226    1.417   .     A
C225   C692    1.425   1_554 S
C226   C228    1.386   .     A
C226   H248    1.076   .     S
C227   H236    1.076   .     S
C227   C229    1.387   .     A
C228   H235    1.084   .     S
C228   C690    1.390   1_554 S
C229   C691    1.389   .     S
C229   H293    1.085   .     S
C230   C387    1.331   .     S
C230   H393    1.088   .     S
C232   O258    1.299   .     A
C232   O256    1.304   .     A
Cu233  N250    2.028   .     S
Cu233  O259    1.925   .     S
Cu233  O255    1.951   .     S
Cu233  O256    1.944   .     S
Cu233  O251    1.952   .     S
Cu233  Cu234   2.700   .     S
Cu234  O258    1.925   .     S
Cu234  O254    1.951   .     S
Cu234  O257    1.944   .     S
Cu234  O253    1.952   .     S
Cu234  N249    2.028   .     S
H238   C387    1.088   .     S
H239   O312    0.990   .     S
H246   C265    1.084   .     S
N249   N302    1.287   .     S
N249   O312    1.338   .     S
O252   H292    0.990   .     S
O252   N302    1.338   .     S
C261   C282    1.429   .     S
C261   O306    1.292   .     A
C261   O303    1.293   .     A
C262   C264    1.468   .     S
C262   O309    1.304   .     A
C262   O311    1.300   .     A
C263   C269    1.398   .     A
C263   C267    1.398   .     A
C263   C284    1.466   .     S
C264   C268    1.399   .     A
C264   C270    1.400   .     A
C265   C274    1.405   .     A
C265   C267    1.392   .     A
C266   C268    1.392   .     A
C266   C275    1.404   .     A
C266   H195    1.084   1_655 S
C267   H297    1.083   .     S
C268   H296    1.083   .     S
C269   C271    1.405   .     A
C269   H295    1.075   .     S
C270   H294    1.075   .     S
C270   C273    1.405   .     A
C271   C274    1.418   .     A
C271   C276    1.428   .     A
C272   C283    1.429   .     S
C272   O307    1.292   .     A
C272   O305    1.293   .     A
C273   C277    1.428   .     A
C273   C275    1.418   .     A
C274   C748    1.390   .     S
C275   C749    1.389   1_554 S
C276   C279    1.417   .     A
C276   C745    1.425   .     S
C277   C278    1.417   .     A
C277   C744    1.425   1_554 S
C278   C280    1.386   .     A
C278   H300    1.076   .     S
C279   H288    1.076   .     S
C279   C281    1.387   .     A
C280   H287    1.084   .     S
C280   C742    1.390   1_554 S
C281   C743    1.389   .     S
C281   H189    1.085   1_655 S
C282   C439    1.331   .     S
C282   H445    1.088   .     S
C284   O310    1.299   .     A
C284   O308    1.304   .     A
Cu285  N302    2.028   .     S
Cu285  O311    1.925   .     S
Cu285  O307    1.951   .     S
Cu285  O308    1.944   .     S
Cu285  O303    1.952   .     S
Cu285  Cu286   2.700   .     S
Cu286  O310    1.925   .     S
Cu286  O306    1.951   .     S
Cu286  O309    1.944   .     S
Cu286  O305    1.952   .     S
Cu286  N301    2.028   .     S
H290   C439    1.088   .     S
H291   O208    0.990   1_655 S
H298   C161    1.084   1_655 S
N301   N198    1.287   1_655 S
N301   O208    1.338   1_655 S
O304   H188    0.990   1_655 S
O304   N198    1.338   1_655 S
C313   C334    1.429   .     S
C313   O358    1.292   .     A
C313   O355    1.293   .     A
C314   C316    1.468   .     S
C314   O361    1.304   .     A
C314   O363    1.300   .     A
C315   C321    1.398   .     A
C315   C319    1.398   .     A
C315   C336    1.466   .     S
C316   C320    1.399   .     A
C316   C322    1.400   .     A
C317   C326    1.405   .     A
C317   C319    1.392   .     A
C317   H454    1.084   1_455 S
C318   C320    1.392   .     A
C318   C327    1.404   .     A
C318   H403    1.084   .     S
C319   H349    1.083   .     S
C320   H348    1.083   .     S
C321   C323    1.405   .     A
C321   H347    1.075   .     S
C322   H346    1.075   .     S
C322   C325    1.405   .     A
C323   C326    1.418   .     A
C323   C328    1.428   .     A
C324   C335    1.429   .     S
C324   O359    1.292   .     A
C324   O357    1.293   .     A
C325   C329    1.428   .     A
C325   C327    1.418   .     A
C326   C800    1.390   .     S
C327   C801    1.389   1_554 S
C328   C331    1.417   .     A
C328   C797    1.425   .     S
C329   C330    1.417   .     A
C329   C796    1.425   1_554 S
C330   C332    1.386   .     A
C330   H352    1.076   .     S
C331   H340    1.076   .     S
C331   C333    1.387   .     A
C332   H339    1.084   .     S
C332   C794    1.390   1_554 S
C333   C795    1.389   .     S
C333   H397    1.085   .     S
C334   C23     1.331   1_565 S
C334   H29     1.088   1_565 S
C336   O362    1.299   .     A
C336   O360    1.304   .     A
Cu337  N354    2.028   .     S
Cu337  O363    1.925   .     S
Cu337  O359    1.951   .     S
Cu337  O360    1.944   .     S
Cu337  O355    1.952   .     S
Cu337  Cu338   2.700   .     S
Cu338  O362    1.925   .     S
Cu338  O358    1.951   .     S
Cu338  O361    1.944   .     S
Cu338  O357    1.952   .     S
Cu338  N353    2.028   .     S
H342   C23     1.088   1_565 S
H343   O416    0.990   .     S
H344   O460    0.990   1_455 S
H345   C437    1.085   1_455 S
H350   C369    1.084   .     S
H351   C422    1.084   1_455 S
N353   N406    1.287   .     S
N353   O416    1.338   .     S
N354   N457    1.287   1_455 S
N354   O460    1.338   1_455 S
O356   H396    0.990   .     S
O356   N406    1.338   .     S
O364   H447    0.990   1_455 S
O364   N457    1.338   1_455 S
C365   C386    1.429   .     S
C365   O410    1.292   .     A
C365   O407    1.293   .     A
C366   C368    1.468   .     S
C366   O413    1.304   .     A
C366   O415    1.300   .     A
C367   C373    1.398   .     A
C367   C371    1.398   .     A
C367   C388    1.466   .     S
C368   C372    1.399   .     A
C368   C374    1.400   .     A
C369   C378    1.405   .     A
C369   C371    1.392   .     A
C370   C372    1.392   .     A
C370   C379    1.404   .     A
C370   H455    1.084   .     S
C371   H401    1.083   .     S
C372   H400    1.083   .     S
C373   C375    1.405   .     A
C373   H399    1.075   .     S
C374   H398    1.075   .     S
C374   C377    1.405   .     A
C375   C378    1.418   .     A
C375   C380    1.428   .     A
C376   C387    1.429   .     S
C376   O411    1.292   .     A
C376   O409    1.293   .     A
C377   C381    1.428   .     A
C377   C379    1.418   .     A
C378   C852    1.390   .     S
C379   C853    1.389   1_554 S
C380   C383    1.417   .     A
C380   C849    1.425   .     S
C381   C382    1.417   .     A
C381   C848    1.425   1_554 S
C382   C384    1.386   .     A
C382   H404    1.076   .     S
C383   H392    1.076   .     S
C383   C385    1.387   .     A
C384   H391    1.084   .     S
C384   C846    1.390   1_554 S
C385   C847    1.389   .     S
C385   H449    1.085   .     S
C386   C75     1.331   1_565 S
C386   H81     1.088   1_565 S
C388   O414    1.299   .     A
C388   O412    1.304   .     A
Cu389  N406    2.028   .     S
Cu389  O415    1.925   .     S
Cu389  O411    1.951   .     S
Cu389  O412    1.944   .     S
Cu389  O407    1.952   .     S
Cu389  Cu390   2.700   .     S
Cu390  O414    1.925   .     S
Cu390  O410    1.951   .     S
Cu390  O413    1.944   .     S
Cu390  O409    1.952   .     S
Cu390  N405    2.028   .     S
H394   C75     1.088   1_565 S
H395   O468    0.990   .     S
H402   C421    1.084   .     S
N405   N458    1.287   .     S
N405   O468    1.338   .     S
O408   H448    0.990   .     S
O408   N458    1.338   .     S
C417   C438    1.429   .     S
C417   O462    1.292   .     A
C417   O459    1.293   .     A
C418   C420    1.468   .     S
C418   O465    1.304   .     A
C418   O467    1.300   .     A
C419   C425    1.398   .     A
C419   C423    1.398   .     A
C419   C440    1.466   .     S
C420   C424    1.399   .     A
C420   C426    1.400   .     A
C421   C430    1.405   .     A
C421   C423    1.392   .     A
C422   C424    1.392   .     A
C422   C431    1.404   .     A
C422   H351    1.084   1_655 S
C423   H453    1.083   .     S
C424   H452    1.083   .     S
C425   C427    1.405   .     A
C425   H451    1.075   .     S
C426   H450    1.075   .     S
C426   C429    1.405   .     A
C427   C430    1.418   .     A
C427   C432    1.428   .     A
C428   C439    1.429   .     S
C428   O463    1.292   .     A
C428   O461    1.293   .     A
C429   C433    1.428   .     A
C429   C431    1.418   .     A
C430   C904    1.390   .     S
C431   C905    1.389   1_554 S
C432   C435    1.417   .     A
C432   C901    1.425   .     S
C433   C434    1.417   .     A
C433   C900    1.425   1_554 S
C434   C436    1.386   .     A
C434   H456    1.076   .     S
C435   H444    1.076   .     S
C435   C437    1.387   .     A
C436   H443    1.084   .     S
C436   C898    1.390   1_554 S
C437   C899    1.389   .     S
C437   H345    1.085   1_655 S
C438   C127    1.331   1_565 S
C438   H133    1.088   1_565 S
C440   O466    1.299   .     A
C440   O464    1.304   .     A
Cu441  N458    2.028   .     S
Cu441  O467    1.925   .     S
Cu441  O463    1.951   .     S
Cu441  O464    1.944   .     S
Cu441  O459    1.952   .     S
Cu441  Cu442   2.700   .     S
Cu442  O466    1.925   .     S
Cu442  O462    1.951   .     S
Cu442  O465    1.944   .     S
Cu442  O461    1.952   .     S
Cu442  N457    2.028   .     S
H446   C127    1.088   1_565 S
H447   O364    0.990   1_655 S
H454   C317    1.084   1_655 S
N457   N354    1.287   1_655 S
N457   O364    1.338   1_655 S
O460   H344    0.990   1_655 S
O460   N354    1.338   1_655 S
C469   C490    1.429   .     S
C469   O514    1.292   .     A
C469   O511    1.293   .     A
C470   C472    1.468   .     S
C470   O517    1.304   .     A
C470   O519    1.300   .     A
C471   C477    1.398   .     A
C471   C475    1.398   .     A
C471   C492    1.466   .     S
C472   C476    1.399   .     A
C472   C478    1.400   .     A
C473   C482    1.405   .     A
C473   C475    1.392   .     A
C473   H610    1.084   1_455 S
C474   C476    1.392   .     A
C474   C483    1.404   .     A
C474   H559    1.084   .     S
C475   H505    1.083   .     S
C476   H504    1.083   .     S
C477   C479    1.405   .     A
C477   H503    1.075   .     S
C478   H502    1.075   .     S
C478   C481    1.405   .     A
C479   C482    1.418   .     A
C479   C484    1.428   .     A
C480   C491    1.429   .     S
C480   O515    1.292   .     A
C480   O513    1.293   .     A
C481   C485    1.428   .     A
C481   C483    1.418   .     A
C482   C20     1.390   1_556 S
C484   C487    1.417   .     A
C484   C17     1.425   1_556 S
C485   C486    1.417   .     A
C486   C488    1.386   .     A
C486   H508    1.076   .     S
C487   H496    1.076   .     S
C487   C489    1.387   .     A
C488   H495    1.084   .     S
C489   C15     1.389   1_556 S
C489   H553    1.085   .     S
C490   C647    1.331   .     S
C490   H653    1.088   .     S
C491   C802    1.331   1_545 S
C491   H810    1.088   1_545 S
C492   O518    1.299   .     A
C492   O516    1.304   .     A
Cu493  N510    2.028   .     S
Cu493  O519    1.925   .     S
Cu493  O515    1.951   .     S
Cu493  O516    1.944   .     S
Cu493  O511    1.952   .     S
Cu493  Cu494   2.700   .     S
Cu494  O518    1.925   .     S
Cu494  O514    1.951   .     S
Cu494  O517    1.944   .     S
Cu494  O513    1.952   .     S
Cu494  N509    2.028   .     S
H497   C802    1.088   1_545 S
H498   C647    1.088   .     S
H499   O572    0.990   .     S
H500   O616    0.990   1_455 S
H501   C593    1.085   1_455 S
H506   C525    1.084   .     S
H507   C578    1.084   1_455 S
N509   N562    1.287   .     S
N509   O572    1.338   .     S
N510   N613    1.287   1_455 S
N510   O616    1.338   1_455 S
O512   H552    0.990   .     S
O512   N562    1.338   .     S
O520   H603    0.990   1_455 S
O520   N613    1.338   1_455 S
C521   C542    1.429   .     S
C521   O566    1.292   .     A
C521   O563    1.293   .     A
C522   C524    1.468   .     S
C522   O569    1.304   .     A
C522   O571    1.300   .     A
C523   C529    1.398   .     A
C523   C527    1.398   .     A
C523   C544    1.466   .     S
C524   C528    1.399   .     A
C524   C530    1.400   .     A
C525   C534    1.405   .     A
C525   C527    1.392   .     A
C526   C528    1.392   .     A
C526   C535    1.404   .     A
C526   H611    1.084   .     S
C527   H557    1.083   .     S
C528   H556    1.083   .     S
C529   C531    1.405   .     A
C529   H555    1.075   .     S
C530   H554    1.075   .     S
C530   C533    1.405   .     A
C531   C534    1.418   .     A
C531   C536    1.428   .     A
C532   C543    1.429   .     S
C532   O567    1.292   .     A
C532   O565    1.293   .     A
C533   C537    1.428   .     A
C533   C535    1.418   .     A
C534   C72     1.390   1_556 S
C536   C539    1.417   .     A
C536   C69     1.425   1_556 S
C537   C538    1.417   .     A
C538   C540    1.386   .     A
C538   H560    1.076   .     S
C539   H548    1.076   .     S
C539   C541    1.387   .     A
C540   H547    1.084   .     S
C541   C67     1.389   1_556 S
C541   H605    1.085   .     S
C542   C699    1.331   .     S
C542   H705    1.088   .     S
C543   C854    1.331   1_545 S
C543   H862    1.088   1_545 S
C544   O570    1.299   .     A
C544   O568    1.304   .     A
Cu545  N562    2.028   .     S
Cu545  O571    1.925   .     S
Cu545  O567    1.951   .     S
Cu545  O568    1.944   .     S
Cu545  O563    1.952   .     S
Cu545  Cu546   2.700   .     S
Cu546  O570    1.925   .     S
Cu546  O566    1.951   .     S
Cu546  O569    1.944   .     S
Cu546  O565    1.952   .     S
Cu546  N561    2.028   .     S
H549   C854    1.088   1_545 S
H550   C699    1.088   .     S
H551   O624    0.990   .     S
H558   C577    1.084   .     S
N561   N614    1.287   .     S
N561   O624    1.338   .     S
O564   H604    0.990   .     S
O564   N614    1.338   .     S
C573   C594    1.429   .     S
C573   O618    1.292   .     A
C573   O615    1.293   .     A
C574   C576    1.468   .     S
C574   O621    1.304   .     A
C574   O623    1.300   .     A
C575   C581    1.398   .     A
C575   C579    1.398   .     A
C575   C596    1.466   .     S
C576   C580    1.399   .     A
C576   C582    1.400   .     A
C577   C586    1.405   .     A
C577   C579    1.392   .     A
C578   C580    1.392   .     A
C578   C587    1.404   .     A
C578   H507    1.084   1_655 S
C579   H609    1.083   .     S
C580   H608    1.083   .     S
C581   C583    1.405   .     A
C581   H607    1.075   .     S
C582   H606    1.075   .     S
C582   C585    1.405   .     A
C583   C586    1.418   .     A
C583   C588    1.428   .     A
C584   C595    1.429   .     S
C584   O619    1.292   .     A
C584   O617    1.293   .     A
C585   C589    1.428   .     A
C585   C587    1.418   .     A
C586   C124    1.390   1_556 S
C588   C591    1.417   .     A
C588   C121    1.425   1_556 S
C589   C590    1.417   .     A
C590   C592    1.386   .     A
C590   H612    1.076   .     S
C591   H600    1.076   .     S
C591   C593    1.387   .     A
C592   H599    1.084   .     S
C593   C119    1.389   1_556 S
C593   H501    1.085   1_655 S
C594   C751    1.331   .     S
C594   H757    1.088   .     S
C595   C906    1.331   1_545 S
C595   H914    1.088   1_545 S
C596   O622    1.299   .     A
C596   O620    1.304   .     A
Cu597  N614    2.028   .     S
Cu597  O623    1.925   .     S
Cu597  O619    1.951   .     S
Cu597  O620    1.944   .     S
Cu597  O615    1.952   .     S
Cu597  Cu598   2.700   .     S
Cu598  O622    1.925   .     S
Cu598  O618    1.951   .     S
Cu598  O621    1.944   .     S
Cu598  O617    1.952   .     S
Cu598  N613    2.028   .     S
H601   C906    1.088   1_545 S
H602   C751    1.088   .     S
H603   O520    0.990   1_655 S
H610   C473    1.084   1_655 S
N613   N510    1.287   1_655 S
N613   O520    1.338   1_655 S
O616   H500    0.990   1_655 S
O616   N510    1.338   1_655 S
C625   C646    1.429   .     S
C625   O670    1.292   .     A
C625   O667    1.293   .     A
C626   C628    1.468   .     S
C626   O673    1.304   .     A
C626   O675    1.300   .     A
C627   C633    1.398   .     A
C627   C631    1.398   .     A
C627   C648    1.466   .     S
C628   C632    1.399   .     A
C628   C634    1.400   .     A
C629   C638    1.405   .     A
C629   C631    1.392   .     A
C629   H766    1.084   1_455 S
C630   C632    1.392   .     A
C630   C639    1.404   .     A
C630   H715    1.084   .     S
C631   H661    1.083   .     S
C632   H660    1.083   .     S
C633   C635    1.405   .     A
C633   H659    1.075   .     S
C634   H658    1.075   .     S
C634   C637    1.405   .     A
C635   C638    1.418   .     A
C635   C640    1.428   .     A
C636   C647    1.429   .     S
C636   O671    1.292   .     A
C636   O669    1.293   .     A
C637   C641    1.428   .     A
C637   C639    1.418   .     A
C638   C176    1.390   1_556 S
C640   C643    1.417   .     A
C640   C173    1.425   1_556 S
C641   C642    1.417   .     A
C642   C644    1.386   .     A
C642   H664    1.076   .     S
C643   H652    1.076   .     S
C643   C645    1.387   .     A
C644   H651    1.084   .     S
C645   C171    1.389   1_556 S
C645   H709    1.085   .     S
C646   C803    1.331   .     S
C646   H809    1.088   .     S
C648   O674    1.299   .     A
C648   O672    1.304   .     A
Cu649  N666    2.028   .     S
Cu649  O675    1.925   .     S
Cu649  O671    1.951   .     S
Cu649  O672    1.944   .     S
Cu649  O667    1.952   .     S
Cu649  Cu650   2.700   .     S
Cu650  O674    1.925   .     S
Cu650  O670    1.951   .     S
Cu650  O673    1.944   .     S
Cu650  O669    1.952   .     S
Cu650  N665    2.028   .     S
H654   C803    1.088   .     S
H655   O728    0.990   .     S
H656   O772    0.990   1_455 S
H657   C749    1.085   1_455 S
H662   C681    1.084   .     S
H663   C734    1.084   1_455 S
N665   N718    1.287   .     S
N665   O728    1.338   .     S
N666   N769    1.287   1_455 S
N666   O772    1.338   1_455 S
O668   H708    0.990   .     S
O668   N718    1.338   .     S
O676   H759    0.990   1_455 S
O676   N769    1.338   1_455 S
C677   C698    1.429   .     S
C677   O722    1.292   .     A
C677   O719    1.293   .     A
C678   C680    1.468   .     S
C678   O725    1.304   .     A
C678   O727    1.300   .     A
C679   C685    1.398   .     A
C679   C683    1.398   .     A
C679   C700    1.466   .     S
C680   C684    1.399   .     A
C680   C686    1.400   .     A
C681   C690    1.405   .     A
C681   C683    1.392   .     A
C682   C684    1.392   .     A
C682   C691    1.404   .     A
C682   H767    1.084   .     S
C683   H713    1.083   .     S
C684   H712    1.083   .     S
C685   C687    1.405   .     A
C685   H711    1.075   .     S
C686   H710    1.075   .     S
C686   C689    1.405   .     A
C687   C690    1.418   .     A
C687   C692    1.428   .     A
C688   C699    1.429   .     S
C688   O723    1.292   .     A
C688   O721    1.293   .     A
C689   C693    1.428   .     A
C689   C691    1.418   .     A
C690   C228    1.390   1_556 S
C692   C695    1.417   .     A
C692   C225    1.425   1_556 S
C693   C694    1.417   .     A
C694   C696    1.386   .     A
C694   H716    1.076   .     S
C695   H704    1.076   .     S
C695   C697    1.387   .     A
C696   H703    1.084   .     S
C697   C223    1.389   1_556 S
C697   H761    1.085   .     S
C698   C855    1.331   .     S
C698   H861    1.088   .     S
C700   O726    1.299   .     A
C700   O724    1.304   .     A
Cu701  N718    2.028   .     S
Cu701  O727    1.925   .     S
Cu701  O723    1.951   .     S
Cu701  O724    1.944   .     S
Cu701  O719    1.952   .     S
Cu701  Cu702   2.700   .     S
Cu702  O726    1.925   .     S
Cu702  O722    1.951   .     S
Cu702  O725    1.944   .     S
Cu702  O721    1.952   .     S
Cu702  N717    2.028   .     S
H706   C855    1.088   .     S
H707   O780    0.990   .     S
H714   C733    1.084   .     S
N717   N770    1.287   .     S
N717   O780    1.338   .     S
O720   H760    0.990   .     S
O720   N770    1.338   .     S
C729   C750    1.429   .     S
C729   O774    1.292   .     A
C729   O771    1.293   .     A
C730   C732    1.468   .     S
C730   O777    1.304   .     A
C730   O779    1.300   .     A
C731   C737    1.398   .     A
C731   C735    1.398   .     A
C731   C752    1.466   .     S
C732   C736    1.399   .     A
C732   C738    1.400   .     A
C733   C742    1.405   .     A
C733   C735    1.392   .     A
C734   C736    1.392   .     A
C734   C743    1.404   .     A
C734   H663    1.084   1_655 S
C735   H765    1.083   .     S
C736   H764    1.083   .     S
C737   C739    1.405   .     A
C737   H763    1.075   .     S
C738   H762    1.075   .     S
C738   C741    1.405   .     A
C739   C742    1.418   .     A
C739   C744    1.428   .     A
C740   C751    1.429   .     S
C740   O775    1.292   .     A
C740   O773    1.293   .     A
C741   C745    1.428   .     A
C741   C743    1.418   .     A
C742   C280    1.390   1_556 S
C744   C747    1.417   .     A
C744   C277    1.425   1_556 S
C745   C746    1.417   .     A
C746   C748    1.386   .     A
C746   H768    1.076   .     S
C747   H756    1.076   .     S
C747   C749    1.387   .     A
C748   H755    1.084   .     S
C749   C275    1.389   1_556 S
C749   H657    1.085   1_655 S
C750   C907    1.331   .     S
C750   H913    1.088   .     S
C752   O778    1.299   .     A
C752   O776    1.304   .     A
Cu753  N770    2.028   .     S
Cu753  O779    1.925   .     S
Cu753  O775    1.951   .     S
Cu753  O776    1.944   .     S
Cu753  O771    1.952   .     S
Cu753  Cu754   2.700   .     S
Cu754  O778    1.925   .     S
Cu754  O774    1.951   .     S
Cu754  O777    1.944   .     S
Cu754  O773    1.952   .     S
Cu754  N769    2.028   .     S
H758   C907    1.088   .     S
H759   O676    0.990   1_655 S
H766   C629    1.084   1_655 S
N769   N666    1.287   1_655 S
N769   O676    1.338   1_655 S
O772   H656    0.990   1_655 S
O772   N666    1.338   1_655 S
C781   C802    1.429   .     S
C781   O826    1.292   .     A
C781   O823    1.293   .     A
C782   C784    1.468   .     S
C782   O829    1.304   .     A
C782   O831    1.300   .     A
C783   C789    1.398   .     A
C783   C787    1.398   .     A
C783   C804    1.466   .     S
C784   C788    1.399   .     A
C784   C790    1.400   .     A
C785   C794    1.405   .     A
C785   C787    1.392   .     A
C785   H922    1.084   1_455 S
C786   C788    1.392   .     A
C786   C795    1.404   .     A
C786   H871    1.084   .     S
C787   H817    1.083   .     S
C788   H816    1.083   .     S
C789   C791    1.405   .     A
C789   H815    1.075   .     S
C790   H814    1.075   .     S
C790   C793    1.405   .     A
C791   C794    1.418   .     A
C791   C796    1.428   .     A
C792   C803    1.429   .     S
C792   O827    1.292   .     A
C792   O825    1.293   .     A
C793   C797    1.428   .     A
C793   C795    1.418   .     A
C794   C332    1.390   1_556 S
C796   C799    1.417   .     A
C796   C329    1.425   1_556 S
C797   C798    1.417   .     A
C798   C800    1.386   .     A
C798   H820    1.076   .     S
C799   H808    1.076   .     S
C799   C801    1.387   .     A
C800   H807    1.084   .     S
C801   C327    1.389   1_556 S
C801   H865    1.085   .     S
C802   C491    1.331   1_565 S
C802   H497    1.088   1_565 S
C804   O830    1.299   .     A
C804   O828    1.304   .     A
Cu805  N822    2.028   .     S
Cu805  O831    1.925   .     S
Cu805  O827    1.951   .     S
Cu805  O828    1.944   .     S
Cu805  O823    1.952   .     S
Cu805  Cu806   2.700   .     S
Cu806  O830    1.925   .     S
Cu806  O826    1.951   .     S
Cu806  O829    1.944   .     S
Cu806  O825    1.952   .     S
Cu806  N821    2.028   .     S
H810   C491    1.088   1_565 S
H811   O884    0.990   .     S
H812   O928    0.990   1_455 S
H813   C905    1.085   1_455 S
H818   C837    1.084   .     S
H819   C890    1.084   1_455 S
N821   N874    1.287   .     S
N821   O884    1.338   .     S
N822   N925    1.287   1_455 S
N822   O928    1.338   1_455 S
O824   H864    0.990   .     S
O824   N874    1.338   .     S
O832   H915    0.990   1_455 S
O832   N925    1.338   1_455 S
C833   C854    1.429   .     S
C833   O878    1.292   .     A
C833   O875    1.293   .     A
C834   C836    1.468   .     S
C834   O881    1.304   .     A
C834   O883    1.300   .     A
C835   C841    1.398   .     A
C835   C839    1.398   .     A
C835   C856    1.466   .     S
C836   C840    1.399   .     A
C836   C842    1.400   .     A
C837   C846    1.405   .     A
C837   C839    1.392   .     A
C838   C840    1.392   .     A
C838   C847    1.404   .     A
C838   H923    1.084   .     S
C839   H869    1.083   .     S
C840   H868    1.083   .     S
C841   C843    1.405   .     A
C841   H867    1.075   .     S
C842   H866    1.075   .     S
C842   C845    1.405   .     A
C843   C846    1.418   .     A
C843   C848    1.428   .     A
C844   C855    1.429   .     S
C844   O879    1.292   .     A
C844   O877    1.293   .     A
C845   C849    1.428   .     A
C845   C847    1.418   .     A
C846   C384    1.390   1_556 S
C848   C851    1.417   .     A
C848   C381    1.425   1_556 S
C849   C850    1.417   .     A
C850   C852    1.386   .     A
C850   H872    1.076   .     S
C851   H860    1.076   .     S
C851   C853    1.387   .     A
C852   H859    1.084   .     S
C853   C379    1.389   1_556 S
C853   H917    1.085   .     S
C854   C543    1.331   1_565 S
C854   H549    1.088   1_565 S
C856   O882    1.299   .     A
C856   O880    1.304   .     A
Cu857  N874    2.028   .     S
Cu857  O883    1.925   .     S
Cu857  O879    1.951   .     S
Cu857  O880    1.944   .     S
Cu857  O875    1.952   .     S
Cu857  Cu858   2.700   .     S
Cu858  O882    1.925   .     S
Cu858  O878    1.951   .     S
Cu858  O881    1.944   .     S
Cu858  O877    1.952   .     S
Cu858  N873    2.028   .     S
H862   C543    1.088   1_565 S
H863   O936    0.990   .     S
H870   C889    1.084   .     S
N873   N926    1.287   .     S
N873   O936    1.338   .     S
O876   H916    0.990   .     S
O876   N926    1.338   .     S
C885   C906    1.429   .     S
C885   O930    1.292   .     A
C885   O927    1.293   .     A
C886   C888    1.468   .     S
C886   O933    1.304   .     A
C886   O935    1.300   .     A
C887   C893    1.398   .     A
C887   C891    1.398   .     A
C887   C908    1.466   .     S
C888   C892    1.399   .     A
C888   C894    1.400   .     A
C889   C898    1.405   .     A
C889   C891    1.392   .     A
C890   C892    1.392   .     A
C890   C899    1.404   .     A
C890   H819    1.084   1_655 S
C891   H921    1.083   .     S
C892   H920    1.083   .     S
C893   C895    1.405   .     A
C893   H919    1.075   .     S
C894   H918    1.075   .     S
C894   C897    1.405   .     A
C895   C898    1.418   .     A
C895   C900    1.428   .     A
C896   C907    1.429   .     S
C896   O931    1.292   .     A
C896   O929    1.293   .     A
C897   C901    1.428   .     A
C897   C899    1.418   .     A
C898   C436    1.390   1_556 S
C900   C903    1.417   .     A
C900   C433    1.425   1_556 S
C901   C902    1.417   .     A
C902   C904    1.386   .     A
C902   H924    1.076   .     S
C903   H912    1.076   .     S
C903   C905    1.387   .     A
C904   H911    1.084   .     S
C905   C431    1.389   1_556 S
C905   H813    1.085   1_655 S
C906   C595    1.331   1_565 S
C906   H601    1.088   1_565 S
C908   O934    1.299   .     A
C908   O932    1.304   .     A
Cu909  N926    2.028   .     S
Cu909  O935    1.925   .     S
Cu909  O931    1.951   .     S
Cu909  O932    1.944   .     S
Cu909  O927    1.952   .     S
Cu909  Cu910   2.700   .     S
Cu910  O934    1.925   .     S
Cu910  O930    1.951   .     S
Cu910  O933    1.944   .     S
Cu910  O929    1.952   .     S
Cu910  N925    2.028   .     S
H914   C595    1.088   1_565 S
H915   O832    0.990   1_655 S
H922   C785    1.084   1_655 S
N925   N822    1.287   1_655 S
N925   O832    1.338   1_655 S
O928   H812    0.990   1_655 S
O928   N822    1.338   1_655 S
