data_str_m3_o1_o1_pcu_sym.5
_audit_creation_date              2020-01-03
_audit_creation_method            'Materials Studio'
_symmetry_space_group_name_H-M    'P1'
_symmetry_Int_Tables_number       1
_symmetry_cell_setting            triclinic
loop_
_symmetry_equiv_pos_as_xyz
  x,y,z
_cell_length_a                    31.2910
_cell_length_b                    29.3373
_cell_length_c                    29.9962
_cell_angle_alpha                 90.0000
_cell_angle_beta                  90.0000
_cell_angle_gamma                 90.0000
loop_
_atom_site_label
_atom_site_type_symbol
_atom_site_fract_x
_atom_site_fract_y
_atom_site_fract_z
_atom_site_U_iso_or_equiv
_atom_site_adp_type
_atom_site_occupancy
C1     C     0.05981   0.18997   0.16667   0.00000  Uiso   1.00
C2     C     0.00000   0.20973   0.30944   0.00000  Uiso   1.00
C3     C     0.00000   0.20973   0.02390   0.00000  Uiso   1.00
C4     C     0.00000   0.29027   0.30944   0.00000  Uiso   1.00
C5     C     0.25000   0.04027   0.02390   0.00000  Uiso   1.00
C6     C     0.25000   0.45973   0.30944   0.00000  Uiso   1.00
C7     C     0.25000   0.45973   0.02390   0.00000  Uiso   1.00
C8     C     0.25000   0.04027   0.30944   0.00000  Uiso   1.00
C9     C     0.39102   0.14091   0.12602   0.00000  Uiso   1.00
C10    C     0.10898   0.35909   0.20732   0.00000  Uiso   1.00
C11    C     0.10898   0.35909   0.12602   0.00000  Uiso   1.00
C12    C     0.44019   0.31003   0.16667   0.00000  Uiso   1.00
C13    C     0.39102   0.14091   0.20732   0.00000  Uiso   1.00
C14    C     0.10898   0.14091   0.20732   0.00000  Uiso   1.00
C15    C     0.39102   0.35909   0.12602   0.00000  Uiso   1.00
C16    C     0.39103   0.35909   0.20732   0.00000  Uiso   1.00
C17    C     0.10898   0.14091   0.12602   0.00000  Uiso   1.00
C18    C     0.14102   0.39091   0.12602   0.00000  Uiso   1.00
C19    C     0.35898   0.10909   0.20732   0.00000  Uiso   1.00
C20    C     0.35898   0.10909   0.12602   0.00000  Uiso   1.00
C21    C     0.14102   0.39091   0.20732   0.00000  Uiso   1.00
C22    C     0.35898   0.39091   0.20732   0.00000  Uiso   1.00
C23    C     0.44019   0.18997   0.16667   0.00000  Uiso   1.00
C24    C     0.14102   0.10909   0.12602   0.00000  Uiso   1.00
C25    C     0.14103   0.10909   0.20732   0.00000  Uiso   1.00
C26    C     0.35898   0.39091   0.12602   0.00000  Uiso   1.00
C27    C     0.09300   0.34321   0.16667   0.00000  Uiso   1.00
C28    C     0.40700   0.15679   0.16667   0.00000  Uiso   1.00
C29    C     0.40700   0.34321   0.16667   0.00000  Uiso   1.00
C30    C     0.09300   0.15679   0.16667   0.00000  Uiso   1.00
C31    C     0.34300   0.09321   0.16667   0.00000  Uiso   1.00
C32    C     0.15700   0.40679   0.16667   0.00000  Uiso   1.00
C33    C     0.15700   0.09321   0.16667   0.00000  Uiso   1.00
C34    C     0.05981   0.31003   0.16667   0.00000  Uiso   1.00
C35    C     0.34300   0.40679   0.16667   0.00000  Uiso   1.00
C36    C     0.00000   0.33584   0.04750   0.00000  Uiso   1.00
C37    C     0.00000   0.16416   0.28583   0.00000  Uiso   1.00
C38    C     0.00000   0.16416   0.04750   0.00000  Uiso   1.00
C39    C     0.00000   0.33584   0.28583   0.00000  Uiso   1.00
C40    C     0.25000   0.08584   0.04750   0.00000  Uiso   1.00
C41    C     0.25000   0.41416   0.28583   0.00000  Uiso   1.00
C42    C     0.25000   0.41416   0.04750   0.00000  Uiso   1.00
C43    C     0.25000   0.08584   0.28583   0.00000  Uiso   1.00
C44    C     0.30981   0.43997   0.16667   0.00000  Uiso   1.00
C45    C     0.19019   0.06003   0.16667   0.00000  Uiso   1.00
C46    C     0.19019   0.43997   0.16667   0.00000  Uiso   1.00
C47    C     0.30981   0.06003   0.16667   0.00000  Uiso   1.00
C48    C     0.00000   0.29027   0.02390   0.00000  Uiso   1.00
H49    H     0.40312   0.15296   0.09429   0.00000  Uiso   1.00
H50    H     0.34688   0.09704   0.23904   0.00000  Uiso   1.00
H51    H     0.34688   0.09704   0.09429   0.00000  Uiso   1.00
H52    H     0.15312   0.40296   0.23904   0.00000  Uiso   1.00
H53    H     0.34689   0.40296   0.23904   0.00000  Uiso   1.00
H54    H     0.15312   0.09704   0.09429   0.00000  Uiso   1.00
H55    H     0.15312   0.09705   0.23904   0.00000  Uiso   1.00
H56    H     0.34688   0.40296   0.09429   0.00000  Uiso   1.00
H57    H     0.00000   0.33389   0.08358   0.00000  Uiso   1.00
H58    H     0.02899   0.35550   0.03836   0.00000  Uiso   1.00
H59    H     0.47101   0.35550   0.03836   0.00000  Uiso   1.00
H60    H     0.09688   0.34704   0.23904   0.00000  Uiso   1.00
H61    H     0.00000   0.16611   0.24976   0.00000  Uiso   1.00
H62    H     0.02899   0.14450   0.29498   0.00000  Uiso   1.00
H63    H     0.47101   0.14450   0.29498   0.00000  Uiso   1.00
H64    H     0.00000   0.16611   0.08358   0.00000  Uiso   1.00
H65    H     0.47101   0.14450   0.03836   0.00000  Uiso   1.00
H66    H     0.02899   0.14450   0.03836   0.00000  Uiso   1.00
H67    H     0.00000   0.33389   0.24976   0.00000  Uiso   1.00
H68    H     0.47101   0.35550   0.29498   0.00000  Uiso   1.00
H69    H     0.02899   0.35550   0.29498   0.00000  Uiso   1.00
H70    H     0.25000   0.08389   0.08358   0.00000  Uiso   1.00
H71    H     0.09688   0.34704   0.09429   0.00000  Uiso   1.00
H72    H     0.27899   0.10550   0.03836   0.00000  Uiso   1.00
H73    H     0.22101   0.10550   0.03836   0.00000  Uiso   1.00
H74    H     0.25000   0.41611   0.24976   0.00000  Uiso   1.00
H75    H     0.27899   0.39450   0.29498   0.00000  Uiso   1.00
H76    H     0.22101   0.39450   0.29498   0.00000  Uiso   1.00
H77    H     0.25000   0.41611   0.08358   0.00000  Uiso   1.00
H78    H     0.22101   0.39450   0.03836   0.00000  Uiso   1.00
H79    H     0.27899   0.39450   0.03836   0.00000  Uiso   1.00
H80    H     0.25000   0.08389   0.24976   0.00000  Uiso   1.00
H81    H     0.22101   0.10550   0.29498   0.00000  Uiso   1.00
H82    H     0.40312   0.15296   0.23904   0.00000  Uiso   1.00
H83    H     0.27899   0.10550   0.29498   0.00000  Uiso   1.00
H84    H     0.09689   0.15296   0.23904   0.00000  Uiso   1.00
H85    H     0.40312   0.34704   0.09429   0.00000  Uiso   1.00
H86    H     0.40312   0.34705   0.23904   0.00000  Uiso   1.00
H87    H     0.09688   0.15296   0.09429   0.00000  Uiso   1.00
H88    H     0.15312   0.40296   0.09429   0.00000  Uiso   1.00
N89    N     0.00000   0.25000   0.28573   0.00000  Uiso   1.00
N90    N     0.00000   0.25000   0.04760   0.00000  Uiso   1.00
N91    N     0.25000  -0.00000   0.28573   0.00000  Uiso   1.00
N92    N     0.25000  -0.00000   0.04760   0.00000  Uiso   1.00
O93    O     0.04581   0.20419   0.20487   0.00000  Uiso   1.00
O94    O     0.20420   0.04581   0.12846   0.00000  Uiso   1.00
O95    O     0.20420   0.04581   0.20487   0.00000  Uiso   1.00
O96    O     0.29581   0.45419   0.12846   0.00000  Uiso   1.00
O97    O     0.20420   0.45419   0.12846   0.00000  Uiso   1.00
O98    O     0.29581   0.04581   0.20487   0.00000  Uiso   1.00
O99    O     0.29581   0.04581   0.12846   0.00000  Uiso   1.00
O100   O     0.20420   0.45419   0.20487   0.00000  Uiso   1.00
O101   O     0.45420   0.29581   0.12846   0.00000  Uiso   1.00
O102   O     0.45420   0.29581   0.20487   0.00000  Uiso   1.00
O103   O     0.04581   0.20419   0.12846   0.00000  Uiso   1.00
O104   O     0.45420   0.20419   0.12846   0.00000  Uiso   1.00
O105   O     0.04581   0.29581   0.20487   0.00000  Uiso   1.00
O106   O     0.04581   0.29581   0.12846   0.00000  Uiso   1.00
O107   O     0.45420   0.20419   0.20487   0.00000  Uiso   1.00
O108   O     0.29581   0.45419   0.20487   0.00000  Uiso   1.00
Zn109  Zn    0.00000   0.25000   0.21771   0.00000  Uiso   1.00
Zn110  Zn    0.00000   0.25000   0.11563   0.00000  Uiso   1.00
Zn111  Zn    0.25000   0.00000   0.21771   0.00000  Uiso   1.00
Zn112  Zn    0.25000  -0.00000   0.11563   0.00000  Uiso   1.00
C113   C     0.55981   0.18997   0.16667   0.00000  Uiso   1.00
C114   C     0.50000   0.20973   0.30944   0.00000  Uiso   1.00
C115   C     0.50000   0.20973   0.02390   0.00000  Uiso   1.00
C116   C     0.50000   0.29027   0.30944   0.00000  Uiso   1.00
C117   C     0.75000   0.04027   0.02390   0.00000  Uiso   1.00
C118   C     0.75000   0.45973   0.30944   0.00000  Uiso   1.00
C119   C     0.75000   0.45973   0.02390   0.00000  Uiso   1.00
C120   C     0.75000   0.04027   0.30944   0.00000  Uiso   1.00
C121   C     0.89102   0.14091   0.12602   0.00000  Uiso   1.00
C122   C     0.60898   0.35909   0.20732   0.00000  Uiso   1.00
C123   C     0.60898   0.35909   0.12602   0.00000  Uiso   1.00
C124   C     0.94019   0.31003   0.16667   0.00000  Uiso   1.00
C125   C     0.89102   0.14091   0.20732   0.00000  Uiso   1.00
C126   C     0.60898   0.14091   0.20732   0.00000  Uiso   1.00
C127   C     0.89102   0.35909   0.12602   0.00000  Uiso   1.00
C128   C     0.89103   0.35909   0.20732   0.00000  Uiso   1.00
C129   C     0.60898   0.14091   0.12602   0.00000  Uiso   1.00
C130   C     0.64102   0.39091   0.12602   0.00000  Uiso   1.00
C131   C     0.85898   0.10909   0.20732   0.00000  Uiso   1.00
C132   C     0.85898   0.10909   0.12602   0.00000  Uiso   1.00
C133   C     0.64102   0.39091   0.20732   0.00000  Uiso   1.00
C134   C     0.85898   0.39091   0.20732   0.00000  Uiso   1.00
C135   C     0.94019   0.18997   0.16667   0.00000  Uiso   1.00
C136   C     0.64102   0.10909   0.12602   0.00000  Uiso   1.00
C137   C     0.64103   0.10909   0.20732   0.00000  Uiso   1.00
C138   C     0.85898   0.39091   0.12602   0.00000  Uiso   1.00
C139   C     0.59300   0.34321   0.16667   0.00000  Uiso   1.00
C140   C     0.90700   0.15679   0.16667   0.00000  Uiso   1.00
C141   C     0.90700   0.34321   0.16667   0.00000  Uiso   1.00
C142   C     0.59300   0.15679   0.16667   0.00000  Uiso   1.00
C143   C     0.84300   0.09321   0.16667   0.00000  Uiso   1.00
C144   C     0.65700   0.40679   0.16667   0.00000  Uiso   1.00
C145   C     0.65700   0.09321   0.16667   0.00000  Uiso   1.00
C146   C     0.55981   0.31003   0.16667   0.00000  Uiso   1.00
C147   C     0.84300   0.40679   0.16667   0.00000  Uiso   1.00
C148   C     0.50000   0.33584   0.04750   0.00000  Uiso   1.00
C149   C     0.50000   0.16416   0.28583   0.00000  Uiso   1.00
C150   C     0.50000   0.16416   0.04750   0.00000  Uiso   1.00
C151   C     0.50000   0.33584   0.28583   0.00000  Uiso   1.00
C152   C     0.75000   0.08584   0.04750   0.00000  Uiso   1.00
C153   C     0.75000   0.41416   0.28583   0.00000  Uiso   1.00
C154   C     0.75000   0.41416   0.04750   0.00000  Uiso   1.00
C155   C     0.75000   0.08584   0.28583   0.00000  Uiso   1.00
C156   C     0.80981   0.43997   0.16667   0.00000  Uiso   1.00
C157   C     0.69019   0.06003   0.16667   0.00000  Uiso   1.00
C158   C     0.69019   0.43997   0.16667   0.00000  Uiso   1.00
C159   C     0.80981   0.06003   0.16667   0.00000  Uiso   1.00
C160   C     0.50000   0.29027   0.02390   0.00000  Uiso   1.00
H161   H     0.90312   0.15296   0.09429   0.00000  Uiso   1.00
H162   H     0.84688   0.09704   0.23904   0.00000  Uiso   1.00
H163   H     0.84688   0.09704   0.09429   0.00000  Uiso   1.00
H164   H     0.65312   0.40296   0.23904   0.00000  Uiso   1.00
H165   H     0.84689   0.40296   0.23904   0.00000  Uiso   1.00
H166   H     0.65312   0.09704   0.09429   0.00000  Uiso   1.00
H167   H     0.65312   0.09705   0.23904   0.00000  Uiso   1.00
H168   H     0.84688   0.40296   0.09429   0.00000  Uiso   1.00
H169   H     0.50000   0.33389   0.08358   0.00000  Uiso   1.00
H170   H     0.52899   0.35550   0.03836   0.00000  Uiso   1.00
H171   H     0.97101   0.35550   0.03836   0.00000  Uiso   1.00
H172   H     0.59688   0.34704   0.23904   0.00000  Uiso   1.00
H173   H     0.50000   0.16611   0.24976   0.00000  Uiso   1.00
H174   H     0.52899   0.14450   0.29498   0.00000  Uiso   1.00
H175   H     0.97101   0.14450   0.29498   0.00000  Uiso   1.00
H176   H     0.50000   0.16611   0.08358   0.00000  Uiso   1.00
H177   H     0.97101   0.14450   0.03836   0.00000  Uiso   1.00
H178   H     0.52899   0.14450   0.03836   0.00000  Uiso   1.00
H179   H     0.50000   0.33389   0.24976   0.00000  Uiso   1.00
H180   H     0.97101   0.35550   0.29498   0.00000  Uiso   1.00
H181   H     0.52899   0.35550   0.29498   0.00000  Uiso   1.00
H182   H     0.75000   0.08389   0.08358   0.00000  Uiso   1.00
H183   H     0.59688   0.34704   0.09429   0.00000  Uiso   1.00
H184   H     0.77899   0.10550   0.03836   0.00000  Uiso   1.00
H185   H     0.72101   0.10550   0.03836   0.00000  Uiso   1.00
H186   H     0.75000   0.41611   0.24976   0.00000  Uiso   1.00
H187   H     0.77899   0.39450   0.29498   0.00000  Uiso   1.00
H188   H     0.72101   0.39450   0.29498   0.00000  Uiso   1.00
H189   H     0.75000   0.41611   0.08358   0.00000  Uiso   1.00
H190   H     0.72101   0.39450   0.03836   0.00000  Uiso   1.00
H191   H     0.77899   0.39450   0.03836   0.00000  Uiso   1.00
H192   H     0.75000   0.08389   0.24976   0.00000  Uiso   1.00
H193   H     0.72101   0.10550   0.29498   0.00000  Uiso   1.00
H194   H     0.90312   0.15296   0.23904   0.00000  Uiso   1.00
H195   H     0.77899   0.10550   0.29498   0.00000  Uiso   1.00
H196   H     0.59689   0.15296   0.23904   0.00000  Uiso   1.00
H197   H     0.90312   0.34704   0.09429   0.00000  Uiso   1.00
H198   H     0.90312   0.34705   0.23904   0.00000  Uiso   1.00
H199   H     0.59688   0.15296   0.09429   0.00000  Uiso   1.00
H200   H     0.65312   0.40296   0.09429   0.00000  Uiso   1.00
N201   N     0.50000   0.25000   0.28573   0.00000  Uiso   1.00
N202   N     0.50000   0.25000   0.04760   0.00000  Uiso   1.00
N203   N     0.75000  -0.00000   0.28573   0.00000  Uiso   1.00
N204   N     0.75000  -0.00000   0.04760   0.00000  Uiso   1.00
O205   O     0.54581   0.20419   0.20487   0.00000  Uiso   1.00
O206   O     0.70420   0.04581   0.12846   0.00000  Uiso   1.00
O207   O     0.70420   0.04581   0.20487   0.00000  Uiso   1.00
O208   O     0.79581   0.45419   0.12846   0.00000  Uiso   1.00
O209   O     0.70420   0.45419   0.12846   0.00000  Uiso   1.00
O210   O     0.79581   0.04581   0.20487   0.00000  Uiso   1.00
O211   O     0.79581   0.04581   0.12846   0.00000  Uiso   1.00
O212   O     0.70420   0.45419   0.20487   0.00000  Uiso   1.00
O213   O     0.95420   0.29581   0.12846   0.00000  Uiso   1.00
O214   O     0.95420   0.29581   0.20487   0.00000  Uiso   1.00
O215   O     0.54581   0.20419   0.12846   0.00000  Uiso   1.00
O216   O     0.95420   0.20419   0.12846   0.00000  Uiso   1.00
O217   O     0.54581   0.29581   0.20487   0.00000  Uiso   1.00
O218   O     0.54581   0.29581   0.12846   0.00000  Uiso   1.00
O219   O     0.95420   0.20419   0.20487   0.00000  Uiso   1.00
O220   O     0.79581   0.45419   0.20487   0.00000  Uiso   1.00
Zn221  Zn    0.50000   0.25000   0.21771   0.00000  Uiso   1.00
Zn222  Zn    0.50000   0.25000   0.11563   0.00000  Uiso   1.00
Zn223  Zn    0.75000   0.00000   0.21771   0.00000  Uiso   1.00
Zn224  Zn    0.75000  -0.00000   0.11563   0.00000  Uiso   1.00
C225   C     0.05981   0.68997   0.16667   0.00000  Uiso   1.00
C226   C     0.00000   0.70973   0.30944   0.00000  Uiso   1.00
C227   C     0.00000   0.70973   0.02390   0.00000  Uiso   1.00
C228   C     0.00000   0.79027   0.30944   0.00000  Uiso   1.00
C229   C     0.25000   0.54027   0.02390   0.00000  Uiso   1.00
C230   C     0.25000   0.95973   0.30944   0.00000  Uiso   1.00
C231   C     0.25000   0.95973   0.02390   0.00000  Uiso   1.00
C232   C     0.25000   0.54027   0.30944   0.00000  Uiso   1.00
C233   C     0.39102   0.64091   0.12602   0.00000  Uiso   1.00
C234   C     0.10898   0.85909   0.20732   0.00000  Uiso   1.00
C235   C     0.10898   0.85909   0.12602   0.00000  Uiso   1.00
C236   C     0.44019   0.81003   0.16667   0.00000  Uiso   1.00
C237   C     0.39102   0.64091   0.20732   0.00000  Uiso   1.00
C238   C     0.10898   0.64091   0.20732   0.00000  Uiso   1.00
C239   C     0.39102   0.85909   0.12602   0.00000  Uiso   1.00
C240   C     0.39103   0.85909   0.20732   0.00000  Uiso   1.00
C241   C     0.10898   0.64091   0.12602   0.00000  Uiso   1.00
C242   C     0.14102   0.89091   0.12602   0.00000  Uiso   1.00
C243   C     0.35898   0.60909   0.20732   0.00000  Uiso   1.00
C244   C     0.35898   0.60909   0.12602   0.00000  Uiso   1.00
C245   C     0.14102   0.89091   0.20732   0.00000  Uiso   1.00
C246   C     0.35898   0.89091   0.20732   0.00000  Uiso   1.00
C247   C     0.44019   0.68997   0.16667   0.00000  Uiso   1.00
C248   C     0.14102   0.60909   0.12602   0.00000  Uiso   1.00
C249   C     0.14103   0.60909   0.20732   0.00000  Uiso   1.00
C250   C     0.35898   0.89091   0.12602   0.00000  Uiso   1.00
C251   C     0.09300   0.84321   0.16667   0.00000  Uiso   1.00
C252   C     0.40700   0.65679   0.16667   0.00000  Uiso   1.00
C253   C     0.40700   0.84321   0.16667   0.00000  Uiso   1.00
C254   C     0.09300   0.65679   0.16667   0.00000  Uiso   1.00
C255   C     0.34300   0.59321   0.16667   0.00000  Uiso   1.00
C256   C     0.15700   0.90679   0.16667   0.00000  Uiso   1.00
C257   C     0.15700   0.59321   0.16667   0.00000  Uiso   1.00
C258   C     0.05981   0.81003   0.16667   0.00000  Uiso   1.00
C259   C     0.34300   0.90679   0.16667   0.00000  Uiso   1.00
C260   C     0.00000   0.83584   0.04750   0.00000  Uiso   1.00
C261   C     0.00000   0.66416   0.28583   0.00000  Uiso   1.00
C262   C     0.00000   0.66416   0.04750   0.00000  Uiso   1.00
C263   C     0.00000   0.83584   0.28583   0.00000  Uiso   1.00
C264   C     0.25000   0.58584   0.04750   0.00000  Uiso   1.00
C265   C     0.25000   0.91416   0.28583   0.00000  Uiso   1.00
C266   C     0.25000   0.91416   0.04750   0.00000  Uiso   1.00
C267   C     0.25000   0.58584   0.28583   0.00000  Uiso   1.00
C268   C     0.30981   0.93997   0.16667   0.00000  Uiso   1.00
C269   C     0.19019   0.56003   0.16667   0.00000  Uiso   1.00
C270   C     0.19019   0.93997   0.16667   0.00000  Uiso   1.00
C271   C     0.30981   0.56003   0.16667   0.00000  Uiso   1.00
C272   C     0.00000   0.79027   0.02390   0.00000  Uiso   1.00
H273   H     0.40312   0.65296   0.09429   0.00000  Uiso   1.00
H274   H     0.34688   0.59704   0.23904   0.00000  Uiso   1.00
H275   H     0.34688   0.59704   0.09429   0.00000  Uiso   1.00
H276   H     0.15312   0.90296   0.23904   0.00000  Uiso   1.00
H277   H     0.34689   0.90296   0.23904   0.00000  Uiso   1.00
H278   H     0.15312   0.59704   0.09429   0.00000  Uiso   1.00
H279   H     0.15312   0.59705   0.23904   0.00000  Uiso   1.00
H280   H     0.34688   0.90296   0.09429   0.00000  Uiso   1.00
H281   H     0.00000   0.83389   0.08358   0.00000  Uiso   1.00
H282   H     0.02899   0.85550   0.03836   0.00000  Uiso   1.00
H283   H     0.47101   0.85550   0.03836   0.00000  Uiso   1.00
H284   H     0.09688   0.84704   0.23904   0.00000  Uiso   1.00
H285   H     0.00000   0.66611   0.24976   0.00000  Uiso   1.00
H286   H     0.02899   0.64450   0.29498   0.00000  Uiso   1.00
H287   H     0.47101   0.64450   0.29498   0.00000  Uiso   1.00
H288   H     0.00000   0.66611   0.08358   0.00000  Uiso   1.00
H289   H     0.47101   0.64450   0.03836   0.00000  Uiso   1.00
H290   H     0.02899   0.64450   0.03836   0.00000  Uiso   1.00
H291   H     0.00000   0.83389   0.24976   0.00000  Uiso   1.00
H292   H     0.47101   0.85550   0.29498   0.00000  Uiso   1.00
H293   H     0.02899   0.85550   0.29498   0.00000  Uiso   1.00
H294   H     0.25000   0.58389   0.08358   0.00000  Uiso   1.00
H295   H     0.09688   0.84704   0.09429   0.00000  Uiso   1.00
H296   H     0.27899   0.60550   0.03836   0.00000  Uiso   1.00
H297   H     0.22101   0.60550   0.03836   0.00000  Uiso   1.00
H298   H     0.25000   0.91611   0.24976   0.00000  Uiso   1.00
H299   H     0.27899   0.89450   0.29498   0.00000  Uiso   1.00
H300   H     0.22101   0.89450   0.29498   0.00000  Uiso   1.00
H301   H     0.25000   0.91611   0.08358   0.00000  Uiso   1.00
H302   H     0.22101   0.89450   0.03836   0.00000  Uiso   1.00
H303   H     0.27899   0.89450   0.03836   0.00000  Uiso   1.00
H304   H     0.25000   0.58389   0.24976   0.00000  Uiso   1.00
H305   H     0.22101   0.60550   0.29498   0.00000  Uiso   1.00
H306   H     0.40312   0.65296   0.23904   0.00000  Uiso   1.00
H307   H     0.27899   0.60550   0.29498   0.00000  Uiso   1.00
H308   H     0.09689   0.65296   0.23904   0.00000  Uiso   1.00
H309   H     0.40312   0.84704   0.09429   0.00000  Uiso   1.00
H310   H     0.40312   0.84705   0.23904   0.00000  Uiso   1.00
H311   H     0.09688   0.65296   0.09429   0.00000  Uiso   1.00
H312   H     0.15312   0.90296   0.09429   0.00000  Uiso   1.00
N313   N     0.00000   0.75000   0.28573   0.00000  Uiso   1.00
N314   N     0.00000   0.75000   0.04760   0.00000  Uiso   1.00
N315   N     0.25000   0.50000   0.28573   0.00000  Uiso   1.00
N316   N     0.25000   0.50000   0.04760   0.00000  Uiso   1.00
O317   O     0.04581   0.70419   0.20487   0.00000  Uiso   1.00
O318   O     0.20420   0.54581   0.12846   0.00000  Uiso   1.00
O319   O     0.20420   0.54581   0.20487   0.00000  Uiso   1.00
O320   O     0.29581   0.95419   0.12846   0.00000  Uiso   1.00
O321   O     0.20420   0.95419   0.12846   0.00000  Uiso   1.00
O322   O     0.29581   0.54581   0.20487   0.00000  Uiso   1.00
O323   O     0.29581   0.54581   0.12846   0.00000  Uiso   1.00
O324   O     0.20420   0.95419   0.20487   0.00000  Uiso   1.00
O325   O     0.45420   0.79581   0.12846   0.00000  Uiso   1.00
O326   O     0.45420   0.79581   0.20487   0.00000  Uiso   1.00
O327   O     0.04581   0.70419   0.12846   0.00000  Uiso   1.00
O328   O     0.45420   0.70419   0.12846   0.00000  Uiso   1.00
O329   O     0.04581   0.79581   0.20487   0.00000  Uiso   1.00
O330   O     0.04581   0.79581   0.12846   0.00000  Uiso   1.00
O331   O     0.45420   0.70419   0.20487   0.00000  Uiso   1.00
O332   O     0.29581   0.95419   0.20487   0.00000  Uiso   1.00
Zn333  Zn    0.00000   0.75000   0.21771   0.00000  Uiso   1.00
Zn334  Zn    0.00000   0.75000   0.11563   0.00000  Uiso   1.00
Zn335  Zn    0.25000   0.50000   0.21771   0.00000  Uiso   1.00
Zn336  Zn    0.25000   0.50000   0.11563   0.00000  Uiso   1.00
C337   C     0.55981   0.68997   0.16667   0.00000  Uiso   1.00
C338   C     0.50000   0.70973   0.30944   0.00000  Uiso   1.00
C339   C     0.50000   0.70973   0.02390   0.00000  Uiso   1.00
C340   C     0.50000   0.79027   0.30944   0.00000  Uiso   1.00
C341   C     0.75000   0.54027   0.02390   0.00000  Uiso   1.00
C342   C     0.75000   0.95973   0.30944   0.00000  Uiso   1.00
C343   C     0.75000   0.95973   0.02390   0.00000  Uiso   1.00
C344   C     0.75000   0.54027   0.30944   0.00000  Uiso   1.00
C345   C     0.89102   0.64091   0.12602   0.00000  Uiso   1.00
C346   C     0.60898   0.85909   0.20732   0.00000  Uiso   1.00
C347   C     0.60898   0.85909   0.12602   0.00000  Uiso   1.00
C348   C     0.94019   0.81003   0.16667   0.00000  Uiso   1.00
C349   C     0.89102   0.64091   0.20732   0.00000  Uiso   1.00
C350   C     0.60898   0.64091   0.20732   0.00000  Uiso   1.00
C351   C     0.89102   0.85909   0.12602   0.00000  Uiso   1.00
C352   C     0.89103   0.85909   0.20732   0.00000  Uiso   1.00
C353   C     0.60898   0.64091   0.12602   0.00000  Uiso   1.00
C354   C     0.64102   0.89091   0.12602   0.00000  Uiso   1.00
C355   C     0.85898   0.60909   0.20732   0.00000  Uiso   1.00
C356   C     0.85898   0.60909   0.12602   0.00000  Uiso   1.00
C357   C     0.64102   0.89091   0.20732   0.00000  Uiso   1.00
C358   C     0.85898   0.89091   0.20732   0.00000  Uiso   1.00
C359   C     0.94019   0.68997   0.16667   0.00000  Uiso   1.00
C360   C     0.64102   0.60909   0.12602   0.00000  Uiso   1.00
C361   C     0.64103   0.60909   0.20732   0.00000  Uiso   1.00
C362   C     0.85898   0.89091   0.12602   0.00000  Uiso   1.00
C363   C     0.59300   0.84321   0.16667   0.00000  Uiso   1.00
C364   C     0.90700   0.65679   0.16667   0.00000  Uiso   1.00
C365   C     0.90700   0.84321   0.16667   0.00000  Uiso   1.00
C366   C     0.59300   0.65679   0.16667   0.00000  Uiso   1.00
C367   C     0.84300   0.59321   0.16667   0.00000  Uiso   1.00
C368   C     0.65700   0.90679   0.16667   0.00000  Uiso   1.00
C369   C     0.65700   0.59321   0.16667   0.00000  Uiso   1.00
C370   C     0.55981   0.81003   0.16667   0.00000  Uiso   1.00
C371   C     0.84300   0.90679   0.16667   0.00000  Uiso   1.00
C372   C     0.50000   0.83584   0.04750   0.00000  Uiso   1.00
C373   C     0.50000   0.66416   0.28583   0.00000  Uiso   1.00
C374   C     0.50000   0.66416   0.04750   0.00000  Uiso   1.00
C375   C     0.50000   0.83584   0.28583   0.00000  Uiso   1.00
C376   C     0.75000   0.58584   0.04750   0.00000  Uiso   1.00
C377   C     0.75000   0.91416   0.28583   0.00000  Uiso   1.00
C378   C     0.75000   0.91416   0.04750   0.00000  Uiso   1.00
C379   C     0.75000   0.58584   0.28583   0.00000  Uiso   1.00
C380   C     0.80981   0.93997   0.16667   0.00000  Uiso   1.00
C381   C     0.69019   0.56003   0.16667   0.00000  Uiso   1.00
C382   C     0.69019   0.93997   0.16667   0.00000  Uiso   1.00
C383   C     0.80981   0.56003   0.16667   0.00000  Uiso   1.00
C384   C     0.50000   0.79027   0.02390   0.00000  Uiso   1.00
H385   H     0.90312   0.65296   0.09429   0.00000  Uiso   1.00
H386   H     0.84688   0.59704   0.23904   0.00000  Uiso   1.00
H387   H     0.84688   0.59704   0.09429   0.00000  Uiso   1.00
H388   H     0.65312   0.90296   0.23904   0.00000  Uiso   1.00
H389   H     0.84689   0.90296   0.23904   0.00000  Uiso   1.00
H390   H     0.65312   0.59704   0.09429   0.00000  Uiso   1.00
H391   H     0.65312   0.59705   0.23904   0.00000  Uiso   1.00
H392   H     0.84688   0.90296   0.09429   0.00000  Uiso   1.00
H393   H     0.50000   0.83389   0.08358   0.00000  Uiso   1.00
H394   H     0.52899   0.85550   0.03836   0.00000  Uiso   1.00
H395   H     0.97101   0.85550   0.03836   0.00000  Uiso   1.00
H396   H     0.59688   0.84704   0.23904   0.00000  Uiso   1.00
H397   H     0.50000   0.66611   0.24976   0.00000  Uiso   1.00
H398   H     0.52899   0.64450   0.29498   0.00000  Uiso   1.00
H399   H     0.97101   0.64450   0.29498   0.00000  Uiso   1.00
H400   H     0.50000   0.66611   0.08358   0.00000  Uiso   1.00
H401   H     0.97101   0.64450   0.03836   0.00000  Uiso   1.00
H402   H     0.52899   0.64450   0.03836   0.00000  Uiso   1.00
H403   H     0.50000   0.83389   0.24976   0.00000  Uiso   1.00
H404   H     0.97101   0.85550   0.29498   0.00000  Uiso   1.00
H405   H     0.52899   0.85550   0.29498   0.00000  Uiso   1.00
H406   H     0.75000   0.58389   0.08358   0.00000  Uiso   1.00
H407   H     0.59688   0.84704   0.09429   0.00000  Uiso   1.00
H408   H     0.77899   0.60550   0.03836   0.00000  Uiso   1.00
H409   H     0.72101   0.60550   0.03836   0.00000  Uiso   1.00
H410   H     0.75000   0.91611   0.24976   0.00000  Uiso   1.00
H411   H     0.77899   0.89450   0.29498   0.00000  Uiso   1.00
H412   H     0.72101   0.89450   0.29498   0.00000  Uiso   1.00
H413   H     0.75000   0.91611   0.08358   0.00000  Uiso   1.00
H414   H     0.72101   0.89450   0.03836   0.00000  Uiso   1.00
H415   H     0.77899   0.89450   0.03836   0.00000  Uiso   1.00
H416   H     0.75000   0.58389   0.24976   0.00000  Uiso   1.00
H417   H     0.72101   0.60550   0.29498   0.00000  Uiso   1.00
H418   H     0.90312   0.65296   0.23904   0.00000  Uiso   1.00
H419   H     0.77899   0.60550   0.29498   0.00000  Uiso   1.00
H420   H     0.59689   0.65296   0.23904   0.00000  Uiso   1.00
H421   H     0.90312   0.84704   0.09429   0.00000  Uiso   1.00
H422   H     0.90312   0.84705   0.23904   0.00000  Uiso   1.00
H423   H     0.59688   0.65296   0.09429   0.00000  Uiso   1.00
H424   H     0.65312   0.90296   0.09429   0.00000  Uiso   1.00
N425   N     0.50000   0.75000   0.28573   0.00000  Uiso   1.00
N426   N     0.50000   0.75000   0.04760   0.00000  Uiso   1.00
N427   N     0.75000   0.50000   0.28573   0.00000  Uiso   1.00
N428   N     0.75000   0.50000   0.04760   0.00000  Uiso   1.00
O429   O     0.54581   0.70419   0.20487   0.00000  Uiso   1.00
O430   O     0.70420   0.54581   0.12846   0.00000  Uiso   1.00
O431   O     0.70420   0.54581   0.20487   0.00000  Uiso   1.00
O432   O     0.79581   0.95419   0.12846   0.00000  Uiso   1.00
O433   O     0.70420   0.95419   0.12846   0.00000  Uiso   1.00
O434   O     0.79581   0.54581   0.20487   0.00000  Uiso   1.00
O435   O     0.79581   0.54581   0.12846   0.00000  Uiso   1.00
O436   O     0.70420   0.95419   0.20487   0.00000  Uiso   1.00
O437   O     0.95420   0.79581   0.12846   0.00000  Uiso   1.00
O438   O     0.95420   0.79581   0.20487   0.00000  Uiso   1.00
O439   O     0.54581   0.70419   0.12846   0.00000  Uiso   1.00
O440   O     0.95420   0.70419   0.12846   0.00000  Uiso   1.00
O441   O     0.54581   0.79581   0.20487   0.00000  Uiso   1.00
O442   O     0.54581   0.79581   0.12846   0.00000  Uiso   1.00
O443   O     0.95420   0.70419   0.20487   0.00000  Uiso   1.00
O444   O     0.79581   0.95419   0.20487   0.00000  Uiso   1.00
Zn445  Zn    0.50000   0.75000   0.21771   0.00000  Uiso   1.00
Zn446  Zn    0.50000   0.75000   0.11563   0.00000  Uiso   1.00
Zn447  Zn    0.75000   0.50000   0.21771   0.00000  Uiso   1.00
Zn448  Zn    0.75000   0.50000   0.11563   0.00000  Uiso   1.00
C449   C     0.05981   0.18997   0.50000   0.00000  Uiso   1.00
C450   C     0.00000   0.20973   0.64277   0.00000  Uiso   1.00
C451   C     0.00000   0.20973   0.35723   0.00000  Uiso   1.00
C452   C     0.00000   0.29027   0.64277   0.00000  Uiso   1.00
C453   C     0.25000   0.04027   0.35723   0.00000  Uiso   1.00
C454   C     0.25000   0.45973   0.64277   0.00000  Uiso   1.00
C455   C     0.25000   0.45973   0.35723   0.00000  Uiso   1.00
C456   C     0.25000   0.04027   0.64277   0.00000  Uiso   1.00
C457   C     0.39102   0.14091   0.45935   0.00000  Uiso   1.00
C458   C     0.10898   0.35909   0.54065   0.00000  Uiso   1.00
C459   C     0.10898   0.35909   0.45935   0.00000  Uiso   1.00
C460   C     0.44019   0.31003   0.50000   0.00000  Uiso   1.00
C461   C     0.39102   0.14091   0.54065   0.00000  Uiso   1.00
C462   C     0.10898   0.14091   0.54065   0.00000  Uiso   1.00
C463   C     0.39102   0.35909   0.45935   0.00000  Uiso   1.00
C464   C     0.39103   0.35909   0.54065   0.00000  Uiso   1.00
C465   C     0.10898   0.14091   0.45935   0.00000  Uiso   1.00
C466   C     0.14102   0.39091   0.45935   0.00000  Uiso   1.00
C467   C     0.35898   0.10909   0.54065   0.00000  Uiso   1.00
C468   C     0.35898   0.10909   0.45935   0.00000  Uiso   1.00
C469   C     0.14102   0.39091   0.54065   0.00000  Uiso   1.00
C470   C     0.35898   0.39091   0.54065   0.00000  Uiso   1.00
C471   C     0.44019   0.18997   0.50000   0.00000  Uiso   1.00
C472   C     0.14102   0.10909   0.45935   0.00000  Uiso   1.00
C473   C     0.14103   0.10909   0.54065   0.00000  Uiso   1.00
C474   C     0.35898   0.39091   0.45935   0.00000  Uiso   1.00
C475   C     0.09300   0.34321   0.50000   0.00000  Uiso   1.00
C476   C     0.40700   0.15679   0.50000   0.00000  Uiso   1.00
C477   C     0.40700   0.34321   0.50000   0.00000  Uiso   1.00
C478   C     0.09300   0.15679   0.50000   0.00000  Uiso   1.00
C479   C     0.34300   0.09321   0.50000   0.00000  Uiso   1.00
C480   C     0.15700   0.40679   0.50000   0.00000  Uiso   1.00
C481   C     0.15700   0.09321   0.50000   0.00000  Uiso   1.00
C482   C     0.05981   0.31003   0.50000   0.00000  Uiso   1.00
C483   C     0.34300   0.40679   0.50000   0.00000  Uiso   1.00
C484   C     0.00000   0.33584   0.38084   0.00000  Uiso   1.00
C485   C     0.00000   0.16416   0.61916   0.00000  Uiso   1.00
C486   C     0.00000   0.16416   0.38084   0.00000  Uiso   1.00
C487   C     0.00000   0.33584   0.61916   0.00000  Uiso   1.00
C488   C     0.25000   0.08584   0.38084   0.00000  Uiso   1.00
C489   C     0.25000   0.41416   0.61916   0.00000  Uiso   1.00
C490   C     0.25000   0.41416   0.38084   0.00000  Uiso   1.00
C491   C     0.25000   0.08584   0.61916   0.00000  Uiso   1.00
C492   C     0.30981   0.43997   0.50000   0.00000  Uiso   1.00
C493   C     0.19019   0.06003   0.50000   0.00000  Uiso   1.00
C494   C     0.19019   0.43997   0.50000   0.00000  Uiso   1.00
C495   C     0.30981   0.06003   0.50000   0.00000  Uiso   1.00
C496   C     0.00000   0.29027   0.35723   0.00000  Uiso   1.00
H497   H     0.40312   0.15296   0.42762   0.00000  Uiso   1.00
H498   H     0.34688   0.09704   0.57238   0.00000  Uiso   1.00
H499   H     0.34688   0.09704   0.42762   0.00000  Uiso   1.00
H500   H     0.15312   0.40296   0.57238   0.00000  Uiso   1.00
H501   H     0.34689   0.40296   0.57238   0.00000  Uiso   1.00
H502   H     0.15312   0.09704   0.42762   0.00000  Uiso   1.00
H503   H     0.15312   0.09705   0.57238   0.00000  Uiso   1.00
H504   H     0.34688   0.40296   0.42762   0.00000  Uiso   1.00
H505   H     0.00000   0.33389   0.41691   0.00000  Uiso   1.00
H506   H     0.02899   0.35550   0.37169   0.00000  Uiso   1.00
H507   H     0.47101   0.35550   0.37169   0.00000  Uiso   1.00
H508   H     0.09688   0.34704   0.57238   0.00000  Uiso   1.00
H509   H     0.00000   0.16611   0.58309   0.00000  Uiso   1.00
H510   H     0.02899   0.14450   0.62831   0.00000  Uiso   1.00
H511   H     0.47101   0.14450   0.62831   0.00000  Uiso   1.00
H512   H     0.00000   0.16611   0.41691   0.00000  Uiso   1.00
H513   H     0.47101   0.14450   0.37169   0.00000  Uiso   1.00
H514   H     0.02899   0.14450   0.37169   0.00000  Uiso   1.00
H515   H     0.00000   0.33389   0.58309   0.00000  Uiso   1.00
H516   H     0.47101   0.35550   0.62831   0.00000  Uiso   1.00
H517   H     0.02899   0.35550   0.62831   0.00000  Uiso   1.00
H518   H     0.25000   0.08389   0.41691   0.00000  Uiso   1.00
H519   H     0.09688   0.34704   0.42762   0.00000  Uiso   1.00
H520   H     0.27899   0.10550   0.37169   0.00000  Uiso   1.00
H521   H     0.22101   0.10550   0.37169   0.00000  Uiso   1.00
H522   H     0.25000   0.41611   0.58309   0.00000  Uiso   1.00
H523   H     0.27899   0.39450   0.62831   0.00000  Uiso   1.00
H524   H     0.22101   0.39450   0.62831   0.00000  Uiso   1.00
H525   H     0.25000   0.41611   0.41691   0.00000  Uiso   1.00
H526   H     0.22101   0.39450   0.37169   0.00000  Uiso   1.00
H527   H     0.27899   0.39450   0.37169   0.00000  Uiso   1.00
H528   H     0.25000   0.08389   0.58309   0.00000  Uiso   1.00
H529   H     0.22101   0.10550   0.62831   0.00000  Uiso   1.00
H530   H     0.40312   0.15296   0.57238   0.00000  Uiso   1.00
H531   H     0.27899   0.10550   0.62831   0.00000  Uiso   1.00
H532   H     0.09689   0.15296   0.57238   0.00000  Uiso   1.00
H533   H     0.40312   0.34704   0.42762   0.00000  Uiso   1.00
H534   H     0.40312   0.34705   0.57238   0.00000  Uiso   1.00
H535   H     0.09688   0.15296   0.42762   0.00000  Uiso   1.00
H536   H     0.15312   0.40296   0.42762   0.00000  Uiso   1.00
N537   N     0.00000   0.25000   0.61907   0.00000  Uiso   1.00
N538   N     0.00000   0.25000   0.38093   0.00000  Uiso   1.00
N539   N     0.25000  -0.00000   0.61907   0.00000  Uiso   1.00
N540   N     0.25000  -0.00000   0.38093   0.00000  Uiso   1.00
O541   O     0.04581   0.20419   0.53821   0.00000  Uiso   1.00
O542   O     0.20420   0.04581   0.46179   0.00000  Uiso   1.00
O543   O     0.20420   0.04581   0.53821   0.00000  Uiso   1.00
O544   O     0.29581   0.45419   0.46179   0.00000  Uiso   1.00
O545   O     0.20420   0.45419   0.46179   0.00000  Uiso   1.00
O546   O     0.29581   0.04581   0.53821   0.00000  Uiso   1.00
O547   O     0.29581   0.04581   0.46179   0.00000  Uiso   1.00
O548   O     0.20420   0.45419   0.53821   0.00000  Uiso   1.00
O549   O     0.45420   0.29581   0.46179   0.00000  Uiso   1.00
O550   O     0.45420   0.29581   0.53821   0.00000  Uiso   1.00
O551   O     0.04581   0.20419   0.46179   0.00000  Uiso   1.00
O552   O     0.45420   0.20419   0.46179   0.00000  Uiso   1.00
O553   O     0.04581   0.29581   0.53821   0.00000  Uiso   1.00
O554   O     0.04581   0.29581   0.46179   0.00000  Uiso   1.00
O555   O     0.45420   0.20419   0.53821   0.00000  Uiso   1.00
O556   O     0.29581   0.45419   0.53821   0.00000  Uiso   1.00
Zn557  Zn    0.00000   0.25000   0.55104   0.00000  Uiso   1.00
Zn558  Zn    0.00000   0.25000   0.44896   0.00000  Uiso   1.00
Zn559  Zn    0.25000   0.00000   0.55104   0.00000  Uiso   1.00
Zn560  Zn    0.25000  -0.00000   0.44896   0.00000  Uiso   1.00
C561   C     0.55981   0.18997   0.50000   0.00000  Uiso   1.00
C562   C     0.50000   0.20973   0.64277   0.00000  Uiso   1.00
C563   C     0.50000   0.20973   0.35723   0.00000  Uiso   1.00
C564   C     0.50000   0.29027   0.64277   0.00000  Uiso   1.00
C565   C     0.75000   0.04027   0.35723   0.00000  Uiso   1.00
C566   C     0.75000   0.45973   0.64277   0.00000  Uiso   1.00
C567   C     0.75000   0.45973   0.35723   0.00000  Uiso   1.00
C568   C     0.75000   0.04027   0.64277   0.00000  Uiso   1.00
C569   C     0.89102   0.14091   0.45935   0.00000  Uiso   1.00
C570   C     0.60898   0.35909   0.54065   0.00000  Uiso   1.00
C571   C     0.60898   0.35909   0.45935   0.00000  Uiso   1.00
C572   C     0.94019   0.31003   0.50000   0.00000  Uiso   1.00
C573   C     0.89102   0.14091   0.54065   0.00000  Uiso   1.00
C574   C     0.60898   0.14091   0.54065   0.00000  Uiso   1.00
C575   C     0.89102   0.35909   0.45935   0.00000  Uiso   1.00
C576   C     0.89103   0.35909   0.54065   0.00000  Uiso   1.00
C577   C     0.60898   0.14091   0.45935   0.00000  Uiso   1.00
C578   C     0.64102   0.39091   0.45935   0.00000  Uiso   1.00
C579   C     0.85898   0.10909   0.54065   0.00000  Uiso   1.00
C580   C     0.85898   0.10909   0.45935   0.00000  Uiso   1.00
C581   C     0.64102   0.39091   0.54065   0.00000  Uiso   1.00
C582   C     0.85898   0.39091   0.54065   0.00000  Uiso   1.00
C583   C     0.94019   0.18997   0.50000   0.00000  Uiso   1.00
C584   C     0.64102   0.10909   0.45935   0.00000  Uiso   1.00
C585   C     0.64103   0.10909   0.54065   0.00000  Uiso   1.00
C586   C     0.85898   0.39091   0.45935   0.00000  Uiso   1.00
C587   C     0.59300   0.34321   0.50000   0.00000  Uiso   1.00
C588   C     0.90700   0.15679   0.50000   0.00000  Uiso   1.00
C589   C     0.90700   0.34321   0.50000   0.00000  Uiso   1.00
C590   C     0.59300   0.15679   0.50000   0.00000  Uiso   1.00
C591   C     0.84300   0.09321   0.50000   0.00000  Uiso   1.00
C592   C     0.65700   0.40679   0.50000   0.00000  Uiso   1.00
C593   C     0.65700   0.09321   0.50000   0.00000  Uiso   1.00
C594   C     0.55981   0.31003   0.50000   0.00000  Uiso   1.00
C595   C     0.84300   0.40679   0.50000   0.00000  Uiso   1.00
C596   C     0.50000   0.33584   0.38084   0.00000  Uiso   1.00
C597   C     0.50000   0.16416   0.61916   0.00000  Uiso   1.00
C598   C     0.50000   0.16416   0.38084   0.00000  Uiso   1.00
C599   C     0.50000   0.33584   0.61916   0.00000  Uiso   1.00
C600   C     0.75000   0.08584   0.38084   0.00000  Uiso   1.00
C601   C     0.75000   0.41416   0.61916   0.00000  Uiso   1.00
C602   C     0.75000   0.41416   0.38084   0.00000  Uiso   1.00
C603   C     0.75000   0.08584   0.61916   0.00000  Uiso   1.00
C604   C     0.80981   0.43997   0.50000   0.00000  Uiso   1.00
C605   C     0.69019   0.06003   0.50000   0.00000  Uiso   1.00
C606   C     0.69019   0.43997   0.50000   0.00000  Uiso   1.00
C607   C     0.80981   0.06003   0.50000   0.00000  Uiso   1.00
C608   C     0.50000   0.29027   0.35723   0.00000  Uiso   1.00
H609   H     0.90312   0.15296   0.42762   0.00000  Uiso   1.00
H610   H     0.84688   0.09704   0.57238   0.00000  Uiso   1.00
H611   H     0.84688   0.09704   0.42762   0.00000  Uiso   1.00
H612   H     0.65312   0.40296   0.57238   0.00000  Uiso   1.00
H613   H     0.84689   0.40296   0.57238   0.00000  Uiso   1.00
H614   H     0.65312   0.09704   0.42762   0.00000  Uiso   1.00
H615   H     0.65312   0.09705   0.57238   0.00000  Uiso   1.00
H616   H     0.84688   0.40296   0.42762   0.00000  Uiso   1.00
H617   H     0.50000   0.33389   0.41691   0.00000  Uiso   1.00
H618   H     0.52899   0.35550   0.37169   0.00000  Uiso   1.00
H619   H     0.97101   0.35550   0.37169   0.00000  Uiso   1.00
H620   H     0.59688   0.34704   0.57238   0.00000  Uiso   1.00
H621   H     0.50000   0.16611   0.58309   0.00000  Uiso   1.00
H622   H     0.52899   0.14450   0.62831   0.00000  Uiso   1.00
H623   H     0.97101   0.14450   0.62831   0.00000  Uiso   1.00
H624   H     0.50000   0.16611   0.41691   0.00000  Uiso   1.00
H625   H     0.97101   0.14450   0.37169   0.00000  Uiso   1.00
H626   H     0.52899   0.14450   0.37169   0.00000  Uiso   1.00
H627   H     0.50000   0.33389   0.58309   0.00000  Uiso   1.00
H628   H     0.97101   0.35550   0.62831   0.00000  Uiso   1.00
H629   H     0.52899   0.35550   0.62831   0.00000  Uiso   1.00
H630   H     0.75000   0.08389   0.41691   0.00000  Uiso   1.00
H631   H     0.59688   0.34704   0.42762   0.00000  Uiso   1.00
H632   H     0.77899   0.10550   0.37169   0.00000  Uiso   1.00
H633   H     0.72101   0.10550   0.37169   0.00000  Uiso   1.00
H634   H     0.75000   0.41611   0.58309   0.00000  Uiso   1.00
H635   H     0.77899   0.39450   0.62831   0.00000  Uiso   1.00
H636   H     0.72101   0.39450   0.62831   0.00000  Uiso   1.00
H637   H     0.75000   0.41611   0.41691   0.00000  Uiso   1.00
H638   H     0.72101   0.39450   0.37169   0.00000  Uiso   1.00
H639   H     0.77899   0.39450   0.37169   0.00000  Uiso   1.00
H640   H     0.75000   0.08389   0.58309   0.00000  Uiso   1.00
H641   H     0.72101   0.10550   0.62831   0.00000  Uiso   1.00
H642   H     0.90312   0.15296   0.57238   0.00000  Uiso   1.00
H643   H     0.77899   0.10550   0.62831   0.00000  Uiso   1.00
H644   H     0.59689   0.15296   0.57238   0.00000  Uiso   1.00
H645   H     0.90312   0.34704   0.42762   0.00000  Uiso   1.00
H646   H     0.90312   0.34705   0.57238   0.00000  Uiso   1.00
H647   H     0.59688   0.15296   0.42762   0.00000  Uiso   1.00
H648   H     0.65312   0.40296   0.42762   0.00000  Uiso   1.00
N649   N     0.50000   0.25000   0.61907   0.00000  Uiso   1.00
N650   N     0.50000   0.25000   0.38093   0.00000  Uiso   1.00
N651   N     0.75000  -0.00000   0.61907   0.00000  Uiso   1.00
N652   N     0.75000  -0.00000   0.38093   0.00000  Uiso   1.00
O653   O     0.54581   0.20419   0.53821   0.00000  Uiso   1.00
O654   O     0.70420   0.04581   0.46179   0.00000  Uiso   1.00
O655   O     0.70420   0.04581   0.53821   0.00000  Uiso   1.00
O656   O     0.79581   0.45419   0.46179   0.00000  Uiso   1.00
O657   O     0.70420   0.45419   0.46179   0.00000  Uiso   1.00
O658   O     0.79581   0.04581   0.53821   0.00000  Uiso   1.00
O659   O     0.79581   0.04581   0.46179   0.00000  Uiso   1.00
O660   O     0.70420   0.45419   0.53821   0.00000  Uiso   1.00
O661   O     0.95420   0.29581   0.46179   0.00000  Uiso   1.00
O662   O     0.95420   0.29581   0.53821   0.00000  Uiso   1.00
O663   O     0.54581   0.20419   0.46179   0.00000  Uiso   1.00
O664   O     0.95420   0.20419   0.46179   0.00000  Uiso   1.00
O665   O     0.54581   0.29581   0.53821   0.00000  Uiso   1.00
O666   O     0.54581   0.29581   0.46179   0.00000  Uiso   1.00
O667   O     0.95420   0.20419   0.53821   0.00000  Uiso   1.00
O668   O     0.79581   0.45419   0.53821   0.00000  Uiso   1.00
Zn669  Zn    0.50000   0.25000   0.55104   0.00000  Uiso   1.00
Zn670  Zn    0.50000   0.25000   0.44896   0.00000  Uiso   1.00
Zn671  Zn    0.75000   0.00000   0.55104   0.00000  Uiso   1.00
Zn672  Zn    0.75000  -0.00000   0.44896   0.00000  Uiso   1.00
C673   C     0.05981   0.68997   0.50000   0.00000  Uiso   1.00
C674   C     0.00000   0.70973   0.64277   0.00000  Uiso   1.00
C675   C     0.00000   0.70973   0.35723   0.00000  Uiso   1.00
C676   C     0.00000   0.79027   0.64277   0.00000  Uiso   1.00
C677   C     0.25000   0.54027   0.35723   0.00000  Uiso   1.00
C678   C     0.25000   0.95973   0.64277   0.00000  Uiso   1.00
C679   C     0.25000   0.95973   0.35723   0.00000  Uiso   1.00
C680   C     0.25000   0.54027   0.64277   0.00000  Uiso   1.00
C681   C     0.39102   0.64091   0.45935   0.00000  Uiso   1.00
C682   C     0.10898   0.85909   0.54065   0.00000  Uiso   1.00
C683   C     0.10898   0.85909   0.45935   0.00000  Uiso   1.00
C684   C     0.44019   0.81003   0.50000   0.00000  Uiso   1.00
C685   C     0.39102   0.64091   0.54065   0.00000  Uiso   1.00
C686   C     0.10898   0.64091   0.54065   0.00000  Uiso   1.00
C687   C     0.39102   0.85909   0.45935   0.00000  Uiso   1.00
C688   C     0.39103   0.85909   0.54065   0.00000  Uiso   1.00
C689   C     0.10898   0.64091   0.45935   0.00000  Uiso   1.00
C690   C     0.14102   0.89091   0.45935   0.00000  Uiso   1.00
C691   C     0.35898   0.60909   0.54065   0.00000  Uiso   1.00
C692   C     0.35898   0.60909   0.45935   0.00000  Uiso   1.00
C693   C     0.14102   0.89091   0.54065   0.00000  Uiso   1.00
C694   C     0.35898   0.89091   0.54065   0.00000  Uiso   1.00
C695   C     0.44019   0.68997   0.50000   0.00000  Uiso   1.00
C696   C     0.14102   0.60909   0.45935   0.00000  Uiso   1.00
C697   C     0.14103   0.60909   0.54065   0.00000  Uiso   1.00
C698   C     0.35898   0.89091   0.45935   0.00000  Uiso   1.00
C699   C     0.09300   0.84321   0.50000   0.00000  Uiso   1.00
C700   C     0.40700   0.65679   0.50000   0.00000  Uiso   1.00
C701   C     0.40700   0.84321   0.50000   0.00000  Uiso   1.00
C702   C     0.09300   0.65679   0.50000   0.00000  Uiso   1.00
C703   C     0.34300   0.59321   0.50000   0.00000  Uiso   1.00
C704   C     0.15700   0.90679   0.50000   0.00000  Uiso   1.00
C705   C     0.15700   0.59321   0.50000   0.00000  Uiso   1.00
C706   C     0.05981   0.81003   0.50000   0.00000  Uiso   1.00
C707   C     0.34300   0.90679   0.50000   0.00000  Uiso   1.00
C708   C     0.00000   0.83584   0.38084   0.00000  Uiso   1.00
C709   C     0.00000   0.66416   0.61916   0.00000  Uiso   1.00
C710   C     0.00000   0.66416   0.38084   0.00000  Uiso   1.00
C711   C     0.00000   0.83584   0.61916   0.00000  Uiso   1.00
C712   C     0.25000   0.58584   0.38084   0.00000  Uiso   1.00
C713   C     0.25000   0.91416   0.61916   0.00000  Uiso   1.00
C714   C     0.25000   0.91416   0.38084   0.00000  Uiso   1.00
C715   C     0.25000   0.58584   0.61916   0.00000  Uiso   1.00
C716   C     0.30981   0.93997   0.50000   0.00000  Uiso   1.00
C717   C     0.19019   0.56003   0.50000   0.00000  Uiso   1.00
C718   C     0.19019   0.93997   0.50000   0.00000  Uiso   1.00
C719   C     0.30981   0.56003   0.50000   0.00000  Uiso   1.00
C720   C     0.00000   0.79027   0.35723   0.00000  Uiso   1.00
H721   H     0.40312   0.65296   0.42762   0.00000  Uiso   1.00
H722   H     0.34688   0.59704   0.57238   0.00000  Uiso   1.00
H723   H     0.34688   0.59704   0.42762   0.00000  Uiso   1.00
H724   H     0.15312   0.90296   0.57238   0.00000  Uiso   1.00
H725   H     0.34689   0.90296   0.57238   0.00000  Uiso   1.00
H726   H     0.15312   0.59704   0.42762   0.00000  Uiso   1.00
H727   H     0.15312   0.59705   0.57238   0.00000  Uiso   1.00
H728   H     0.34688   0.90296   0.42762   0.00000  Uiso   1.00
H729   H     0.00000   0.83389   0.41691   0.00000  Uiso   1.00
H730   H     0.02899   0.85550   0.37169   0.00000  Uiso   1.00
H731   H     0.47101   0.85550   0.37169   0.00000  Uiso   1.00
H732   H     0.09688   0.84704   0.57238   0.00000  Uiso   1.00
H733   H     0.00000   0.66611   0.58309   0.00000  Uiso   1.00
H734   H     0.02899   0.64450   0.62831   0.00000  Uiso   1.00
H735   H     0.47101   0.64450   0.62831   0.00000  Uiso   1.00
H736   H     0.00000   0.66611   0.41691   0.00000  Uiso   1.00
H737   H     0.47101   0.64450   0.37169   0.00000  Uiso   1.00
H738   H     0.02899   0.64450   0.37169   0.00000  Uiso   1.00
H739   H     0.00000   0.83389   0.58309   0.00000  Uiso   1.00
H740   H     0.47101   0.85550   0.62831   0.00000  Uiso   1.00
H741   H     0.02899   0.85550   0.62831   0.00000  Uiso   1.00
H742   H     0.25000   0.58389   0.41691   0.00000  Uiso   1.00
H743   H     0.09688   0.84704   0.42762   0.00000  Uiso   1.00
H744   H     0.27899   0.60550   0.37169   0.00000  Uiso   1.00
H745   H     0.22101   0.60550   0.37169   0.00000  Uiso   1.00
H746   H     0.25000   0.91611   0.58309   0.00000  Uiso   1.00
H747   H     0.27899   0.89450   0.62831   0.00000  Uiso   1.00
H748   H     0.22101   0.89450   0.62831   0.00000  Uiso   1.00
H749   H     0.25000   0.91611   0.41691   0.00000  Uiso   1.00
H750   H     0.22101   0.89450   0.37169   0.00000  Uiso   1.00
H751   H     0.27899   0.89450   0.37169   0.00000  Uiso   1.00
H752   H     0.25000   0.58389   0.58309   0.00000  Uiso   1.00
H753   H     0.22101   0.60550   0.62831   0.00000  Uiso   1.00
H754   H     0.40312   0.65296   0.57238   0.00000  Uiso   1.00
H755   H     0.27899   0.60550   0.62831   0.00000  Uiso   1.00
H756   H     0.09689   0.65296   0.57238   0.00000  Uiso   1.00
H757   H     0.40312   0.84704   0.42762   0.00000  Uiso   1.00
H758   H     0.40312   0.84705   0.57238   0.00000  Uiso   1.00
H759   H     0.09688   0.65296   0.42762   0.00000  Uiso   1.00
H760   H     0.15312   0.90296   0.42762   0.00000  Uiso   1.00
N761   N     0.00000   0.75000   0.61907   0.00000  Uiso   1.00
N762   N     0.00000   0.75000   0.38093   0.00000  Uiso   1.00
N763   N     0.25000   0.50000   0.61907   0.00000  Uiso   1.00
N764   N     0.25000   0.50000   0.38093   0.00000  Uiso   1.00
O765   O     0.04581   0.70419   0.53821   0.00000  Uiso   1.00
O766   O     0.20420   0.54581   0.46179   0.00000  Uiso   1.00
O767   O     0.20420   0.54581   0.53821   0.00000  Uiso   1.00
O768   O     0.29581   0.95419   0.46179   0.00000  Uiso   1.00
O769   O     0.20420   0.95419   0.46179   0.00000  Uiso   1.00
O770   O     0.29581   0.54581   0.53821   0.00000  Uiso   1.00
O771   O     0.29581   0.54581   0.46179   0.00000  Uiso   1.00
O772   O     0.20420   0.95419   0.53821   0.00000  Uiso   1.00
O773   O     0.45420   0.79581   0.46179   0.00000  Uiso   1.00
O774   O     0.45420   0.79581   0.53821   0.00000  Uiso   1.00
O775   O     0.04581   0.70419   0.46179   0.00000  Uiso   1.00
O776   O     0.45420   0.70419   0.46179   0.00000  Uiso   1.00
O777   O     0.04581   0.79581   0.53821   0.00000  Uiso   1.00
O778   O     0.04581   0.79581   0.46179   0.00000  Uiso   1.00
O779   O     0.45420   0.70419   0.53821   0.00000  Uiso   1.00
O780   O     0.29581   0.95419   0.53821   0.00000  Uiso   1.00
Zn781  Zn    0.00000   0.75000   0.55104   0.00000  Uiso   1.00
Zn782  Zn    0.00000   0.75000   0.44896   0.00000  Uiso   1.00
Zn783  Zn    0.25000   0.50000   0.55104   0.00000  Uiso   1.00
Zn784  Zn    0.25000   0.50000   0.44896   0.00000  Uiso   1.00
C785   C     0.55981   0.68997   0.50000   0.00000  Uiso   1.00
C786   C     0.50000   0.70973   0.64277   0.00000  Uiso   1.00
C787   C     0.50000   0.70973   0.35723   0.00000  Uiso   1.00
C788   C     0.50000   0.79027   0.64277   0.00000  Uiso   1.00
C789   C     0.75000   0.54027   0.35723   0.00000  Uiso   1.00
C790   C     0.75000   0.95973   0.64277   0.00000  Uiso   1.00
C791   C     0.75000   0.95973   0.35723   0.00000  Uiso   1.00
C792   C     0.75000   0.54027   0.64277   0.00000  Uiso   1.00
C793   C     0.89102   0.64091   0.45935   0.00000  Uiso   1.00
C794   C     0.60898   0.85909   0.54065   0.00000  Uiso   1.00
C795   C     0.60898   0.85909   0.45935   0.00000  Uiso   1.00
C796   C     0.94019   0.81003   0.50000   0.00000  Uiso   1.00
C797   C     0.89102   0.64091   0.54065   0.00000  Uiso   1.00
C798   C     0.60898   0.64091   0.54065   0.00000  Uiso   1.00
C799   C     0.89102   0.85909   0.45935   0.00000  Uiso   1.00
C800   C     0.89103   0.85909   0.54065   0.00000  Uiso   1.00
C801   C     0.60898   0.64091   0.45935   0.00000  Uiso   1.00
C802   C     0.64102   0.89091   0.45935   0.00000  Uiso   1.00
C803   C     0.85898   0.60909   0.54065   0.00000  Uiso   1.00
C804   C     0.85898   0.60909   0.45935   0.00000  Uiso   1.00
C805   C     0.64102   0.89091   0.54065   0.00000  Uiso   1.00
C806   C     0.85898   0.89091   0.54065   0.00000  Uiso   1.00
C807   C     0.94019   0.68997   0.50000   0.00000  Uiso   1.00
C808   C     0.64102   0.60909   0.45935   0.00000  Uiso   1.00
C809   C     0.64103   0.60909   0.54065   0.00000  Uiso   1.00
C810   C     0.85898   0.89091   0.45935   0.00000  Uiso   1.00
C811   C     0.59300   0.84321   0.50000   0.00000  Uiso   1.00
C812   C     0.90700   0.65679   0.50000   0.00000  Uiso   1.00
C813   C     0.90700   0.84321   0.50000   0.00000  Uiso   1.00
C814   C     0.59300   0.65679   0.50000   0.00000  Uiso   1.00
C815   C     0.84300   0.59321   0.50000   0.00000  Uiso   1.00
C816   C     0.65700   0.90679   0.50000   0.00000  Uiso   1.00
C817   C     0.65700   0.59321   0.50000   0.00000  Uiso   1.00
C818   C     0.55981   0.81003   0.50000   0.00000  Uiso   1.00
C819   C     0.84300   0.90679   0.50000   0.00000  Uiso   1.00
C820   C     0.50000   0.83584   0.38084   0.00000  Uiso   1.00
C821   C     0.50000   0.66416   0.61916   0.00000  Uiso   1.00
C822   C     0.50000   0.66416   0.38084   0.00000  Uiso   1.00
C823   C     0.50000   0.83584   0.61916   0.00000  Uiso   1.00
C824   C     0.75000   0.58584   0.38084   0.00000  Uiso   1.00
C825   C     0.75000   0.91416   0.61916   0.00000  Uiso   1.00
C826   C     0.75000   0.91416   0.38084   0.00000  Uiso   1.00
C827   C     0.75000   0.58584   0.61916   0.00000  Uiso   1.00
C828   C     0.80981   0.93997   0.50000   0.00000  Uiso   1.00
C829   C     0.69019   0.56003   0.50000   0.00000  Uiso   1.00
C830   C     0.69019   0.93997   0.50000   0.00000  Uiso   1.00
C831   C     0.80981   0.56003   0.50000   0.00000  Uiso   1.00
C832   C     0.50000   0.79027   0.35723   0.00000  Uiso   1.00
H833   H     0.90312   0.65296   0.42762   0.00000  Uiso   1.00
H834   H     0.84688   0.59704   0.57238   0.00000  Uiso   1.00
H835   H     0.84688   0.59704   0.42762   0.00000  Uiso   1.00
H836   H     0.65312   0.90296   0.57238   0.00000  Uiso   1.00
H837   H     0.84689   0.90296   0.57238   0.00000  Uiso   1.00
H838   H     0.65312   0.59704   0.42762   0.00000  Uiso   1.00
H839   H     0.65312   0.59705   0.57238   0.00000  Uiso   1.00
H840   H     0.84688   0.90296   0.42762   0.00000  Uiso   1.00
H841   H     0.50000   0.83389   0.41691   0.00000  Uiso   1.00
H842   H     0.52899   0.85550   0.37169   0.00000  Uiso   1.00
H843   H     0.97101   0.85550   0.37169   0.00000  Uiso   1.00
H844   H     0.59688   0.84704   0.57238   0.00000  Uiso   1.00
H845   H     0.50000   0.66611   0.58309   0.00000  Uiso   1.00
H846   H     0.52899   0.64450   0.62831   0.00000  Uiso   1.00
H847   H     0.97101   0.64450   0.62831   0.00000  Uiso   1.00
H848   H     0.50000   0.66611   0.41691   0.00000  Uiso   1.00
H849   H     0.97101   0.64450   0.37169   0.00000  Uiso   1.00
H850   H     0.52899   0.64450   0.37169   0.00000  Uiso   1.00
H851   H     0.50000   0.83389   0.58309   0.00000  Uiso   1.00
H852   H     0.97101   0.85550   0.62831   0.00000  Uiso   1.00
H853   H     0.52899   0.85550   0.62831   0.00000  Uiso   1.00
H854   H     0.75000   0.58389   0.41691   0.00000  Uiso   1.00
H855   H     0.59688   0.84704   0.42762   0.00000  Uiso   1.00
H856   H     0.77899   0.60550   0.37169   0.00000  Uiso   1.00
H857   H     0.72101   0.60550   0.37169   0.00000  Uiso   1.00
H858   H     0.75000   0.91611   0.58309   0.00000  Uiso   1.00
H859   H     0.77899   0.89450   0.62831   0.00000  Uiso   1.00
H860   H     0.72101   0.89450   0.62831   0.00000  Uiso   1.00
H861   H     0.75000   0.91611   0.41691   0.00000  Uiso   1.00
H862   H     0.72101   0.89450   0.37169   0.00000  Uiso   1.00
H863   H     0.77899   0.89450   0.37169   0.00000  Uiso   1.00
H864   H     0.75000   0.58389   0.58309   0.00000  Uiso   1.00
H865   H     0.72101   0.60550   0.62831   0.00000  Uiso   1.00
H866   H     0.90312   0.65296   0.57238   0.00000  Uiso   1.00
H867   H     0.77899   0.60550   0.62831   0.00000  Uiso   1.00
H868   H     0.59689   0.65296   0.57238   0.00000  Uiso   1.00
H869   H     0.90312   0.84704   0.42762   0.00000  Uiso   1.00
H870   H     0.90312   0.84705   0.57238   0.00000  Uiso   1.00
H871   H     0.59688   0.65296   0.42762   0.00000  Uiso   1.00
H872   H     0.65312   0.90296   0.42762   0.00000  Uiso   1.00
N873   N     0.50000   0.75000   0.61907   0.00000  Uiso   1.00
N874   N     0.50000   0.75000   0.38093   0.00000  Uiso   1.00
N875   N     0.75000   0.50000   0.61907   0.00000  Uiso   1.00
N876   N     0.75000   0.50000   0.38093   0.00000  Uiso   1.00
O877   O     0.54581   0.70419   0.53821   0.00000  Uiso   1.00
O878   O     0.70420   0.54581   0.46179   0.00000  Uiso   1.00
O879   O     0.70420   0.54581   0.53821   0.00000  Uiso   1.00
O880   O     0.79581   0.95419   0.46179   0.00000  Uiso   1.00
O881   O     0.70420   0.95419   0.46179   0.00000  Uiso   1.00
O882   O     0.79581   0.54581   0.53821   0.00000  Uiso   1.00
O883   O     0.79581   0.54581   0.46179   0.00000  Uiso   1.00
O884   O     0.70420   0.95419   0.53821   0.00000  Uiso   1.00
O885   O     0.95420   0.79581   0.46179   0.00000  Uiso   1.00
O886   O     0.95420   0.79581   0.53821   0.00000  Uiso   1.00
O887   O     0.54581   0.70419   0.46179   0.00000  Uiso   1.00
O888   O     0.95420   0.70419   0.46179   0.00000  Uiso   1.00
O889   O     0.54581   0.79581   0.53821   0.00000  Uiso   1.00
O890   O     0.54581   0.79581   0.46179   0.00000  Uiso   1.00
O891   O     0.95420   0.70419   0.53821   0.00000  Uiso   1.00
O892   O     0.79581   0.95419   0.53821   0.00000  Uiso   1.00
Zn893  Zn    0.50000   0.75000   0.55104   0.00000  Uiso   1.00
Zn894  Zn    0.50000   0.75000   0.44896   0.00000  Uiso   1.00
Zn895  Zn    0.75000   0.50000   0.55104   0.00000  Uiso   1.00
Zn896  Zn    0.75000   0.50000   0.44896   0.00000  Uiso   1.00
C897   C     0.05981   0.18997   0.83333   0.00000  Uiso   1.00
C898   C     0.00000   0.20973   0.97610   0.00000  Uiso   1.00
C899   C     0.00000   0.20973   0.69056   0.00000  Uiso   1.00
C900   C     0.00000   0.29027   0.97610   0.00000  Uiso   1.00
C901   C     0.25000   0.04027   0.69056   0.00000  Uiso   1.00
C902   C     0.25000   0.45973   0.97610   0.00000  Uiso   1.00
C903   C     0.25000   0.45973   0.69056   0.00000  Uiso   1.00
C904   C     0.25000   0.04027   0.97610   0.00000  Uiso   1.00
C905   C     0.39102   0.14091   0.79268   0.00000  Uiso   1.00
C906   C     0.10898   0.35909   0.87398   0.00000  Uiso   1.00
C907   C     0.10898   0.35909   0.79268   0.00000  Uiso   1.00
C908   C     0.44019   0.31003   0.83333   0.00000  Uiso   1.00
C909   C     0.39102   0.14091   0.87398   0.00000  Uiso   1.00
C910   C     0.10898   0.14091   0.87398   0.00000  Uiso   1.00
C911   C     0.39102   0.35909   0.79268   0.00000  Uiso   1.00
C912   C     0.39103   0.35909   0.87398   0.00000  Uiso   1.00
C913   C     0.10898   0.14091   0.79268   0.00000  Uiso   1.00
C914   C     0.14102   0.39091   0.79268   0.00000  Uiso   1.00
C915   C     0.35898   0.10909   0.87398   0.00000  Uiso   1.00
C916   C     0.35898   0.10909   0.79268   0.00000  Uiso   1.00
C917   C     0.14102   0.39091   0.87398   0.00000  Uiso   1.00
C918   C     0.35898   0.39091   0.87398   0.00000  Uiso   1.00
C919   C     0.44019   0.18997   0.83333   0.00000  Uiso   1.00
C920   C     0.14102   0.10909   0.79268   0.00000  Uiso   1.00
C921   C     0.14103   0.10909   0.87398   0.00000  Uiso   1.00
C922   C     0.35898   0.39091   0.79268   0.00000  Uiso   1.00
C923   C     0.09300   0.34321   0.83333   0.00000  Uiso   1.00
C924   C     0.40700   0.15679   0.83333   0.00000  Uiso   1.00
C925   C     0.40700   0.34321   0.83333   0.00000  Uiso   1.00
C926   C     0.09300   0.15679   0.83333   0.00000  Uiso   1.00
C927   C     0.34300   0.09321   0.83333   0.00000  Uiso   1.00
C928   C     0.15700   0.40679   0.83333   0.00000  Uiso   1.00
C929   C     0.15700   0.09321   0.83333   0.00000  Uiso   1.00
C930   C     0.05981   0.31003   0.83333   0.00000  Uiso   1.00
C931   C     0.34300   0.40679   0.83333   0.00000  Uiso   1.00
C932   C     0.00000   0.33584   0.71417   0.00000  Uiso   1.00
C933   C     0.00000   0.16416   0.95250   0.00000  Uiso   1.00
C934   C     0.00000   0.16416   0.71417   0.00000  Uiso   1.00
C935   C     0.00000   0.33584   0.95250   0.00000  Uiso   1.00
C936   C     0.25000   0.08584   0.71417   0.00000  Uiso   1.00
C937   C     0.25000   0.41416   0.95250   0.00000  Uiso   1.00
C938   C     0.25000   0.41416   0.71417   0.00000  Uiso   1.00
C939   C     0.25000   0.08584   0.95250   0.00000  Uiso   1.00
C940   C     0.30981   0.43997   0.83333   0.00000  Uiso   1.00
C941   C     0.19019   0.06003   0.83333   0.00000  Uiso   1.00
C942   C     0.19019   0.43997   0.83333   0.00000  Uiso   1.00
C943   C     0.30981   0.06003   0.83333   0.00000  Uiso   1.00
C944   C     0.00000   0.29027   0.69056   0.00000  Uiso   1.00
H945   H     0.40312   0.15296   0.76096   0.00000  Uiso   1.00
H946   H     0.34688   0.09704   0.90571   0.00000  Uiso   1.00
H947   H     0.34688   0.09704   0.76096   0.00000  Uiso   1.00
H948   H     0.15312   0.40296   0.90571   0.00000  Uiso   1.00
H949   H     0.34689   0.40296   0.90571   0.00000  Uiso   1.00
H950   H     0.15312   0.09704   0.76096   0.00000  Uiso   1.00
H951   H     0.15312   0.09705   0.90571   0.00000  Uiso   1.00
H952   H     0.34688   0.40296   0.76096   0.00000  Uiso   1.00
H953   H     0.00000   0.33389   0.75024   0.00000  Uiso   1.00
H954   H     0.02899   0.35550   0.70502   0.00000  Uiso   1.00
H955   H     0.47101   0.35550   0.70502   0.00000  Uiso   1.00
H956   H     0.09688   0.34704   0.90571   0.00000  Uiso   1.00
H957   H     0.00000   0.16611   0.91642   0.00000  Uiso   1.00
H958   H     0.02899   0.14450   0.96164   0.00000  Uiso   1.00
H959   H     0.47101   0.14450   0.96164   0.00000  Uiso   1.00
H960   H     0.00000   0.16611   0.75024   0.00000  Uiso   1.00
H961   H     0.47101   0.14450   0.70502   0.00000  Uiso   1.00
H962   H     0.02899   0.14450   0.70502   0.00000  Uiso   1.00
H963   H     0.00000   0.33389   0.91642   0.00000  Uiso   1.00
H964   H     0.47101   0.35550   0.96164   0.00000  Uiso   1.00
H965   H     0.02899   0.35550   0.96164   0.00000  Uiso   1.00
H966   H     0.25000   0.08389   0.75024   0.00000  Uiso   1.00
H967   H     0.09688   0.34704   0.76096   0.00000  Uiso   1.00
H968   H     0.27899   0.10550   0.70502   0.00000  Uiso   1.00
H969   H     0.22101   0.10550   0.70502   0.00000  Uiso   1.00
H970   H     0.25000   0.41611   0.91642   0.00000  Uiso   1.00
H971   H     0.27899   0.39450   0.96164   0.00000  Uiso   1.00
H972   H     0.22101   0.39450   0.96164   0.00000  Uiso   1.00
H973   H     0.25000   0.41611   0.75024   0.00000  Uiso   1.00
H974   H     0.22101   0.39450   0.70502   0.00000  Uiso   1.00
H975   H     0.27899   0.39450   0.70502   0.00000  Uiso   1.00
H976   H     0.25000   0.08389   0.91642   0.00000  Uiso   1.00
H977   H     0.22101   0.10550   0.96164   0.00000  Uiso   1.00
H978   H     0.40312   0.15296   0.90571   0.00000  Uiso   1.00
H979   H     0.27899   0.10550   0.96164   0.00000  Uiso   1.00
H980   H     0.09689   0.15296   0.90571   0.00000  Uiso   1.00
H981   H     0.40312   0.34704   0.76096   0.00000  Uiso   1.00
H982   H     0.40312   0.34705   0.90571   0.00000  Uiso   1.00
H983   H     0.09688   0.15296   0.76096   0.00000  Uiso   1.00
H984   H     0.15312   0.40296   0.76096   0.00000  Uiso   1.00
N985   N     0.00000   0.25000   0.95240   0.00000  Uiso   1.00
N986   N     0.00000   0.25000   0.71427   0.00000  Uiso   1.00
N987   N     0.25000  -0.00000   0.95240   0.00000  Uiso   1.00
N988   N     0.25000  -0.00000   0.71427   0.00000  Uiso   1.00
O989   O     0.04581   0.20419   0.87154   0.00000  Uiso   1.00
O990   O     0.20420   0.04581   0.79513   0.00000  Uiso   1.00
O991   O     0.20420   0.04581   0.87154   0.00000  Uiso   1.00
O992   O     0.29581   0.45419   0.79513   0.00000  Uiso   1.00
O993   O     0.20420   0.45419   0.79513   0.00000  Uiso   1.00
O994   O     0.29581   0.04581   0.87154   0.00000  Uiso   1.00
O995   O     0.29581   0.04581   0.79513   0.00000  Uiso   1.00
O996   O     0.20420   0.45419   0.87154   0.00000  Uiso   1.00
O997   O     0.45420   0.29581   0.79513   0.00000  Uiso   1.00
O998   O     0.45420   0.29581   0.87154   0.00000  Uiso   1.00
O999   O     0.04581   0.20419   0.79513   0.00000  Uiso   1.00
O1000  O     0.45420   0.20419   0.79513   0.00000  Uiso   1.00
O1001  O     0.04581   0.29581   0.87154   0.00000  Uiso   1.00
O1002  O     0.04581   0.29581   0.79513   0.00000  Uiso   1.00
O1003  O     0.45420   0.20419   0.87154   0.00000  Uiso   1.00
O1004  O     0.29581   0.45419   0.87154   0.00000  Uiso   1.00
Zn1005 Zn    0.00000   0.25000   0.88437   0.00000  Uiso   1.00
Zn1006 Zn    0.00000   0.25000   0.78229   0.00000  Uiso   1.00
Zn1007 Zn    0.25000   0.00000   0.88437   0.00000  Uiso   1.00
Zn1008 Zn    0.25000  -0.00000   0.78229   0.00000  Uiso   1.00
C1009  C     0.55981   0.18997   0.83333   0.00000  Uiso   1.00
C1010  C     0.50000   0.20973   0.97610   0.00000  Uiso   1.00
C1011  C     0.50000   0.20973   0.69056   0.00000  Uiso   1.00
C1012  C     0.50000   0.29027   0.97610   0.00000  Uiso   1.00
C1013  C     0.75000   0.04027   0.69056   0.00000  Uiso   1.00
C1014  C     0.75000   0.45973   0.97610   0.00000  Uiso   1.00
C1015  C     0.75000   0.45973   0.69056   0.00000  Uiso   1.00
C1016  C     0.75000   0.04027   0.97610   0.00000  Uiso   1.00
C1017  C     0.89102   0.14091   0.79268   0.00000  Uiso   1.00
C1018  C     0.60898   0.35909   0.87398   0.00000  Uiso   1.00
C1019  C     0.60898   0.35909   0.79268   0.00000  Uiso   1.00
C1020  C     0.94019   0.31003   0.83333   0.00000  Uiso   1.00
C1021  C     0.89102   0.14091   0.87398   0.00000  Uiso   1.00
C1022  C     0.60898   0.14091   0.87398   0.00000  Uiso   1.00
C1023  C     0.89102   0.35909   0.79268   0.00000  Uiso   1.00
C1024  C     0.89103   0.35909   0.87398   0.00000  Uiso   1.00
C1025  C     0.60898   0.14091   0.79268   0.00000  Uiso   1.00
C1026  C     0.64102   0.39091   0.79268   0.00000  Uiso   1.00
C1027  C     0.85898   0.10909   0.87398   0.00000  Uiso   1.00
C1028  C     0.85898   0.10909   0.79268   0.00000  Uiso   1.00
C1029  C     0.64102   0.39091   0.87398   0.00000  Uiso   1.00
C1030  C     0.85898   0.39091   0.87398   0.00000  Uiso   1.00
C1031  C     0.94019   0.18997   0.83333   0.00000  Uiso   1.00
C1032  C     0.64102   0.10909   0.79268   0.00000  Uiso   1.00
C1033  C     0.64103   0.10909   0.87398   0.00000  Uiso   1.00
C1034  C     0.85898   0.39091   0.79268   0.00000  Uiso   1.00
C1035  C     0.59300   0.34321   0.83333   0.00000  Uiso   1.00
C1036  C     0.90700   0.15679   0.83333   0.00000  Uiso   1.00
C1037  C     0.90700   0.34321   0.83333   0.00000  Uiso   1.00
C1038  C     0.59300   0.15679   0.83333   0.00000  Uiso   1.00
C1039  C     0.84300   0.09321   0.83333   0.00000  Uiso   1.00
C1040  C     0.65700   0.40679   0.83333   0.00000  Uiso   1.00
C1041  C     0.65700   0.09321   0.83333   0.00000  Uiso   1.00
C1042  C     0.55981   0.31003   0.83333   0.00000  Uiso   1.00
C1043  C     0.84300   0.40679   0.83333   0.00000  Uiso   1.00
C1044  C     0.50000   0.33584   0.71417   0.00000  Uiso   1.00
C1045  C     0.50000   0.16416   0.95250   0.00000  Uiso   1.00
C1046  C     0.50000   0.16416   0.71417   0.00000  Uiso   1.00
C1047  C     0.50000   0.33584   0.95250   0.00000  Uiso   1.00
C1048  C     0.75000   0.08584   0.71417   0.00000  Uiso   1.00
C1049  C     0.75000   0.41416   0.95250   0.00000  Uiso   1.00
C1050  C     0.75000   0.41416   0.71417   0.00000  Uiso   1.00
C1051  C     0.75000   0.08584   0.95250   0.00000  Uiso   1.00
C1052  C     0.80981   0.43997   0.83333   0.00000  Uiso   1.00
C1053  C     0.69019   0.06003   0.83333   0.00000  Uiso   1.00
C1054  C     0.69019   0.43997   0.83333   0.00000  Uiso   1.00
C1055  C     0.80981   0.06003   0.83333   0.00000  Uiso   1.00
C1056  C     0.50000   0.29027   0.69056   0.00000  Uiso   1.00
H1057  H     0.90312   0.15296   0.76096   0.00000  Uiso   1.00
H1058  H     0.84688   0.09704   0.90571   0.00000  Uiso   1.00
H1059  H     0.84688   0.09704   0.76096   0.00000  Uiso   1.00
H1060  H     0.65312   0.40296   0.90571   0.00000  Uiso   1.00
H1061  H     0.84689   0.40296   0.90571   0.00000  Uiso   1.00
H1062  H     0.65312   0.09704   0.76096   0.00000  Uiso   1.00
H1063  H     0.65312   0.09705   0.90571   0.00000  Uiso   1.00
H1064  H     0.84688   0.40296   0.76096   0.00000  Uiso   1.00
H1065  H     0.50000   0.33389   0.75024   0.00000  Uiso   1.00
H1066  H     0.52899   0.35550   0.70502   0.00000  Uiso   1.00
H1067  H     0.97101   0.35550   0.70502   0.00000  Uiso   1.00
H1068  H     0.59688   0.34704   0.90571   0.00000  Uiso   1.00
H1069  H     0.50000   0.16611   0.91642   0.00000  Uiso   1.00
H1070  H     0.52899   0.14450   0.96164   0.00000  Uiso   1.00
H1071  H     0.97101   0.14450   0.96164   0.00000  Uiso   1.00
H1072  H     0.50000   0.16611   0.75024   0.00000  Uiso   1.00
H1073  H     0.97101   0.14450   0.70502   0.00000  Uiso   1.00
H1074  H     0.52899   0.14450   0.70502   0.00000  Uiso   1.00
H1075  H     0.50000   0.33389   0.91642   0.00000  Uiso   1.00
H1076  H     0.97101   0.35550   0.96164   0.00000  Uiso   1.00
H1077  H     0.52899   0.35550   0.96164   0.00000  Uiso   1.00
H1078  H     0.75000   0.08389   0.75024   0.00000  Uiso   1.00
H1079  H     0.59688   0.34704   0.76096   0.00000  Uiso   1.00
H1080  H     0.77899   0.10550   0.70502   0.00000  Uiso   1.00
H1081  H     0.72101   0.10550   0.70502   0.00000  Uiso   1.00
H1082  H     0.75000   0.41611   0.91642   0.00000  Uiso   1.00
H1083  H     0.77899   0.39450   0.96164   0.00000  Uiso   1.00
H1084  H     0.72101   0.39450   0.96164   0.00000  Uiso   1.00
H1085  H     0.75000   0.41611   0.75024   0.00000  Uiso   1.00
H1086  H     0.72101   0.39450   0.70502   0.00000  Uiso   1.00
H1087  H     0.77899   0.39450   0.70502   0.00000  Uiso   1.00
H1088  H     0.75000   0.08389   0.91642   0.00000  Uiso   1.00
H1089  H     0.72101   0.10550   0.96164   0.00000  Uiso   1.00
H1090  H     0.90312   0.15296   0.90571   0.00000  Uiso   1.00
H1091  H     0.77899   0.10550   0.96164   0.00000  Uiso   1.00
H1092  H     0.59689   0.15296   0.90571   0.00000  Uiso   1.00
H1093  H     0.90312   0.34704   0.76096   0.00000  Uiso   1.00
H1094  H     0.90312   0.34705   0.90571   0.00000  Uiso   1.00
H1095  H     0.59688   0.15296   0.76096   0.00000  Uiso   1.00
H1096  H     0.65312   0.40296   0.76096   0.00000  Uiso   1.00
N1097  N     0.50000   0.25000   0.95240   0.00000  Uiso   1.00
N1098  N     0.50000   0.25000   0.71427   0.00000  Uiso   1.00
N1099  N     0.75000  -0.00000   0.95240   0.00000  Uiso   1.00
N1100  N     0.75000  -0.00000   0.71427   0.00000  Uiso   1.00
O1101  O     0.54581   0.20419   0.87154   0.00000  Uiso   1.00
O1102  O     0.70420   0.04581   0.79513   0.00000  Uiso   1.00
O1103  O     0.70420   0.04581   0.87154   0.00000  Uiso   1.00
O1104  O     0.79581   0.45419   0.79513   0.00000  Uiso   1.00
O1105  O     0.70420   0.45419   0.79513   0.00000  Uiso   1.00
O1106  O     0.79581   0.04581   0.87154   0.00000  Uiso   1.00
O1107  O     0.79581   0.04581   0.79513   0.00000  Uiso   1.00
O1108  O     0.70420   0.45419   0.87154   0.00000  Uiso   1.00
O1109  O     0.95420   0.29581   0.79513   0.00000  Uiso   1.00
O1110  O     0.95420   0.29581   0.87154   0.00000  Uiso   1.00
O1111  O     0.54581   0.20419   0.79513   0.00000  Uiso   1.00
O1112  O     0.95420   0.20419   0.79513   0.00000  Uiso   1.00
O1113  O     0.54581   0.29581   0.87154   0.00000  Uiso   1.00
O1114  O     0.54581   0.29581   0.79513   0.00000  Uiso   1.00
O1115  O     0.95420   0.20419   0.87154   0.00000  Uiso   1.00
O1116  O     0.79581   0.45419   0.87154   0.00000  Uiso   1.00
Zn1117 Zn    0.50000   0.25000   0.88437   0.00000  Uiso   1.00
Zn1118 Zn    0.50000   0.25000   0.78229   0.00000  Uiso   1.00
Zn1119 Zn    0.75000   0.00000   0.88437   0.00000  Uiso   1.00
Zn1120 Zn    0.75000  -0.00000   0.78229   0.00000  Uiso   1.00
C1121  C     0.05981   0.68997   0.83333   0.00000  Uiso   1.00
C1122  C     0.00000   0.70973   0.97610   0.00000  Uiso   1.00
C1123  C     0.00000   0.70973   0.69056   0.00000  Uiso   1.00
C1124  C     0.00000   0.79027   0.97610   0.00000  Uiso   1.00
C1125  C     0.25000   0.54027   0.69056   0.00000  Uiso   1.00
C1126  C     0.25000   0.95973   0.97610   0.00000  Uiso   1.00
C1127  C     0.25000   0.95973   0.69056   0.00000  Uiso   1.00
C1128  C     0.25000   0.54027   0.97610   0.00000  Uiso   1.00
C1129  C     0.39102   0.64091   0.79268   0.00000  Uiso   1.00
C1130  C     0.10898   0.85909   0.87398   0.00000  Uiso   1.00
C1131  C     0.10898   0.85909   0.79268   0.00000  Uiso   1.00
C1132  C     0.44019   0.81003   0.83333   0.00000  Uiso   1.00
C1133  C     0.39102   0.64091   0.87398   0.00000  Uiso   1.00
C1134  C     0.10898   0.64091   0.87398   0.00000  Uiso   1.00
C1135  C     0.39102   0.85909   0.79268   0.00000  Uiso   1.00
C1136  C     0.39103   0.85909   0.87398   0.00000  Uiso   1.00
C1137  C     0.10898   0.64091   0.79268   0.00000  Uiso   1.00
C1138  C     0.14102   0.89091   0.79268   0.00000  Uiso   1.00
C1139  C     0.35898   0.60909   0.87398   0.00000  Uiso   1.00
C1140  C     0.35898   0.60909   0.79268   0.00000  Uiso   1.00
C1141  C     0.14102   0.89091   0.87398   0.00000  Uiso   1.00
C1142  C     0.35898   0.89091   0.87398   0.00000  Uiso   1.00
C1143  C     0.44019   0.68997   0.83333   0.00000  Uiso   1.00
C1144  C     0.14102   0.60909   0.79268   0.00000  Uiso   1.00
C1145  C     0.14103   0.60909   0.87398   0.00000  Uiso   1.00
C1146  C     0.35898   0.89091   0.79268   0.00000  Uiso   1.00
C1147  C     0.09300   0.84321   0.83333   0.00000  Uiso   1.00
C1148  C     0.40700   0.65679   0.83333   0.00000  Uiso   1.00
C1149  C     0.40700   0.84321   0.83333   0.00000  Uiso   1.00
C1150  C     0.09300   0.65679   0.83333   0.00000  Uiso   1.00
C1151  C     0.34300   0.59321   0.83333   0.00000  Uiso   1.00
C1152  C     0.15700   0.90679   0.83333   0.00000  Uiso   1.00
C1153  C     0.15700   0.59321   0.83333   0.00000  Uiso   1.00
C1154  C     0.05981   0.81003   0.83333   0.00000  Uiso   1.00
C1155  C     0.34300   0.90679   0.83333   0.00000  Uiso   1.00
C1156  C     0.00000   0.83584   0.71417   0.00000  Uiso   1.00
C1157  C     0.00000   0.66416   0.95250   0.00000  Uiso   1.00
C1158  C     0.00000   0.66416   0.71417   0.00000  Uiso   1.00
C1159  C     0.00000   0.83584   0.95250   0.00000  Uiso   1.00
C1160  C     0.25000   0.58584   0.71417   0.00000  Uiso   1.00
C1161  C     0.25000   0.91416   0.95250   0.00000  Uiso   1.00
C1162  C     0.25000   0.91416   0.71417   0.00000  Uiso   1.00
C1163  C     0.25000   0.58584   0.95250   0.00000  Uiso   1.00
C1164  C     0.30981   0.93997   0.83333   0.00000  Uiso   1.00
C1165  C     0.19019   0.56003   0.83333   0.00000  Uiso   1.00
C1166  C     0.19019   0.93997   0.83333   0.00000  Uiso   1.00
C1167  C     0.30981   0.56003   0.83333   0.00000  Uiso   1.00
C1168  C     0.00000   0.79027   0.69056   0.00000  Uiso   1.00
H1169  H     0.40312   0.65296   0.76096   0.00000  Uiso   1.00
H1170  H     0.34688   0.59704   0.90571   0.00000  Uiso   1.00
H1171  H     0.34688   0.59704   0.76096   0.00000  Uiso   1.00
H1172  H     0.15312   0.90296   0.90571   0.00000  Uiso   1.00
H1173  H     0.34689   0.90296   0.90571   0.00000  Uiso   1.00
H1174  H     0.15312   0.59704   0.76096   0.00000  Uiso   1.00
H1175  H     0.15312   0.59705   0.90571   0.00000  Uiso   1.00
H1176  H     0.34688   0.90296   0.76096   0.00000  Uiso   1.00
H1177  H     0.00000   0.83389   0.75024   0.00000  Uiso   1.00
H1178  H     0.02899   0.85550   0.70502   0.00000  Uiso   1.00
H1179  H     0.47101   0.85550   0.70502   0.00000  Uiso   1.00
H1180  H     0.09688   0.84704   0.90571   0.00000  Uiso   1.00
H1181  H     0.00000   0.66611   0.91642   0.00000  Uiso   1.00
H1182  H     0.02899   0.64450   0.96164   0.00000  Uiso   1.00
H1183  H     0.47101   0.64450   0.96164   0.00000  Uiso   1.00
H1184  H     0.00000   0.66611   0.75024   0.00000  Uiso   1.00
H1185  H     0.47101   0.64450   0.70502   0.00000  Uiso   1.00
H1186  H     0.02899   0.64450   0.70502   0.00000  Uiso   1.00
H1187  H     0.00000   0.83389   0.91642   0.00000  Uiso   1.00
H1188  H     0.47101   0.85550   0.96164   0.00000  Uiso   1.00
H1189  H     0.02899   0.85550   0.96164   0.00000  Uiso   1.00
H1190  H     0.25000   0.58389   0.75024   0.00000  Uiso   1.00
H1191  H     0.09688   0.84704   0.76096   0.00000  Uiso   1.00
H1192  H     0.27899   0.60550   0.70502   0.00000  Uiso   1.00
H1193  H     0.22101   0.60550   0.70502   0.00000  Uiso   1.00
H1194  H     0.25000   0.91611   0.91642   0.00000  Uiso   1.00
H1195  H     0.27899   0.89450   0.96164   0.00000  Uiso   1.00
H1196  H     0.22101   0.89450   0.96164   0.00000  Uiso   1.00
H1197  H     0.25000   0.91611   0.75024   0.00000  Uiso   1.00
H1198  H     0.22101   0.89450   0.70502   0.00000  Uiso   1.00
H1199  H     0.27899   0.89450   0.70502   0.00000  Uiso   1.00
H1200  H     0.25000   0.58389   0.91642   0.00000  Uiso   1.00
H1201  H     0.22101   0.60550   0.96164   0.00000  Uiso   1.00
H1202  H     0.40312   0.65296   0.90571   0.00000  Uiso   1.00
H1203  H     0.27899   0.60550   0.96164   0.00000  Uiso   1.00
H1204  H     0.09689   0.65296   0.90571   0.00000  Uiso   1.00
H1205  H     0.40312   0.84704   0.76096   0.00000  Uiso   1.00
H1206  H     0.40312   0.84705   0.90571   0.00000  Uiso   1.00
H1207  H     0.09688   0.65296   0.76096   0.00000  Uiso   1.00
H1208  H     0.15312   0.90296   0.76096   0.00000  Uiso   1.00
N1209  N     0.00000   0.75000   0.95240   0.00000  Uiso   1.00
N1210  N     0.00000   0.75000   0.71427   0.00000  Uiso   1.00
N1211  N     0.25000   0.50000   0.95240   0.00000  Uiso   1.00
N1212  N     0.25000   0.50000   0.71427   0.00000  Uiso   1.00
O1213  O     0.04581   0.70419   0.87154   0.00000  Uiso   1.00
O1214  O     0.20420   0.54581   0.79513   0.00000  Uiso   1.00
O1215  O     0.20420   0.54581   0.87154   0.00000  Uiso   1.00
O1216  O     0.29581   0.95419   0.79513   0.00000  Uiso   1.00
O1217  O     0.20420   0.95419   0.79513   0.00000  Uiso   1.00
O1218  O     0.29581   0.54581   0.87154   0.00000  Uiso   1.00
O1219  O     0.29581   0.54581   0.79513   0.00000  Uiso   1.00
O1220  O     0.20420   0.95419   0.87154   0.00000  Uiso   1.00
O1221  O     0.45420   0.79581   0.79513   0.00000  Uiso   1.00
O1222  O     0.45420   0.79581   0.87154   0.00000  Uiso   1.00
O1223  O     0.04581   0.70419   0.79513   0.00000  Uiso   1.00
O1224  O     0.45420   0.70419   0.79513   0.00000  Uiso   1.00
O1225  O     0.04581   0.79581   0.87154   0.00000  Uiso   1.00
O1226  O     0.04581   0.79581   0.79513   0.00000  Uiso   1.00
O1227  O     0.45420   0.70419   0.87154   0.00000  Uiso   1.00
O1228  O     0.29581   0.95419   0.87154   0.00000  Uiso   1.00
Zn1229 Zn    0.00000   0.75000   0.88437   0.00000  Uiso   1.00
Zn1230 Zn    0.00000   0.75000   0.78229   0.00000  Uiso   1.00
Zn1231 Zn    0.25000   0.50000   0.88437   0.00000  Uiso   1.00
Zn1232 Zn    0.25000   0.50000   0.78229   0.00000  Uiso   1.00
C1233  C     0.55981   0.68997   0.83333   0.00000  Uiso   1.00
C1234  C     0.50000   0.70973   0.97610   0.00000  Uiso   1.00
C1235  C     0.50000   0.70973   0.69056   0.00000  Uiso   1.00
C1236  C     0.50000   0.79027   0.97610   0.00000  Uiso   1.00
C1237  C     0.75000   0.54027   0.69056   0.00000  Uiso   1.00
C1238  C     0.75000   0.95973   0.97610   0.00000  Uiso   1.00
C1239  C     0.75000   0.95973   0.69056   0.00000  Uiso   1.00
C1240  C     0.75000   0.54027   0.97610   0.00000  Uiso   1.00
C1241  C     0.89102   0.64091   0.79268   0.00000  Uiso   1.00
C1242  C     0.60898   0.85909   0.87398   0.00000  Uiso   1.00
C1243  C     0.60898   0.85909   0.79268   0.00000  Uiso   1.00
C1244  C     0.94019   0.81003   0.83333   0.00000  Uiso   1.00
C1245  C     0.89102   0.64091   0.87398   0.00000  Uiso   1.00
C1246  C     0.60898   0.64091   0.87398   0.00000  Uiso   1.00
C1247  C     0.89102   0.85909   0.79268   0.00000  Uiso   1.00
C1248  C     0.89103   0.85909   0.87398   0.00000  Uiso   1.00
C1249  C     0.60898   0.64091   0.79268   0.00000  Uiso   1.00
C1250  C     0.64102   0.89091   0.79268   0.00000  Uiso   1.00
C1251  C     0.85898   0.60909   0.87398   0.00000  Uiso   1.00
C1252  C     0.85898   0.60909   0.79268   0.00000  Uiso   1.00
C1253  C     0.64102   0.89091   0.87398   0.00000  Uiso   1.00
C1254  C     0.85898   0.89091   0.87398   0.00000  Uiso   1.00
C1255  C     0.94019   0.68997   0.83333   0.00000  Uiso   1.00
C1256  C     0.64102   0.60909   0.79268   0.00000  Uiso   1.00
C1257  C     0.64103   0.60909   0.87398   0.00000  Uiso   1.00
C1258  C     0.85898   0.89091   0.79268   0.00000  Uiso   1.00
C1259  C     0.59300   0.84321   0.83333   0.00000  Uiso   1.00
C1260  C     0.90700   0.65679   0.83333   0.00000  Uiso   1.00
C1261  C     0.90700   0.84321   0.83333   0.00000  Uiso   1.00
C1262  C     0.59300   0.65679   0.83333   0.00000  Uiso   1.00
C1263  C     0.84300   0.59321   0.83333   0.00000  Uiso   1.00
C1264  C     0.65700   0.90679   0.83333   0.00000  Uiso   1.00
C1265  C     0.65700   0.59321   0.83333   0.00000  Uiso   1.00
C1266  C     0.55981   0.81003   0.83333   0.00000  Uiso   1.00
C1267  C     0.84300   0.90679   0.83333   0.00000  Uiso   1.00
C1268  C     0.50000   0.83584   0.71417   0.00000  Uiso   1.00
C1269  C     0.50000   0.66416   0.95250   0.00000  Uiso   1.00
C1270  C     0.50000   0.66416   0.71417   0.00000  Uiso   1.00
C1271  C     0.50000   0.83584   0.95250   0.00000  Uiso   1.00
C1272  C     0.75000   0.58584   0.71417   0.00000  Uiso   1.00
C1273  C     0.75000   0.91416   0.95250   0.00000  Uiso   1.00
C1274  C     0.75000   0.91416   0.71417   0.00000  Uiso   1.00
C1275  C     0.75000   0.58584   0.95250   0.00000  Uiso   1.00
C1276  C     0.80981   0.93997   0.83333   0.00000  Uiso   1.00
C1277  C     0.69019   0.56003   0.83333   0.00000  Uiso   1.00
C1278  C     0.69019   0.93997   0.83333   0.00000  Uiso   1.00
C1279  C     0.80981   0.56003   0.83333   0.00000  Uiso   1.00
C1280  C     0.50000   0.79027   0.69056   0.00000  Uiso   1.00
H1281  H     0.90312   0.65296   0.76096   0.00000  Uiso   1.00
H1282  H     0.84688   0.59704   0.90571   0.00000  Uiso   1.00
H1283  H     0.84688   0.59704   0.76096   0.00000  Uiso   1.00
H1284  H     0.65312   0.90296   0.90571   0.00000  Uiso   1.00
H1285  H     0.84689   0.90296   0.90571   0.00000  Uiso   1.00
H1286  H     0.65312   0.59704   0.76096   0.00000  Uiso   1.00
H1287  H     0.65312   0.59705   0.90571   0.00000  Uiso   1.00
H1288  H     0.84688   0.90296   0.76096   0.00000  Uiso   1.00
H1289  H     0.50000   0.83389   0.75024   0.00000  Uiso   1.00
H1290  H     0.52899   0.85550   0.70502   0.00000  Uiso   1.00
H1291  H     0.97101   0.85550   0.70502   0.00000  Uiso   1.00
H1292  H     0.59688   0.84704   0.90571   0.00000  Uiso   1.00
H1293  H     0.50000   0.66611   0.91642   0.00000  Uiso   1.00
H1294  H     0.52899   0.64450   0.96164   0.00000  Uiso   1.00
H1295  H     0.97101   0.64450   0.96164   0.00000  Uiso   1.00
H1296  H     0.50000   0.66611   0.75024   0.00000  Uiso   1.00
H1297  H     0.97101   0.64450   0.70502   0.00000  Uiso   1.00
H1298  H     0.52899   0.64450   0.70502   0.00000  Uiso   1.00
H1299  H     0.50000   0.83389   0.91642   0.00000  Uiso   1.00
H1300  H     0.97101   0.85550   0.96164   0.00000  Uiso   1.00
H1301  H     0.52899   0.85550   0.96164   0.00000  Uiso   1.00
H1302  H     0.75000   0.58389   0.75024   0.00000  Uiso   1.00
H1303  H     0.59688   0.84704   0.76096   0.00000  Uiso   1.00
H1304  H     0.77899   0.60550   0.70502   0.00000  Uiso   1.00
H1305  H     0.72101   0.60550   0.70502   0.00000  Uiso   1.00
H1306  H     0.75000   0.91611   0.91642   0.00000  Uiso   1.00
H1307  H     0.77899   0.89450   0.96164   0.00000  Uiso   1.00
H1308  H     0.72101   0.89450   0.96164   0.00000  Uiso   1.00
H1309  H     0.75000   0.91611   0.75024   0.00000  Uiso   1.00
H1310  H     0.72101   0.89450   0.70502   0.00000  Uiso   1.00
H1311  H     0.77899   0.89450   0.70502   0.00000  Uiso   1.00
H1312  H     0.75000   0.58389   0.91642   0.00000  Uiso   1.00
H1313  H     0.72101   0.60550   0.96164   0.00000  Uiso   1.00
H1314  H     0.90312   0.65296   0.90571   0.00000  Uiso   1.00
H1315  H     0.77899   0.60550   0.96164   0.00000  Uiso   1.00
H1316  H     0.59689   0.65296   0.90571   0.00000  Uiso   1.00
H1317  H     0.90312   0.84704   0.76096   0.00000  Uiso   1.00
H1318  H     0.90312   0.84705   0.90571   0.00000  Uiso   1.00
H1319  H     0.59688   0.65296   0.76096   0.00000  Uiso   1.00
H1320  H     0.65312   0.90296   0.76096   0.00000  Uiso   1.00
N1321  N     0.50000   0.75000   0.95240   0.00000  Uiso   1.00
N1322  N     0.50000   0.75000   0.71427   0.00000  Uiso   1.00
N1323  N     0.75000   0.50000   0.95240   0.00000  Uiso   1.00
N1324  N     0.75000   0.50000   0.71427   0.00000  Uiso   1.00
O1325  O     0.54581   0.70419   0.87154   0.00000  Uiso   1.00
O1326  O     0.70420   0.54581   0.79513   0.00000  Uiso   1.00
O1327  O     0.70420   0.54581   0.87154   0.00000  Uiso   1.00
O1328  O     0.79581   0.95419   0.79513   0.00000  Uiso   1.00
O1329  O     0.70420   0.95419   0.79513   0.00000  Uiso   1.00
O1330  O     0.79581   0.54581   0.87154   0.00000  Uiso   1.00
O1331  O     0.79581   0.54581   0.79513   0.00000  Uiso   1.00
O1332  O     0.70420   0.95419   0.87154   0.00000  Uiso   1.00
O1333  O     0.95420   0.79581   0.79513   0.00000  Uiso   1.00
O1334  O     0.95420   0.79581   0.87154   0.00000  Uiso   1.00
O1335  O     0.54581   0.70419   0.79513   0.00000  Uiso   1.00
O1336  O     0.95420   0.70419   0.79513   0.00000  Uiso   1.00
O1337  O     0.54581   0.79581   0.87154   0.00000  Uiso   1.00
O1338  O     0.54581   0.79581   0.79513   0.00000  Uiso   1.00
O1339  O     0.95420   0.70419   0.87154   0.00000  Uiso   1.00
O1340  O     0.79581   0.95419   0.87154   0.00000  Uiso   1.00
Zn1341 Zn    0.50000   0.75000   0.88437   0.00000  Uiso   1.00
Zn1342 Zn    0.50000   0.75000   0.78229   0.00000  Uiso   1.00
Zn1343 Zn    0.75000   0.50000   0.88437   0.00000  Uiso   1.00
Zn1344 Zn    0.75000   0.50000   0.78229   0.00000  Uiso   1.00
loop_
_geom_bond_atom_site_label_1
_geom_bond_atom_site_label_2
_geom_bond_distance
_geom_bond_site_symmetry_2
_ccdc_geom_bond_type
C1     O103    1.296   .     A
C1     C30     1.423   .     S
C1     O93     1.296   .     A
C2     C37     1.513   .     S
C2     C451    1.434   .     S
C2     N89     1.379   .     S
C3     N90     1.379   .     A
C3     C38     1.513   .     S
C3     C898    1.434   1_554 S
C4     C39     1.513   .     S
C4     C496    1.434   .     S
C4     N89     1.379   .     S
C5     C40     1.513   .     S
C5     C904    1.434   1_554 S
C5     N92     1.379   .     S
C6     N315    1.379   .     A
C6     C41     1.513   .     S
C6     C455    1.434   .     S
C7     C42     1.513   .     S
C7     N316    1.379   .     A
C7     C902    1.434   1_554 S
C8     C43     1.513   .     S
C8     C453    1.434   .     S
C8     N91     1.379   .     S
C9     H49     1.083   .     S
C9     C20     1.370   .     A
C9     C28     1.398   .     A
C10    C27     1.398   .     A
C10    C21     1.370   .     A
C10    H60     1.083   .     S
C11    C18     1.370   .     A
C11    H71     1.083   .     S
C11    C27     1.398   .     A
C12    C29     1.423   .     S
C12    O102    1.296   .     A
C12    O101    1.296   .     A
C13    C28     1.398   .     A
C13    C19     1.370   .     A
C13    H82     1.083   .     S
C14    H84     1.083   .     S
C14    C30     1.398   .     A
C14    C25     1.370   .     A
C15    H85     1.083   .     S
C15    C29     1.398   .     A
C15    C26     1.370   .     A
C16    H86     1.083   .     S
C16    C22     1.370   .     A
C16    C29     1.398   .     A
C17    C30     1.398   .     A
C17    C24     1.370   .     A
C17    H87     1.083   .     S
C18    H88     1.083   .     S
C18    C32     1.398   .     A
C19    H50     1.083   .     S
C19    C31     1.398   .     A
C20    H51     1.083   .     S
C20    C31     1.398   .     A
C21    C32     1.398   .     A
C21    H52     1.083   .     S
C22    C35     1.398   .     A
C22    H53     1.083   .     S
C23    O104    1.296   .     A
C23    O107    1.296   .     A
C23    C28     1.423   .     S
C24    H54     1.083   .     S
C24    C33     1.398   .     A
C25    H55     1.083   .     S
C25    C33     1.398   .     A
C26    H56     1.083   .     S
C26    C35     1.398   .     A
C27    C34     1.423   .     S
C31    C47     1.423   .     S
C32    C46     1.423   .     S
C33    C45     1.423   .     S
C34    O106    1.296   .     A
C34    O105    1.296   .     A
C35    C44     1.423   .     S
C36    H58     1.109   .     S
C36    H57     1.084   .     S
C36    C48     1.513   .     S
C36    H171    1.109   1_455 S
C37    H175    1.109   1_455 S
C37    H61     1.084   .     S
C37    H62     1.109   .     S
C38    H177    1.109   1_455 S
C38    H64     1.084   .     S
C38    H66     1.109   .     S
C39    H69     1.109   .     S
C39    H67     1.084   .     S
C39    H180    1.109   1_455 S
C40    H70     1.084   .     S
C40    H73     1.109   .     S
C40    H72     1.109   .     S
C41    H74     1.084   .     S
C41    H75     1.109   .     S
C41    H76     1.109   .     S
C42    H79     1.109   .     S
C42    H78     1.109   .     S
C42    H77     1.084   .     S
C43    H83     1.109   .     S
C43    H81     1.109   .     S
C43    H80     1.084   .     S
C44    O108    1.296   .     A
C44    O96     1.296   .     A
C45    O94     1.296   .     A
C45    O95     1.296   .     A
C46    O100    1.296   .     A
C46    O97     1.296   .     A
C47    O99     1.296   .     A
C47    O98     1.296   .     A
C48    C900    1.434   1_554 S
C48    N90     1.379   .     S
H59    C148    1.109   .     S
H63    C149    1.109   .     S
H65    C150    1.109   .     S
H68    C151    1.109   .     S
N89    Zn109   2.041   .     S
N90    Zn110   2.041   .     S
N91    C230    1.379   1_545 A
N91    Zn111   2.041   .     S
N92    Zn112   2.041   .     S
N92    C231    1.379   1_545 A
O93    Zn109   2.002   .     S
O94    Zn112   2.002   .     S
O95    Zn111   2.002   .     S
O96    Zn336   2.002   .     S
O97    Zn336   2.002   .     S
O98    Zn111   2.002   .     S
O99    Zn112   2.002   .     S
O100   Zn335   2.002   .     S
O101   Zn222   2.002   .     S
O102   Zn221   2.002   .     S
O103   Zn110   2.002   .     S
O104   Zn222   2.002   .     S
O105   Zn109   2.002   .     S
O106   Zn110   2.002   .     S
O107   Zn221   2.002   .     S
O108   Zn335   2.002   .     S
Zn109  O219    2.002   1_455 S
Zn109  O214    2.002   1_455 S
Zn110  O213    2.002   1_455 S
Zn110  O216    2.002   1_455 S
Zn111  O324    2.002   1_545 S
Zn111  O332    2.002   1_545 S
Zn112  O320    2.002   1_545 S
Zn112  O321    2.002   1_545 S
C113   O215    1.296   .     A
C113   C142    1.423   .     S
C113   O205    1.296   .     A
C114   C149    1.513   .     S
C114   C563    1.434   .     S
C114   N201    1.379   .     S
C115   N202    1.379   .     A
C115   C150    1.513   .     S
C115   C1010   1.434   1_554 S
C116   C151    1.513   .     S
C116   C608    1.434   .     S
C116   N201    1.379   .     S
C117   C152    1.513   .     S
C117   C1016   1.434   1_554 S
C117   N204    1.379   .     S
C118   N427    1.379   .     A
C118   C153    1.513   .     S
C118   C567    1.434   .     S
C119   C154    1.513   .     S
C119   N428    1.379   .     A
C119   C1014   1.434   1_554 S
C120   C155    1.513   .     S
C120   C565    1.434   .     S
C120   N203    1.379   .     S
C121   H161    1.083   .     S
C121   C132    1.370   .     A
C121   C140    1.398   .     A
C122   C139    1.398   .     A
C122   C133    1.370   .     A
C122   H172    1.083   .     S
C123   C130    1.370   .     A
C123   H183    1.083   .     S
C123   C139    1.398   .     A
C124   C141    1.423   .     S
C124   O214    1.296   .     A
C124   O213    1.296   .     A
C125   C140    1.398   .     A
C125   C131    1.370   .     A
C125   H194    1.083   .     S
C126   H196    1.083   .     S
C126   C142    1.398   .     A
C126   C137    1.370   .     A
C127   H197    1.083   .     S
C127   C141    1.398   .     A
C127   C138    1.370   .     A
C128   H198    1.083   .     S
C128   C134    1.370   .     A
C128   C141    1.398   .     A
C129   C142    1.398   .     A
C129   C136    1.370   .     A
C129   H199    1.083   .     S
C130   H200    1.083   .     S
C130   C144    1.398   .     A
C131   H162    1.083   .     S
C131   C143    1.398   .     A
C132   H163    1.083   .     S
C132   C143    1.398   .     A
C133   C144    1.398   .     A
C133   H164    1.083   .     S
C134   C147    1.398   .     A
C134   H165    1.083   .     S
C135   O216    1.296   .     A
C135   O219    1.296   .     A
C135   C140    1.423   .     S
C136   H166    1.083   .     S
C136   C145    1.398   .     A
C137   H167    1.083   .     S
C137   C145    1.398   .     A
C138   H168    1.083   .     S
C138   C147    1.398   .     A
C139   C146    1.423   .     S
C143   C159    1.423   .     S
C144   C158    1.423   .     S
C145   C157    1.423   .     S
C146   O218    1.296   .     A
C146   O217    1.296   .     A
C147   C156    1.423   .     S
C148   H170    1.109   .     S
C148   H169    1.084   .     S
C148   C160    1.513   .     S
C149   H173    1.084   .     S
C149   H174    1.109   .     S
C150   H176    1.084   .     S
C150   H178    1.109   .     S
C151   H181    1.109   .     S
C151   H179    1.084   .     S
C152   H182    1.084   .     S
C152   H185    1.109   .     S
C152   H184    1.109   .     S
C153   H186    1.084   .     S
C153   H187    1.109   .     S
C153   H188    1.109   .     S
C154   H191    1.109   .     S
C154   H190    1.109   .     S
C154   H189    1.084   .     S
C155   H195    1.109   .     S
C155   H193    1.109   .     S
C155   H192    1.084   .     S
C156   O220    1.296   .     A
C156   O208    1.296   .     A
C157   O206    1.296   .     A
C157   O207    1.296   .     A
C158   O212    1.296   .     A
C158   O209    1.296   .     A
C159   O211    1.296   .     A
C159   O210    1.296   .     A
C160   C1012   1.434   1_554 S
C160   N202    1.379   .     S
H171   C36     1.109   1_655 S
H175   C37     1.109   1_655 S
H177   C38     1.109   1_655 S
H180   C39     1.109   1_655 S
N201   Zn221   2.041   .     S
N202   Zn222   2.041   .     S
N203   C342    1.379   1_545 A
N203   Zn223   2.041   .     S
N204   Zn224   2.041   .     S
N204   C343    1.379   1_545 A
O205   Zn221   2.002   .     S
O206   Zn224   2.002   .     S
O207   Zn223   2.002   .     S
O208   Zn448   2.002   .     S
O209   Zn448   2.002   .     S
O210   Zn223   2.002   .     S
O211   Zn224   2.002   .     S
O212   Zn447   2.002   .     S
O213   Zn110   2.002   1_655 S
O214   Zn109   2.002   1_655 S
O215   Zn222   2.002   .     S
O216   Zn110   2.002   1_655 S
O217   Zn221   2.002   .     S
O218   Zn222   2.002   .     S
O219   Zn109   2.002   1_655 S
O220   Zn447   2.002   .     S
Zn223  O436    2.002   1_545 S
Zn223  O444    2.002   1_545 S
Zn224  O432    2.002   1_545 S
Zn224  O433    2.002   1_545 S
C225   O327    1.296   .     A
C225   C254    1.423   .     S
C225   O317    1.296   .     A
C226   C261    1.513   .     S
C226   C675    1.434   .     S
C226   N313    1.379   .     S
C227   N314    1.379   .     A
C227   C262    1.513   .     S
C227   C1122   1.434   1_554 S
C228   C263    1.513   .     S
C228   C720    1.434   .     S
C228   N313    1.379   .     S
C229   C264    1.513   .     S
C229   C1128   1.434   1_554 S
C229   N316    1.379   .     S
C230   N91     1.379   1_565 A
C230   C265    1.513   .     S
C230   C679    1.434   .     S
C231   C266    1.513   .     S
C231   N92     1.379   1_565 A
C231   C1126   1.434   1_554 S
C232   C267    1.513   .     S
C232   C677    1.434   .     S
C232   N315    1.379   .     S
C233   H273    1.083   .     S
C233   C244    1.370   .     A
C233   C252    1.398   .     A
C234   C251    1.398   .     A
C234   C245    1.370   .     A
C234   H284    1.083   .     S
C235   C242    1.370   .     A
C235   H295    1.083   .     S
C235   C251    1.398   .     A
C236   C253    1.423   .     S
C236   O326    1.296   .     A
C236   O325    1.296   .     A
C237   C252    1.398   .     A
C237   C243    1.370   .     A
C237   H306    1.083   .     S
C238   H308    1.083   .     S
C238   C254    1.398   .     A
C238   C249    1.370   .     A
C239   H309    1.083   .     S
C239   C253    1.398   .     A
C239   C250    1.370   .     A
C240   H310    1.083   .     S
C240   C246    1.370   .     A
C240   C253    1.398   .     A
C241   C254    1.398   .     A
C241   C248    1.370   .     A
C241   H311    1.083   .     S
C242   H312    1.083   .     S
C242   C256    1.398   .     A
C243   H274    1.083   .     S
C243   C255    1.398   .     A
C244   H275    1.083   .     S
C244   C255    1.398   .     A
C245   C256    1.398   .     A
C245   H276    1.083   .     S
C246   C259    1.398   .     A
C246   H277    1.083   .     S
C247   O328    1.296   .     A
C247   O331    1.296   .     A
C247   C252    1.423   .     S
C248   H278    1.083   .     S
C248   C257    1.398   .     A
C249   H279    1.083   .     S
C249   C257    1.398   .     A
C250   H280    1.083   .     S
C250   C259    1.398   .     A
C251   C258    1.423   .     S
C255   C271    1.423   .     S
C256   C270    1.423   .     S
C257   C269    1.423   .     S
C258   O330    1.296   .     A
C258   O329    1.296   .     A
C259   C268    1.423   .     S
C260   H282    1.109   .     S
C260   H281    1.084   .     S
C260   C272    1.513   .     S
C260   H395    1.109   1_455 S
C261   H399    1.109   1_455 S
C261   H285    1.084   .     S
C261   H286    1.109   .     S
C262   H401    1.109   1_455 S
C262   H288    1.084   .     S
C262   H290    1.109   .     S
C263   H293    1.109   .     S
C263   H291    1.084   .     S
C263   H404    1.109   1_455 S
C264   H294    1.084   .     S
C264   H297    1.109   .     S
C264   H296    1.109   .     S
C265   H298    1.084   .     S
C265   H299    1.109   .     S
C265   H300    1.109   .     S
C266   H303    1.109   .     S
C266   H302    1.109   .     S
C266   H301    1.084   .     S
C267   H307    1.109   .     S
C267   H305    1.109   .     S
C267   H304    1.084   .     S
C268   O332    1.296   .     A
C268   O320    1.296   .     A
C269   O318    1.296   .     A
C269   O319    1.296   .     A
C270   O324    1.296   .     A
C270   O321    1.296   .     A
C271   O323    1.296   .     A
C271   O322    1.296   .     A
C272   C1124   1.434   1_554 S
C272   N314    1.379   .     S
H283   C372    1.109   .     S
H287   C373    1.109   .     S
H289   C374    1.109   .     S
H292   C375    1.109   .     S
N313   Zn333   2.041   .     S
N314   Zn334   2.041   .     S
N315   Zn335   2.041   .     S
N316   Zn336   2.041   .     S
O317   Zn333   2.002   .     S
O318   Zn336   2.002   .     S
O319   Zn335   2.002   .     S
O320   Zn112   2.002   1_565 S
O321   Zn112   2.002   1_565 S
O322   Zn335   2.002   .     S
O323   Zn336   2.002   .     S
O324   Zn111   2.002   1_565 S
O325   Zn446   2.002   .     S
O326   Zn445   2.002   .     S
O327   Zn334   2.002   .     S
O328   Zn446   2.002   .     S
O329   Zn333   2.002   .     S
O330   Zn334   2.002   .     S
O331   Zn445   2.002   .     S
O332   Zn111   2.002   1_565 S
Zn333  O443    2.002   1_455 S
Zn333  O438    2.002   1_455 S
Zn334  O437    2.002   1_455 S
Zn334  O440    2.002   1_455 S
C337   O439    1.296   .     A
C337   C366    1.423   .     S
C337   O429    1.296   .     A
C338   C373    1.513   .     S
C338   C787    1.434   .     S
C338   N425    1.379   .     S
C339   N426    1.379   .     A
C339   C374    1.513   .     S
C339   C1234   1.434   1_554 S
C340   C375    1.513   .     S
C340   C832    1.434   .     S
C340   N425    1.379   .     S
C341   C376    1.513   .     S
C341   C1240   1.434   1_554 S
C341   N428    1.379   .     S
C342   N203    1.379   1_565 A
C342   C377    1.513   .     S
C342   C791    1.434   .     S
C343   C378    1.513   .     S
C343   N204    1.379   1_565 A
C343   C1238   1.434   1_554 S
C344   C379    1.513   .     S
C344   C789    1.434   .     S
C344   N427    1.379   .     S
C345   H385    1.083   .     S
C345   C356    1.370   .     A
C345   C364    1.398   .     A
C346   C363    1.398   .     A
C346   C357    1.370   .     A
C346   H396    1.083   .     S
C347   C354    1.370   .     A
C347   H407    1.083   .     S
C347   C363    1.398   .     A
C348   C365    1.423   .     S
C348   O438    1.296   .     A
C348   O437    1.296   .     A
C349   C364    1.398   .     A
C349   C355    1.370   .     A
C349   H418    1.083   .     S
C350   H420    1.083   .     S
C350   C366    1.398   .     A
C350   C361    1.370   .     A
C351   H421    1.083   .     S
C351   C365    1.398   .     A
C351   C362    1.370   .     A
C352   H422    1.083   .     S
C352   C358    1.370   .     A
C352   C365    1.398   .     A
C353   C366    1.398   .     A
C353   C360    1.370   .     A
C353   H423    1.083   .     S
C354   H424    1.083   .     S
C354   C368    1.398   .     A
C355   H386    1.083   .     S
C355   C367    1.398   .     A
C356   H387    1.083   .     S
C356   C367    1.398   .     A
C357   C368    1.398   .     A
C357   H388    1.083   .     S
C358   C371    1.398   .     A
C358   H389    1.083   .     S
C359   O440    1.296   .     A
C359   O443    1.296   .     A
C359   C364    1.423   .     S
C360   H390    1.083   .     S
C360   C369    1.398   .     A
C361   H391    1.083   .     S
C361   C369    1.398   .     A
C362   H392    1.083   .     S
C362   C371    1.398   .     A
C363   C370    1.423   .     S
C367   C383    1.423   .     S
C368   C382    1.423   .     S
C369   C381    1.423   .     S
C370   O442    1.296   .     A
C370   O441    1.296   .     A
C371   C380    1.423   .     S
C372   H394    1.109   .     S
C372   H393    1.084   .     S
C372   C384    1.513   .     S
C373   H397    1.084   .     S
C373   H398    1.109   .     S
C374   H400    1.084   .     S
C374   H402    1.109   .     S
C375   H405    1.109   .     S
C375   H403    1.084   .     S
C376   H406    1.084   .     S
C376   H409    1.109   .     S
C376   H408    1.109   .     S
C377   H410    1.084   .     S
C377   H411    1.109   .     S
C377   H412    1.109   .     S
C378   H415    1.109   .     S
C378   H414    1.109   .     S
C378   H413    1.084   .     S
C379   H419    1.109   .     S
C379   H417    1.109   .     S
C379   H416    1.084   .     S
C380   O444    1.296   .     A
C380   O432    1.296   .     A
C381   O430    1.296   .     A
C381   O431    1.296   .     A
C382   O436    1.296   .     A
C382   O433    1.296   .     A
C383   O435    1.296   .     A
C383   O434    1.296   .     A
C384   C1236   1.434   1_554 S
C384   N426    1.379   .     S
H395   C260    1.109   1_655 S
H399   C261    1.109   1_655 S
H401   C262    1.109   1_655 S
H404   C263    1.109   1_655 S
N425   Zn445   2.041   .     S
N426   Zn446   2.041   .     S
N427   Zn447   2.041   .     S
N428   Zn448   2.041   .     S
O429   Zn445   2.002   .     S
O430   Zn448   2.002   .     S
O431   Zn447   2.002   .     S
O432   Zn224   2.002   1_565 S
O433   Zn224   2.002   1_565 S
O434   Zn447   2.002   .     S
O435   Zn448   2.002   .     S
O436   Zn223   2.002   1_565 S
O437   Zn334   2.002   1_655 S
O438   Zn333   2.002   1_655 S
O439   Zn446   2.002   .     S
O440   Zn334   2.002   1_655 S
O441   Zn445   2.002   .     S
O442   Zn446   2.002   .     S
O443   Zn333   2.002   1_655 S
O444   Zn223   2.002   1_565 S
C449   O551    1.296   .     A
C449   C478    1.423   .     S
C449   O541    1.296   .     A
C450   C485    1.513   .     S
C450   C899    1.434   .     S
C450   N537    1.379   .     S
C451   N538    1.379   .     A
C451   C486    1.513   .     S
C452   C487    1.513   .     S
C452   C944    1.434   .     S
C452   N537    1.379   .     S
C453   C488    1.513   .     S
C453   N540    1.379   .     S
C454   N763    1.379   .     A
C454   C489    1.513   .     S
C454   C903    1.434   .     S
C455   C490    1.513   .     S
C455   N764    1.379   .     A
C456   C491    1.513   .     S
C456   C901    1.434   .     S
C456   N539    1.379   .     S
C457   H497    1.083   .     S
C457   C468    1.370   .     A
C457   C476    1.398   .     A
C458   C475    1.398   .     A
C458   C469    1.370   .     A
C458   H508    1.083   .     S
C459   C466    1.370   .     A
C459   H519    1.083   .     S
C459   C475    1.398   .     A
C460   C477    1.423   .     S
C460   O550    1.296   .     A
C460   O549    1.296   .     A
C461   C476    1.398   .     A
C461   C467    1.370   .     A
C461   H530    1.083   .     S
C462   H532    1.083   .     S
C462   C478    1.398   .     A
C462   C473    1.370   .     A
C463   H533    1.083   .     S
C463   C477    1.398   .     A
C463   C474    1.370   .     A
C464   H534    1.083   .     S
C464   C470    1.370   .     A
C464   C477    1.398   .     A
C465   C478    1.398   .     A
C465   C472    1.370   .     A
C465   H535    1.083   .     S
C466   H536    1.083   .     S
C466   C480    1.398   .     A
C467   H498    1.083   .     S
C467   C479    1.398   .     A
C468   H499    1.083   .     S
C468   C479    1.398   .     A
C469   C480    1.398   .     A
C469   H500    1.083   .     S
C470   C483    1.398   .     A
C470   H501    1.083   .     S
C471   O552    1.296   .     A
C471   O555    1.296   .     A
C471   C476    1.423   .     S
C472   H502    1.083   .     S
C472   C481    1.398   .     A
C473   H503    1.083   .     S
C473   C481    1.398   .     A
C474   H504    1.083   .     S
C474   C483    1.398   .     A
C475   C482    1.423   .     S
C479   C495    1.423   .     S
C480   C494    1.423   .     S
C481   C493    1.423   .     S
C482   O554    1.296   .     A
C482   O553    1.296   .     A
C483   C492    1.423   .     S
C484   H506    1.109   .     S
C484   H505    1.084   .     S
C484   C496    1.513   .     S
C484   H619    1.109   1_455 S
C485   H623    1.109   1_455 S
C485   H509    1.084   .     S
C485   H510    1.109   .     S
C486   H625    1.109   1_455 S
C486   H512    1.084   .     S
C486   H514    1.109   .     S
C487   H517    1.109   .     S
C487   H515    1.084   .     S
C487   H628    1.109   1_455 S
C488   H518    1.084   .     S
C488   H521    1.109   .     S
C488   H520    1.109   .     S
C489   H522    1.084   .     S
C489   H523    1.109   .     S
C489   H524    1.109   .     S
C490   H527    1.109   .     S
C490   H526    1.109   .     S
C490   H525    1.084   .     S
C491   H531    1.109   .     S
C491   H529    1.109   .     S
C491   H528    1.084   .     S
C492   O556    1.296   .     A
C492   O544    1.296   .     A
C493   O542    1.296   .     A
C493   O543    1.296   .     A
C494   O548    1.296   .     A
C494   O545    1.296   .     A
C495   O547    1.296   .     A
C495   O546    1.296   .     A
C496   N538    1.379   .     S
H507   C596    1.109   .     S
H511   C597    1.109   .     S
H513   C598    1.109   .     S
H516   C599    1.109   .     S
N537   Zn557   2.041   .     S
N538   Zn558   2.041   .     S
N539   C678    1.379   1_545 A
N539   Zn559   2.041   .     S
N540   Zn560   2.041   .     S
N540   C679    1.379   1_545 A
O541   Zn557   2.002   .     S
O542   Zn560   2.002   .     S
O543   Zn559   2.002   .     S
O544   Zn784   2.002   .     S
O545   Zn784   2.002   .     S
O546   Zn559   2.002   .     S
O547   Zn560   2.002   .     S
O548   Zn783   2.002   .     S
O549   Zn670   2.002   .     S
O550   Zn669   2.002   .     S
O551   Zn558   2.002   .     S
O552   Zn670   2.002   .     S
O553   Zn557   2.002   .     S
O554   Zn558   2.002   .     S
O555   Zn669   2.002   .     S
O556   Zn783   2.002   .     S
Zn557  O667    2.002   1_455 S
Zn557  O662    2.002   1_455 S
Zn558  O661    2.002   1_455 S
Zn558  O664    2.002   1_455 S
Zn559  O772    2.002   1_545 S
Zn559  O780    2.002   1_545 S
Zn560  O768    2.002   1_545 S
Zn560  O769    2.002   1_545 S
C561   O663    1.296   .     A
C561   C590    1.423   .     S
C561   O653    1.296   .     A
C562   C597    1.513   .     S
C562   C1011   1.434   .     S
C562   N649    1.379   .     S
C563   N650    1.379   .     A
C563   C598    1.513   .     S
C564   C599    1.513   .     S
C564   C1056   1.434   .     S
C564   N649    1.379   .     S
C565   C600    1.513   .     S
C565   N652    1.379   .     S
C566   N875    1.379   .     A
C566   C601    1.513   .     S
C566   C1015   1.434   .     S
C567   C602    1.513   .     S
C567   N876    1.379   .     A
C568   C603    1.513   .     S
C568   C1013   1.434   .     S
C568   N651    1.379   .     S
C569   H609    1.083   .     S
C569   C580    1.370   .     A
C569   C588    1.398   .     A
C570   C587    1.398   .     A
C570   C581    1.370   .     A
C570   H620    1.083   .     S
C571   C578    1.370   .     A
C571   H631    1.083   .     S
C571   C587    1.398   .     A
C572   C589    1.423   .     S
C572   O662    1.296   .     A
C572   O661    1.296   .     A
C573   C588    1.398   .     A
C573   C579    1.370   .     A
C573   H642    1.083   .     S
C574   H644    1.083   .     S
C574   C590    1.398   .     A
C574   C585    1.370   .     A
C575   H645    1.083   .     S
C575   C589    1.398   .     A
C575   C586    1.370   .     A
C576   H646    1.083   .     S
C576   C582    1.370   .     A
C576   C589    1.398   .     A
C577   C590    1.398   .     A
C577   C584    1.370   .     A
C577   H647    1.083   .     S
C578   H648    1.083   .     S
C578   C592    1.398   .     A
C579   H610    1.083   .     S
C579   C591    1.398   .     A
C580   H611    1.083   .     S
C580   C591    1.398   .     A
C581   C592    1.398   .     A
C581   H612    1.083   .     S
C582   C595    1.398   .     A
C582   H613    1.083   .     S
C583   O664    1.296   .     A
C583   O667    1.296   .     A
C583   C588    1.423   .     S
C584   H614    1.083   .     S
C584   C593    1.398   .     A
C585   H615    1.083   .     S
C585   C593    1.398   .     A
C586   H616    1.083   .     S
C586   C595    1.398   .     A
C587   C594    1.423   .     S
C591   C607    1.423   .     S
C592   C606    1.423   .     S
C593   C605    1.423   .     S
C594   O666    1.296   .     A
C594   O665    1.296   .     A
C595   C604    1.423   .     S
C596   H618    1.109   .     S
C596   H617    1.084   .     S
C596   C608    1.513   .     S
C597   H621    1.084   .     S
C597   H622    1.109   .     S
C598   H624    1.084   .     S
C598   H626    1.109   .     S
C599   H629    1.109   .     S
C599   H627    1.084   .     S
C600   H630    1.084   .     S
C600   H633    1.109   .     S
C600   H632    1.109   .     S
C601   H634    1.084   .     S
C601   H635    1.109   .     S
C601   H636    1.109   .     S
C602   H639    1.109   .     S
C602   H638    1.109   .     S
C602   H637    1.084   .     S
C603   H643    1.109   .     S
C603   H641    1.109   .     S
C603   H640    1.084   .     S
C604   O668    1.296   .     A
C604   O656    1.296   .     A
C605   O654    1.296   .     A
C605   O655    1.296   .     A
C606   O660    1.296   .     A
C606   O657    1.296   .     A
C607   O659    1.296   .     A
C607   O658    1.296   .     A
C608   N650    1.379   .     S
H619   C484    1.109   1_655 S
H623   C485    1.109   1_655 S
H625   C486    1.109   1_655 S
H628   C487    1.109   1_655 S
N649   Zn669   2.041   .     S
N650   Zn670   2.041   .     S
N651   C790    1.379   1_545 A
N651   Zn671   2.041   .     S
N652   Zn672   2.041   .     S
N652   C791    1.379   1_545 A
O653   Zn669   2.002   .     S
O654   Zn672   2.002   .     S
O655   Zn671   2.002   .     S
O656   Zn896   2.002   .     S
O657   Zn896   2.002   .     S
O658   Zn671   2.002   .     S
O659   Zn672   2.002   .     S
O660   Zn895   2.002   .     S
O661   Zn558   2.002   1_655 S
O662   Zn557   2.002   1_655 S
O663   Zn670   2.002   .     S
O664   Zn558   2.002   1_655 S
O665   Zn669   2.002   .     S
O666   Zn670   2.002   .     S
O667   Zn557   2.002   1_655 S
O668   Zn895   2.002   .     S
Zn671  O884    2.002   1_545 S
Zn671  O892    2.002   1_545 S
Zn672  O880    2.002   1_545 S
Zn672  O881    2.002   1_545 S
C673   O775    1.296   .     A
C673   C702    1.423   .     S
C673   O765    1.296   .     A
C674   C709    1.513   .     S
C674   C1123   1.434   .     S
C674   N761    1.379   .     S
C675   N762    1.379   .     A
C675   C710    1.513   .     S
C676   C711    1.513   .     S
C676   C1168   1.434   .     S
C676   N761    1.379   .     S
C677   C712    1.513   .     S
C677   N764    1.379   .     S
C678   N539    1.379   1_565 A
C678   C713    1.513   .     S
C678   C1127   1.434   .     S
C679   C714    1.513   .     S
C679   N540    1.379   1_565 A
C680   C715    1.513   .     S
C680   C1125   1.434   .     S
C680   N763    1.379   .     S
C681   H721    1.083   .     S
C681   C692    1.370   .     A
C681   C700    1.398   .     A
C682   C699    1.398   .     A
C682   C693    1.370   .     A
C682   H732    1.083   .     S
C683   C690    1.370   .     A
C683   H743    1.083   .     S
C683   C699    1.398   .     A
C684   C701    1.423   .     S
C684   O774    1.296   .     A
C684   O773    1.296   .     A
C685   C700    1.398   .     A
C685   C691    1.370   .     A
C685   H754    1.083   .     S
C686   H756    1.083   .     S
C686   C702    1.398   .     A
C686   C697    1.370   .     A
C687   H757    1.083   .     S
C687   C701    1.398   .     A
C687   C698    1.370   .     A
C688   H758    1.083   .     S
C688   C694    1.370   .     A
C688   C701    1.398   .     A
C689   C702    1.398   .     A
C689   C696    1.370   .     A
C689   H759    1.083   .     S
C690   H760    1.083   .     S
C690   C704    1.398   .     A
C691   H722    1.083   .     S
C691   C703    1.398   .     A
C692   H723    1.083   .     S
C692   C703    1.398   .     A
C693   C704    1.398   .     A
C693   H724    1.083   .     S
C694   C707    1.398   .     A
C694   H725    1.083   .     S
C695   O776    1.296   .     A
C695   O779    1.296   .     A
C695   C700    1.423   .     S
C696   H726    1.083   .     S
C696   C705    1.398   .     A
C697   H727    1.083   .     S
C697   C705    1.398   .     A
C698   H728    1.083   .     S
C698   C707    1.398   .     A
C699   C706    1.423   .     S
C703   C719    1.423   .     S
C704   C718    1.423   .     S
C705   C717    1.423   .     S
C706   O778    1.296   .     A
C706   O777    1.296   .     A
C707   C716    1.423   .     S
C708   H730    1.109   .     S
C708   H729    1.084   .     S
C708   C720    1.513   .     S
C708   H843    1.109   1_455 S
C709   H847    1.109   1_455 S
C709   H733    1.084   .     S
C709   H734    1.109   .     S
C710   H849    1.109   1_455 S
C710   H736    1.084   .     S
C710   H738    1.109   .     S
C711   H741    1.109   .     S
C711   H739    1.084   .     S
C711   H852    1.109   1_455 S
C712   H742    1.084   .     S
C712   H745    1.109   .     S
C712   H744    1.109   .     S
C713   H746    1.084   .     S
C713   H747    1.109   .     S
C713   H748    1.109   .     S
C714   H751    1.109   .     S
C714   H750    1.109   .     S
C714   H749    1.084   .     S
C715   H755    1.109   .     S
C715   H753    1.109   .     S
C715   H752    1.084   .     S
C716   O780    1.296   .     A
C716   O768    1.296   .     A
C717   O766    1.296   .     A
C717   O767    1.296   .     A
C718   O772    1.296   .     A
C718   O769    1.296   .     A
C719   O771    1.296   .     A
C719   O770    1.296   .     A
C720   N762    1.379   .     S
H731   C820    1.109   .     S
H735   C821    1.109   .     S
H737   C822    1.109   .     S
H740   C823    1.109   .     S
N761   Zn781   2.041   .     S
N762   Zn782   2.041   .     S
N763   Zn783   2.041   .     S
N764   Zn784   2.041   .     S
O765   Zn781   2.002   .     S
O766   Zn784   2.002   .     S
O767   Zn783   2.002   .     S
O768   Zn560   2.002   1_565 S
O769   Zn560   2.002   1_565 S
O770   Zn783   2.002   .     S
O771   Zn784   2.002   .     S
O772   Zn559   2.002   1_565 S
O773   Zn894   2.002   .     S
O774   Zn893   2.002   .     S
O775   Zn782   2.002   .     S
O776   Zn894   2.002   .     S
O777   Zn781   2.002   .     S
O778   Zn782   2.002   .     S
O779   Zn893   2.002   .     S
O780   Zn559   2.002   1_565 S
Zn781  O891    2.002   1_455 S
Zn781  O886    2.002   1_455 S
Zn782  O885    2.002   1_455 S
Zn782  O888    2.002   1_455 S
C785   O887    1.296   .     A
C785   C814    1.423   .     S
C785   O877    1.296   .     A
C786   C821    1.513   .     S
C786   C1235   1.434   .     S
C786   N873    1.379   .     S
C787   N874    1.379   .     A
C787   C822    1.513   .     S
C788   C823    1.513   .     S
C788   C1280   1.434   .     S
C788   N873    1.379   .     S
C789   C824    1.513   .     S
C789   N876    1.379   .     S
C790   N651    1.379   1_565 A
C790   C825    1.513   .     S
C790   C1239   1.434   .     S
C791   C826    1.513   .     S
C791   N652    1.379   1_565 A
C792   C827    1.513   .     S
C792   C1237   1.434   .     S
C792   N875    1.379   .     S
C793   H833    1.083   .     S
C793   C804    1.370   .     A
C793   C812    1.398   .     A
C794   C811    1.398   .     A
C794   C805    1.370   .     A
C794   H844    1.083   .     S
C795   C802    1.370   .     A
C795   H855    1.083   .     S
C795   C811    1.398   .     A
C796   C813    1.423   .     S
C796   O886    1.296   .     A
C796   O885    1.296   .     A
C797   C812    1.398   .     A
C797   C803    1.370   .     A
C797   H866    1.083   .     S
C798   H868    1.083   .     S
C798   C814    1.398   .     A
C798   C809    1.370   .     A
C799   H869    1.083   .     S
C799   C813    1.398   .     A
C799   C810    1.370   .     A
C800   H870    1.083   .     S
C800   C806    1.370   .     A
C800   C813    1.398   .     A
C801   C814    1.398   .     A
C801   C808    1.370   .     A
C801   H871    1.083   .     S
C802   H872    1.083   .     S
C802   C816    1.398   .     A
C803   H834    1.083   .     S
C803   C815    1.398   .     A
C804   H835    1.083   .     S
C804   C815    1.398   .     A
C805   C816    1.398   .     A
C805   H836    1.083   .     S
C806   C819    1.398   .     A
C806   H837    1.083   .     S
C807   O888    1.296   .     A
C807   O891    1.296   .     A
C807   C812    1.423   .     S
C808   H838    1.083   .     S
C808   C817    1.398   .     A
C809   H839    1.083   .     S
C809   C817    1.398   .     A
C810   H840    1.083   .     S
C810   C819    1.398   .     A
C811   C818    1.423   .     S
C815   C831    1.423   .     S
C816   C830    1.423   .     S
C817   C829    1.423   .     S
C818   O890    1.296   .     A
C818   O889    1.296   .     A
C819   C828    1.423   .     S
C820   H842    1.109   .     S
C820   H841    1.084   .     S
C820   C832    1.513   .     S
C821   H845    1.084   .     S
C821   H846    1.109   .     S
C822   H848    1.084   .     S
C822   H850    1.109   .     S
C823   H853    1.109   .     S
C823   H851    1.084   .     S
C824   H854    1.084   .     S
C824   H857    1.109   .     S
C824   H856    1.109   .     S
C825   H858    1.084   .     S
C825   H859    1.109   .     S
C825   H860    1.109   .     S
C826   H863    1.109   .     S
C826   H862    1.109   .     S
C826   H861    1.084   .     S
C827   H867    1.109   .     S
C827   H865    1.109   .     S
C827   H864    1.084   .     S
C828   O892    1.296   .     A
C828   O880    1.296   .     A
C829   O878    1.296   .     A
C829   O879    1.296   .     A
C830   O884    1.296   .     A
C830   O881    1.296   .     A
C831   O883    1.296   .     A
C831   O882    1.296   .     A
C832   N874    1.379   .     S
H843   C708    1.109   1_655 S
H847   C709    1.109   1_655 S
H849   C710    1.109   1_655 S
H852   C711    1.109   1_655 S
N873   Zn893   2.041   .     S
N874   Zn894   2.041   .     S
N875   Zn895   2.041   .     S
N876   Zn896   2.041   .     S
O877   Zn893   2.002   .     S
O878   Zn896   2.002   .     S
O879   Zn895   2.002   .     S
O880   Zn672   2.002   1_565 S
O881   Zn672   2.002   1_565 S
O882   Zn895   2.002   .     S
O883   Zn896   2.002   .     S
O884   Zn671   2.002   1_565 S
O885   Zn782   2.002   1_655 S
O886   Zn781   2.002   1_655 S
O887   Zn894   2.002   .     S
O888   Zn782   2.002   1_655 S
O889   Zn893   2.002   .     S
O890   Zn894   2.002   .     S
O891   Zn781   2.002   1_655 S
O892   Zn671   2.002   1_565 S
C897   O999    1.296   .     A
C897   C926    1.423   .     S
C897   O989    1.296   .     A
C898   C933    1.513   .     S
C898   C3      1.434   1_556 S
C898   N985    1.379   .     S
C899   N986    1.379   .     A
C899   C934    1.513   .     S
C900   C935    1.513   .     S
C900   C48     1.434   1_556 S
C900   N985    1.379   .     S
C901   C936    1.513   .     S
C901   N988    1.379   .     S
C902   N1211   1.379   .     A
C902   C937    1.513   .     S
C902   C7      1.434   1_556 S
C903   C938    1.513   .     S
C903   N1212   1.379   .     A
C904   C939    1.513   .     S
C904   C5      1.434   1_556 S
C904   N987    1.379   .     S
C905   H945    1.083   .     S
C905   C916    1.370   .     A
C905   C924    1.398   .     A
C906   C923    1.398   .     A
C906   C917    1.370   .     A
C906   H956    1.083   .     S
C907   C914    1.370   .     A
C907   H967    1.083   .     S
C907   C923    1.398   .     A
C908   C925    1.423   .     S
C908   O998    1.296   .     A
C908   O997    1.296   .     A
C909   C924    1.398   .     A
C909   C915    1.370   .     A
C909   H978    1.083   .     S
C910   H980    1.083   .     S
C910   C926    1.398   .     A
C910   C921    1.370   .     A
C911   H981    1.083   .     S
C911   C925    1.398   .     A
C911   C922    1.370   .     A
C912   H982    1.083   .     S
C912   C918    1.370   .     A
C912   C925    1.398   .     A
C913   C926    1.398   .     A
C913   C920    1.370   .     A
C913   H983    1.083   .     S
C914   H984    1.083   .     S
C914   C928    1.398   .     A
C915   H946    1.083   .     S
C915   C927    1.398   .     A
C916   H947    1.083   .     S
C916   C927    1.398   .     A
C917   C928    1.398   .     A
C917   H948    1.083   .     S
C918   C931    1.398   .     A
C918   H949    1.083   .     S
C919   O1000   1.296   .     A
C919   O1003   1.296   .     A
C919   C924    1.423   .     S
C920   H950    1.083   .     S
C920   C929    1.398   .     A
C921   H951    1.083   .     S
C921   C929    1.398   .     A
C922   H952    1.083   .     S
C922   C931    1.398   .     A
C923   C930    1.423   .     S
C927   C943    1.423   .     S
C928   C942    1.423   .     S
C929   C941    1.423   .     S
C930   O1002   1.296   .     A
C930   O1001   1.296   .     A
C931   C940    1.423   .     S
C932   H954    1.109   .     S
C932   H953    1.084   .     S
C932   C944    1.513   .     S
C932   H1067   1.109   1_455 S
C933   H1071   1.109   1_455 S
C933   H957    1.084   .     S
C933   H958    1.109   .     S
C934   H1073   1.109   1_455 S
C934   H960    1.084   .     S
C934   H962    1.109   .     S
C935   H965    1.109   .     S
C935   H963    1.084   .     S
C935   H1076   1.109   1_455 S
C936   H966    1.084   .     S
C936   H969    1.109   .     S
C936   H968    1.109   .     S
C937   H970    1.084   .     S
C937   H971    1.109   .     S
C937   H972    1.109   .     S
C938   H975    1.109   .     S
C938   H974    1.109   .     S
C938   H973    1.084   .     S
C939   H979    1.109   .     S
C939   H977    1.109   .     S
C939   H976    1.084   .     S
C940   O1004   1.296   .     A
C940   O992    1.296   .     A
C941   O990    1.296   .     A
C941   O991    1.296   .     A
C942   O996    1.296   .     A
C942   O993    1.296   .     A
C943   O995    1.296   .     A
C943   O994    1.296   .     A
C944   N986    1.379   .     S
H955   C1044   1.109   .     S
H959   C1045   1.109   .     S
H961   C1046   1.109   .     S
H964   C1047   1.109   .     S
N985   Zn1005  2.041   .     S
N986   Zn1006  2.041   .     S
N987   C1126   1.379   1_545 A
N987   Zn1007  2.041   .     S
N988   Zn1008  2.041   .     S
N988   C1127   1.379   1_545 A
O989   Zn1005  2.002   .     S
O990   Zn1008  2.002   .     S
O991   Zn1007  2.002   .     S
O992   Zn1232  2.002   .     S
O993   Zn1232  2.002   .     S
O994   Zn1007  2.002   .     S
O995   Zn1008  2.002   .     S
O996   Zn1231  2.002   .     S
O997   Zn1118  2.002   .     S
O998   Zn1117  2.002   .     S
O999   Zn1006  2.002   .     S
O1000  Zn1118  2.002   .     S
O1001  Zn1005  2.002   .     S
O1002  Zn1006  2.002   .     S
O1003  Zn1117  2.002   .     S
O1004  Zn1231  2.002   .     S
Zn1005 O1115   2.002   1_455 S
Zn1005 O1110   2.002   1_455 S
Zn1006 O1109   2.002   1_455 S
Zn1006 O1112   2.002   1_455 S
Zn1007 O1220   2.002   1_545 S
Zn1007 O1228   2.002   1_545 S
Zn1008 O1216   2.002   1_545 S
Zn1008 O1217   2.002   1_545 S
C1009  O1111   1.296   .     A
C1009  C1038   1.423   .     S
C1009  O1101   1.296   .     A
C1010  C1045   1.513   .     S
C1010  C115    1.434   1_556 S
C1010  N1097   1.379   .     S
C1011  N1098   1.379   .     A
C1011  C1046   1.513   .     S
C1012  C1047   1.513   .     S
C1012  C160    1.434   1_556 S
C1012  N1097   1.379   .     S
C1013  C1048   1.513   .     S
C1013  N1100   1.379   .     S
C1014  N1323   1.379   .     A
C1014  C1049   1.513   .     S
C1014  C119    1.434   1_556 S
C1015  C1050   1.513   .     S
C1015  N1324   1.379   .     A
C1016  C1051   1.513   .     S
C1016  C117    1.434   1_556 S
C1016  N1099   1.379   .     S
C1017  H1057   1.083   .     S
C1017  C1028   1.370   .     A
C1017  C1036   1.398   .     A
C1018  C1035   1.398   .     A
C1018  C1029   1.370   .     A
C1018  H1068   1.083   .     S
C1019  C1026   1.370   .     A
C1019  H1079   1.083   .     S
C1019  C1035   1.398   .     A
C1020  C1037   1.423   .     S
C1020  O1110   1.296   .     A
C1020  O1109   1.296   .     A
C1021  C1036   1.398   .     A
C1021  C1027   1.370   .     A
C1021  H1090   1.083   .     S
C1022  H1092   1.083   .     S
C1022  C1038   1.398   .     A
C1022  C1033   1.370   .     A
C1023  H1093   1.083   .     S
C1023  C1037   1.398   .     A
C1023  C1034   1.370   .     A
C1024  H1094   1.083   .     S
C1024  C1030   1.370   .     A
C1024  C1037   1.398   .     A
C1025  C1038   1.398   .     A
C1025  C1032   1.370   .     A
C1025  H1095   1.083   .     S
C1026  H1096   1.083   .     S
C1026  C1040   1.398   .     A
C1027  H1058   1.083   .     S
C1027  C1039   1.398   .     A
C1028  H1059   1.083   .     S
C1028  C1039   1.398   .     A
C1029  C1040   1.398   .     A
C1029  H1060   1.083   .     S
C1030  C1043   1.398   .     A
C1030  H1061   1.083   .     S
C1031  O1112   1.296   .     A
C1031  O1115   1.296   .     A
C1031  C1036   1.423   .     S
C1032  H1062   1.083   .     S
C1032  C1041   1.398   .     A
C1033  H1063   1.083   .     S
C1033  C1041   1.398   .     A
C1034  H1064   1.083   .     S
C1034  C1043   1.398   .     A
C1035  C1042   1.423   .     S
C1039  C1055   1.423   .     S
C1040  C1054   1.423   .     S
C1041  C1053   1.423   .     S
C1042  O1114   1.296   .     A
C1042  O1113   1.296   .     A
C1043  C1052   1.423   .     S
C1044  H1066   1.109   .     S
C1044  H1065   1.084   .     S
C1044  C1056   1.513   .     S
C1045  H1069   1.084   .     S
C1045  H1070   1.109   .     S
C1046  H1072   1.084   .     S
C1046  H1074   1.109   .     S
C1047  H1077   1.109   .     S
C1047  H1075   1.084   .     S
C1048  H1078   1.084   .     S
C1048  H1081   1.109   .     S
C1048  H1080   1.109   .     S
C1049  H1082   1.084   .     S
C1049  H1083   1.109   .     S
C1049  H1084   1.109   .     S
C1050  H1087   1.109   .     S
C1050  H1086   1.109   .     S
C1050  H1085   1.084   .     S
C1051  H1091   1.109   .     S
C1051  H1089   1.109   .     S
C1051  H1088   1.084   .     S
C1052  O1116   1.296   .     A
C1052  O1104   1.296   .     A
C1053  O1102   1.296   .     A
C1053  O1103   1.296   .     A
C1054  O1108   1.296   .     A
C1054  O1105   1.296   .     A
C1055  O1107   1.296   .     A
C1055  O1106   1.296   .     A
C1056  N1098   1.379   .     S
H1067  C932    1.109   1_655 S
H1071  C933    1.109   1_655 S
H1073  C934    1.109   1_655 S
H1076  C935    1.109   1_655 S
N1097  Zn1117  2.041   .     S
N1098  Zn1118  2.041   .     S
N1099  C1238   1.379   1_545 A
N1099  Zn1119  2.041   .     S
N1100  Zn1120  2.041   .     S
N1100  C1239   1.379   1_545 A
O1101  Zn1117  2.002   .     S
O1102  Zn1120  2.002   .     S
O1103  Zn1119  2.002   .     S
O1104  Zn1344  2.002   .     S
O1105  Zn1344  2.002   .     S
O1106  Zn1119  2.002   .     S
O1107  Zn1120  2.002   .     S
O1108  Zn1343  2.002   .     S
O1109  Zn1006  2.002   1_655 S
O1110  Zn1005  2.002   1_655 S
O1111  Zn1118  2.002   .     S
O1112  Zn1006  2.002   1_655 S
O1113  Zn1117  2.002   .     S
O1114  Zn1118  2.002   .     S
O1115  Zn1005  2.002   1_655 S
O1116  Zn1343  2.002   .     S
Zn1119 O1332   2.002   1_545 S
Zn1119 O1340   2.002   1_545 S
Zn1120 O1328   2.002   1_545 S
Zn1120 O1329   2.002   1_545 S
C1121  O1223   1.296   .     A
C1121  C1150   1.423   .     S
C1121  O1213   1.296   .     A
C1122  C1157   1.513   .     S
C1122  C227    1.434   1_556 S
C1122  N1209   1.379   .     S
C1123  N1210   1.379   .     A
C1123  C1158   1.513   .     S
C1124  C1159   1.513   .     S
C1124  C272    1.434   1_556 S
C1124  N1209   1.379   .     S
C1125  C1160   1.513   .     S
C1125  N1212   1.379   .     S
C1126  N987    1.379   1_565 A
C1126  C1161   1.513   .     S
C1126  C231    1.434   1_556 S
C1127  C1162   1.513   .     S
C1127  N988    1.379   1_565 A
C1128  C1163   1.513   .     S
C1128  C229    1.434   1_556 S
C1128  N1211   1.379   .     S
C1129  H1169   1.083   .     S
C1129  C1140   1.370   .     A
C1129  C1148   1.398   .     A
C1130  C1147   1.398   .     A
C1130  C1141   1.370   .     A
C1130  H1180   1.083   .     S
C1131  C1138   1.370   .     A
C1131  H1191   1.083   .     S
C1131  C1147   1.398   .     A
C1132  C1149   1.423   .     S
C1132  O1222   1.296   .     A
C1132  O1221   1.296   .     A
C1133  C1148   1.398   .     A
C1133  C1139   1.370   .     A
C1133  H1202   1.083   .     S
C1134  H1204   1.083   .     S
C1134  C1150   1.398   .     A
C1134  C1145   1.370   .     A
C1135  H1205   1.083   .     S
C1135  C1149   1.398   .     A
C1135  C1146   1.370   .     A
C1136  H1206   1.083   .     S
C1136  C1142   1.370   .     A
C1136  C1149   1.398   .     A
C1137  C1150   1.398   .     A
C1137  C1144   1.370   .     A
C1137  H1207   1.083   .     S
C1138  H1208   1.083   .     S
C1138  C1152   1.398   .     A
C1139  H1170   1.083   .     S
C1139  C1151   1.398   .     A
C1140  H1171   1.083   .     S
C1140  C1151   1.398   .     A
C1141  C1152   1.398   .     A
C1141  H1172   1.083   .     S
C1142  C1155   1.398   .     A
C1142  H1173   1.083   .     S
C1143  O1224   1.296   .     A
C1143  O1227   1.296   .     A
C1143  C1148   1.423   .     S
C1144  H1174   1.083   .     S
C1144  C1153   1.398   .     A
C1145  H1175   1.083   .     S
C1145  C1153   1.398   .     A
C1146  H1176   1.083   .     S
C1146  C1155   1.398   .     A
C1147  C1154   1.423   .     S
C1151  C1167   1.423   .     S
C1152  C1166   1.423   .     S
C1153  C1165   1.423   .     S
C1154  O1226   1.296   .     A
C1154  O1225   1.296   .     A
C1155  C1164   1.423   .     S
C1156  H1178   1.109   .     S
C1156  H1177   1.084   .     S
C1156  C1168   1.513   .     S
C1156  H1291   1.109   1_455 S
C1157  H1295   1.109   1_455 S
C1157  H1181   1.084   .     S
C1157  H1182   1.109   .     S
C1158  H1297   1.109   1_455 S
C1158  H1184   1.084   .     S
C1158  H1186   1.109   .     S
C1159  H1189   1.109   .     S
C1159  H1187   1.084   .     S
C1159  H1300   1.109   1_455 S
C1160  H1190   1.084   .     S
C1160  H1193   1.109   .     S
C1160  H1192   1.109   .     S
C1161  H1194   1.084   .     S
C1161  H1195   1.109   .     S
C1161  H1196   1.109   .     S
C1162  H1199   1.109   .     S
C1162  H1198   1.109   .     S
C1162  H1197   1.084   .     S
C1163  H1203   1.109   .     S
C1163  H1201   1.109   .     S
C1163  H1200   1.084   .     S
C1164  O1228   1.296   .     A
C1164  O1216   1.296   .     A
C1165  O1214   1.296   .     A
C1165  O1215   1.296   .     A
C1166  O1220   1.296   .     A
C1166  O1217   1.296   .     A
C1167  O1219   1.296   .     A
C1167  O1218   1.296   .     A
C1168  N1210   1.379   .     S
H1179  C1268   1.109   .     S
H1183  C1269   1.109   .     S
H1185  C1270   1.109   .     S
H1188  C1271   1.109   .     S
N1209  Zn1229  2.041   .     S
N1210  Zn1230  2.041   .     S
N1211  Zn1231  2.041   .     S
N1212  Zn1232  2.041   .     S
O1213  Zn1229  2.002   .     S
O1214  Zn1232  2.002   .     S
O1215  Zn1231  2.002   .     S
O1216  Zn1008  2.002   1_565 S
O1217  Zn1008  2.002   1_565 S
O1218  Zn1231  2.002   .     S
O1219  Zn1232  2.002   .     S
O1220  Zn1007  2.002   1_565 S
O1221  Zn1342  2.002   .     S
O1222  Zn1341  2.002   .     S
O1223  Zn1230  2.002   .     S
O1224  Zn1342  2.002   .     S
O1225  Zn1229  2.002   .     S
O1226  Zn1230  2.002   .     S
O1227  Zn1341  2.002   .     S
O1228  Zn1007  2.002   1_565 S
Zn1229 O1339   2.002   1_455 S
Zn1229 O1334   2.002   1_455 S
Zn1230 O1333   2.002   1_455 S
Zn1230 O1336   2.002   1_455 S
C1233  O1335   1.296   .     A
C1233  C1262   1.423   .     S
C1233  O1325   1.296   .     A
C1234  C1269   1.513   .     S
C1234  C339    1.434   1_556 S
C1234  N1321   1.379   .     S
C1235  N1322   1.379   .     A
C1235  C1270   1.513   .     S
C1236  C1271   1.513   .     S
C1236  C384    1.434   1_556 S
C1236  N1321   1.379   .     S
C1237  C1272   1.513   .     S
C1237  N1324   1.379   .     S
C1238  N1099   1.379   1_565 A
C1238  C1273   1.513   .     S
C1238  C343    1.434   1_556 S
C1239  C1274   1.513   .     S
C1239  N1100   1.379   1_565 A
C1240  C1275   1.513   .     S
C1240  C341    1.434   1_556 S
C1240  N1323   1.379   .     S
C1241  H1281   1.083   .     S
C1241  C1252   1.370   .     A
C1241  C1260   1.398   .     A
C1242  C1259   1.398   .     A
C1242  C1253   1.370   .     A
C1242  H1292   1.083   .     S
C1243  C1250   1.370   .     A
C1243  H1303   1.083   .     S
C1243  C1259   1.398   .     A
C1244  C1261   1.423   .     S
C1244  O1334   1.296   .     A
C1244  O1333   1.296   .     A
C1245  C1260   1.398   .     A
C1245  C1251   1.370   .     A
C1245  H1314   1.083   .     S
C1246  H1316   1.083   .     S
C1246  C1262   1.398   .     A
C1246  C1257   1.370   .     A
C1247  H1317   1.083   .     S
C1247  C1261   1.398   .     A
C1247  C1258   1.370   .     A
C1248  H1318   1.083   .     S
C1248  C1254   1.370   .     A
C1248  C1261   1.398   .     A
C1249  C1262   1.398   .     A
C1249  C1256   1.370   .     A
C1249  H1319   1.083   .     S
C1250  H1320   1.083   .     S
C1250  C1264   1.398   .     A
C1251  H1282   1.083   .     S
C1251  C1263   1.398   .     A
C1252  H1283   1.083   .     S
C1252  C1263   1.398   .     A
C1253  C1264   1.398   .     A
C1253  H1284   1.083   .     S
C1254  C1267   1.398   .     A
C1254  H1285   1.083   .     S
C1255  O1336   1.296   .     A
C1255  O1339   1.296   .     A
C1255  C1260   1.423   .     S
C1256  H1286   1.083   .     S
C1256  C1265   1.398   .     A
C1257  H1287   1.083   .     S
C1257  C1265   1.398   .     A
C1258  H1288   1.083   .     S
C1258  C1267   1.398   .     A
C1259  C1266   1.423   .     S
C1263  C1279   1.423   .     S
C1264  C1278   1.423   .     S
C1265  C1277   1.423   .     S
C1266  O1338   1.296   .     A
C1266  O1337   1.296   .     A
C1267  C1276   1.423   .     S
C1268  H1290   1.109   .     S
C1268  H1289   1.084   .     S
C1268  C1280   1.513   .     S
C1269  H1293   1.084   .     S
C1269  H1294   1.109   .     S
C1270  H1296   1.084   .     S
C1270  H1298   1.109   .     S
C1271  H1301   1.109   .     S
C1271  H1299   1.084   .     S
C1272  H1302   1.084   .     S
C1272  H1305   1.109   .     S
C1272  H1304   1.109   .     S
C1273  H1306   1.084   .     S
C1273  H1307   1.109   .     S
C1273  H1308   1.109   .     S
C1274  H1311   1.109   .     S
C1274  H1310   1.109   .     S
C1274  H1309   1.084   .     S
C1275  H1315   1.109   .     S
C1275  H1313   1.109   .     S
C1275  H1312   1.084   .     S
C1276  O1340   1.296   .     A
C1276  O1328   1.296   .     A
C1277  O1326   1.296   .     A
C1277  O1327   1.296   .     A
C1278  O1332   1.296   .     A
C1278  O1329   1.296   .     A
C1279  O1331   1.296   .     A
C1279  O1330   1.296   .     A
C1280  N1322   1.379   .     S
H1291  C1156   1.109   1_655 S
H1295  C1157   1.109   1_655 S
H1297  C1158   1.109   1_655 S
H1300  C1159   1.109   1_655 S
N1321  Zn1341  2.041   .     S
N1322  Zn1342  2.041   .     S
N1323  Zn1343  2.041   .     S
N1324  Zn1344  2.041   .     S
O1325  Zn1341  2.002   .     S
O1326  Zn1344  2.002   .     S
O1327  Zn1343  2.002   .     S
O1328  Zn1120  2.002   1_565 S
O1329  Zn1120  2.002   1_565 S
O1330  Zn1343  2.002   .     S
O1331  Zn1344  2.002   .     S
O1332  Zn1119  2.002   1_565 S
O1333  Zn1230  2.002   1_655 S
O1334  Zn1229  2.002   1_655 S
O1335  Zn1342  2.002   .     S
O1336  Zn1230  2.002   1_655 S
O1337  Zn1341  2.002   .     S
O1338  Zn1342  2.002   .     S
O1339  Zn1229  2.002   1_655 S
O1340  Zn1119  2.002   1_565 S
