data_str_m2_o1_o16_pcu_sym.37
_audit_creation_date              2020-01-03
_audit_creation_method            'Materials Studio'
_symmetry_space_group_name_H-M    'P1'
_symmetry_Int_Tables_number       1
_symmetry_cell_setting            triclinic
loop_
_symmetry_equiv_pos_as_xyz
  x,y,z
_cell_length_a                    29.2213
_cell_length_b                    32.5772
_cell_length_c                    26.9807
_cell_angle_alpha                 96.0077
_cell_angle_beta                  75.1104
_cell_angle_gamma                 91.9164
loop_
_atom_site_label
_atom_site_type_symbol
_atom_site_fract_x
_atom_site_fract_y
_atom_site_fract_z
_atom_site_U_iso_or_equiv
_atom_site_adp_type
_atom_site_occupancy
O1     O     0.12708   0.22678   0.25001   0.00000  Uiso   1.00
O2     O     0.20627   0.22679   0.25001   0.00000  Uiso   1.00
C3     C     0.16834   0.24537   0.24607   0.00000  Uiso   1.00
O4     O     0.10775   0.16665   0.32549   0.00000  Uiso   1.00
O5     O     0.18694   0.16666   0.32549   0.00000  Uiso   1.00
C6     C     0.14108   0.16827   0.35007   0.00000  Uiso   1.00
Cu7    Cu    0.11978   0.16666   0.25000   0.00000  Uiso   1.00
Cu8    Cu    0.21355   0.16667   0.25000   0.00000  Uiso   1.00
O9     O     0.12706   0.10654   0.25000   0.00000  Uiso   1.00
O10    O     0.20625   0.10655   0.25000   0.00000  Uiso   1.00
O11    O     0.14640   0.16667   0.17451   0.00000  Uiso   1.00
O12    O     0.22559   0.16668   0.17451   0.00000  Uiso   1.00
C13    C     0.16561   0.08749   0.25079   0.00000  Uiso   1.00
C14    C     0.19142   0.16645   0.15060   0.00000  Uiso   1.00
C15    C     0.25483   0.15448   0.00919   0.00000  Uiso   1.00
H16    H     0.27261   0.14236   0.07822   0.00000  Uiso   1.00
H17    H     0.27330   0.19132   0.42014   0.00000  Uiso   1.00
C18    C     0.20251   0.16746   0.09455   0.00000  Uiso   1.00
C19    C     0.07656   0.16746   0.43367   0.00000  Uiso   1.00
C20    C     0.05976   0.18452   0.48522   0.00000  Uiso   1.00
C21    C     0.09166   0.19437   0.01594   0.00000  Uiso   1.00
C22    C     0.14050   0.18777   0.49322   0.00000  Uiso   1.00
C23    C     0.15544   0.18611   0.43915   0.00000  Uiso   1.00
C24    C     0.17606   0.18174   0.01940   0.00000  Uiso   1.00
C25    C     0.22303   0.17442   0.48915   0.00000  Uiso   1.00
C26    C     0.23645   0.18777   0.43978   0.00000  Uiso   1.00
C27    C     0.20104   0.20021   0.41886   0.00000  Uiso   1.00
C28    C     0.16668   0.17809   0.07224   0.00000  Uiso   1.00
C29    C     0.24618   0.15446   0.06263   0.00000  Uiso   1.00
C30    C     0.12468   0.17357   0.40799   0.00000  Uiso   1.00
H31    H     0.13177   0.18290   0.09667   0.00000  Uiso   1.00
C32    C     0.20609   0.31452   0.25616   0.00000  Uiso   1.00
C33    C     0.19867   0.02373   0.26839   0.00000  Uiso   1.00
C34    C     0.16419   0.04234   0.25057   0.00000  Uiso   1.00
C35    C     0.13320   0.01769   0.22710   0.00000  Uiso   1.00
C36    C     0.13808   0.30788   0.22009   0.00000  Uiso   1.00
C37    C     0.17118   0.28979   0.24026   0.00000  Uiso   1.00
C38    C     0.30271   0.19702   0.27898   0.00000  Uiso   1.00
C39    C     0.01786   0.19370   0.28319   0.00000  Uiso   1.00
N40    N     0.04931   0.16666   0.24999   0.00000  Uiso   1.00
C41    C     0.03148   0.13878   0.21784   0.00000  Uiso   1.00
C42    C     0.31476   0.13689   0.22064   0.00000  Uiso   1.00
N43    N     0.28402   0.16669   0.25000   0.00000  Uiso   1.00
O44    O     0.21741   0.04638   0.30539   0.00000  Uiso   1.00
C45    C     0.26720   0.04610   0.29203   0.00000  Uiso   1.00
H46    H     0.28002   0.07662   0.30555   0.00000  Uiso   1.00
H47    H     0.28260   0.04088   0.24994   0.00000  Uiso   1.00
H48    H     0.28012   0.02266   0.31198   0.00000  Uiso   1.00
O49    O     0.09903   0.03542   0.20950   0.00000  Uiso   1.00
C50    C     0.05637   0.03746   0.24906   0.00000  Uiso   1.00
H51    H     0.02699   0.03740   0.23030   0.00000  Uiso   1.00
H52    H     0.05446   0.06648   0.27490   0.00000  Uiso   1.00
H53    H     0.05032   0.01114   0.27323   0.00000  Uiso   1.00
O54    O     0.12057   0.28446   0.18293   0.00000  Uiso   1.00
C55    C     0.07193   0.27629   0.20134   0.00000  Uiso   1.00
H56    H     0.06071   0.27535   0.24365   0.00000  Uiso   1.00
H57    H     0.06397   0.24538   0.18392   0.00000  Uiso   1.00
H58    H     0.05116   0.29916   0.18877   0.00000  Uiso   1.00
O59    O     0.27206   0.22893   0.30402   0.00000  Uiso   1.00
C60    C     0.29255   0.26420   0.32548   0.00000  Uiso   1.00
H61    H     0.32432   0.27544   0.29825   0.00000  Uiso   1.00
H62    H     0.29784   0.25934   0.36365   0.00000  Uiso   1.00
H63    H     0.26691   0.28961   0.33533   0.00000  Uiso   1.00
C64    C     0.03083   0.21194   0.32995   0.00000  Uiso   1.00
H65    H     0.01275   0.20120   0.36639   0.00000  Uiso   1.00
O66    O     0.05876   0.24064   0.32923   0.00000  Uiso   1.00
O67    O     0.06082   0.10766   0.18946   0.00000  Uiso   1.00
C68    C     0.07451   0.11403   0.13669   0.00000  Uiso   1.00
H69    H     0.11344   0.11097   0.12279   0.00000  Uiso   1.00
H70    H     0.06403   0.14438   0.12753   0.00000  Uiso   1.00
H71    H     0.06013   0.08885   0.11417   0.00000  Uiso   1.00
O72    O     0.29631   0.10080   0.20173   0.00000  Uiso   1.00
C73    C     0.29779   0.10072   0.14920   0.00000  Uiso   1.00
H74    H     0.31636   0.07258   0.12791   0.00000  Uiso   1.00
H75    H     0.31527   0.12834   0.13114   0.00000  Uiso   1.00
H76    H     0.26118   0.09760   0.14469   0.00000  Uiso   1.00
O77    O     0.29116   0.13154   0.47599   0.00000  Uiso   1.00
C78    C     0.28281   0.08927   0.48341   0.00000  Uiso   1.00
H79    H     0.30235   0.07012   0.44855   0.00000  Uiso   1.00
H80    H     0.24476   0.08023   0.48911   0.00000  Uiso   1.00
H81    H     0.29596   0.08149   0.01644   0.00000  Uiso   1.00
O82    O     0.04475   0.14900   0.40808   0.00000  Uiso   1.00
C83    C     0.05441   0.10628   0.39788   0.00000  Uiso   1.00
H84    H     0.05111   0.09178   0.43421   0.00000  Uiso   1.00
H85    H     0.09004   0.09970   0.37173   0.00000  Uiso   1.00
H86    H     0.02836   0.09146   0.37805   0.00000  Uiso   1.00
C87    C     0.07362   0.21841   0.06658   0.00000  Uiso   1.00
H88    H     0.03851   0.21227   0.09032   0.00000  Uiso   1.00
O89    O     0.09687   0.24700   0.08073   0.00000  Uiso   1.00
O90    O     0.01218   0.19226   0.00547   0.00000  Uiso   1.00
C91    C     0.00233   0.23146   0.49291   0.00000  Uiso   1.00
H92    H     0.00895   0.23214   0.45058   0.00000  Uiso   1.00
H93    H     0.02316   0.25631   0.00881   0.00000  Uiso   1.00
H94    H     0.29766   0.23831   0.01035   0.00000  Uiso   1.00
O95    O     0.20973   0.22978   0.38452   0.00000  Uiso   1.00
C96    C     0.17849   0.26356   0.40295   0.00000  Uiso   1.00
H97    H     0.18983   0.28891   0.37806   0.00000  Uiso   1.00
H98    H     0.17889   0.27577   0.44297   0.00000  Uiso   1.00
H99    H     0.14185   0.25525   0.40074   0.00000  Uiso   1.00
O100   O     0.24815   0.29760   0.25757   0.00000  Uiso   1.00
C101   C     0.27647   0.28936   0.20653   0.00000  Uiso   1.00
H102   H     0.30691   0.27044   0.20750   0.00000  Uiso   1.00
H103   H     0.29035   0.31838   0.18973   0.00000  Uiso   1.00
H104   H     0.25750   0.27118   0.18057   0.00000  Uiso   1.00
O105   O     0.46042   0.22678   0.25001   0.00000  Uiso   1.00
O106   O     0.53961   0.22679   0.25001   0.00000  Uiso   1.00
C107   C     0.50168   0.24537   0.24607   0.00000  Uiso   1.00
O108   O     0.44108   0.16665   0.32549   0.00000  Uiso   1.00
O109   O     0.52027   0.16666   0.32549   0.00000  Uiso   1.00
C110   C     0.47442   0.16827   0.35007   0.00000  Uiso   1.00
Cu111  Cu    0.45311   0.16666   0.25000   0.00000  Uiso   1.00
Cu112  Cu    0.54689   0.16667   0.25000   0.00000  Uiso   1.00
O113   O     0.46039   0.10654   0.25000   0.00000  Uiso   1.00
O114   O     0.53958   0.10655   0.25000   0.00000  Uiso   1.00
O115   O     0.47973   0.16667   0.17451   0.00000  Uiso   1.00
O116   O     0.55892   0.16668   0.17451   0.00000  Uiso   1.00
C117   C     0.49895   0.08749   0.25079   0.00000  Uiso   1.00
C118   C     0.52475   0.16645   0.15060   0.00000  Uiso   1.00
C119   C     0.58816   0.15448   0.00919   0.00000  Uiso   1.00
H120   H     0.60594   0.14236   0.07822   0.00000  Uiso   1.00
H121   H     0.60663   0.19132   0.42014   0.00000  Uiso   1.00
C122   C     0.53584   0.16746   0.09455   0.00000  Uiso   1.00
C123   C     0.40990   0.16746   0.43367   0.00000  Uiso   1.00
C124   C     0.39310   0.18452   0.48522   0.00000  Uiso   1.00
C125   C     0.42499   0.19437   0.01594   0.00000  Uiso   1.00
C126   C     0.47383   0.18777   0.49322   0.00000  Uiso   1.00
C127   C     0.48877   0.18611   0.43915   0.00000  Uiso   1.00
C128   C     0.50939   0.18174   0.01940   0.00000  Uiso   1.00
C129   C     0.55636   0.17442   0.48915   0.00000  Uiso   1.00
C130   C     0.56979   0.18777   0.43978   0.00000  Uiso   1.00
C131   C     0.53438   0.20021   0.41886   0.00000  Uiso   1.00
C132   C     0.50001   0.17809   0.07224   0.00000  Uiso   1.00
C133   C     0.57951   0.15446   0.06263   0.00000  Uiso   1.00
C134   C     0.45801   0.17357   0.40799   0.00000  Uiso   1.00
H135   H     0.46510   0.18290   0.09667   0.00000  Uiso   1.00
C136   C     0.53942   0.31452   0.25616   0.00000  Uiso   1.00
C137   C     0.53200   0.02373   0.26839   0.00000  Uiso   1.00
C138   C     0.49752   0.04234   0.25057   0.00000  Uiso   1.00
C139   C     0.46654   0.01769   0.22710   0.00000  Uiso   1.00
C140   C     0.47142   0.30788   0.22009   0.00000  Uiso   1.00
C141   C     0.50451   0.28979   0.24026   0.00000  Uiso   1.00
C142   C     0.63605   0.19702   0.27898   0.00000  Uiso   1.00
C143   C     0.35119   0.19370   0.28319   0.00000  Uiso   1.00
N144   N     0.38265   0.16666   0.24999   0.00000  Uiso   1.00
C145   C     0.36481   0.13878   0.21784   0.00000  Uiso   1.00
C146   C     0.64809   0.13689   0.22064   0.00000  Uiso   1.00
N147   N     0.61735   0.16669   0.25000   0.00000  Uiso   1.00
O148   O     0.55074   0.04638   0.30539   0.00000  Uiso   1.00
C149   C     0.60053   0.04610   0.29203   0.00000  Uiso   1.00
H150   H     0.61335   0.07662   0.30555   0.00000  Uiso   1.00
H151   H     0.61594   0.04088   0.24994   0.00000  Uiso   1.00
H152   H     0.61345   0.02266   0.31198   0.00000  Uiso   1.00
O153   O     0.43237   0.03542   0.20950   0.00000  Uiso   1.00
C154   C     0.38970   0.03746   0.24906   0.00000  Uiso   1.00
H155   H     0.36032   0.03740   0.23030   0.00000  Uiso   1.00
H156   H     0.38779   0.06648   0.27490   0.00000  Uiso   1.00
H157   H     0.38365   0.01114   0.27323   0.00000  Uiso   1.00
O158   O     0.45391   0.28446   0.18293   0.00000  Uiso   1.00
C159   C     0.40526   0.27629   0.20134   0.00000  Uiso   1.00
H160   H     0.39404   0.27535   0.24365   0.00000  Uiso   1.00
H161   H     0.39731   0.24538   0.18392   0.00000  Uiso   1.00
H162   H     0.38450   0.29916   0.18877   0.00000  Uiso   1.00
O163   O     0.60540   0.22893   0.30402   0.00000  Uiso   1.00
C164   C     0.62588   0.26420   0.32548   0.00000  Uiso   1.00
H165   H     0.65765   0.27544   0.29825   0.00000  Uiso   1.00
H166   H     0.63118   0.25934   0.36365   0.00000  Uiso   1.00
H167   H     0.60024   0.28961   0.33533   0.00000  Uiso   1.00
C168   C     0.36417   0.21194   0.32995   0.00000  Uiso   1.00
H169   H     0.34608   0.20120   0.36639   0.00000  Uiso   1.00
O170   O     0.39210   0.24064   0.32923   0.00000  Uiso   1.00
O171   O     0.39416   0.10766   0.18946   0.00000  Uiso   1.00
C172   C     0.40784   0.11403   0.13669   0.00000  Uiso   1.00
H173   H     0.44677   0.11097   0.12279   0.00000  Uiso   1.00
H174   H     0.39737   0.14438   0.12753   0.00000  Uiso   1.00
H175   H     0.39346   0.08885   0.11417   0.00000  Uiso   1.00
O176   O     0.62964   0.10080   0.20173   0.00000  Uiso   1.00
C177   C     0.63112   0.10072   0.14920   0.00000  Uiso   1.00
H178   H     0.64969   0.07258   0.12791   0.00000  Uiso   1.00
H179   H     0.64860   0.12834   0.13114   0.00000  Uiso   1.00
H180   H     0.59451   0.09760   0.14469   0.00000  Uiso   1.00
O181   O     0.62449   0.13154   0.47599   0.00000  Uiso   1.00
C182   C     0.61614   0.08927   0.48341   0.00000  Uiso   1.00
H183   H     0.63568   0.07012   0.44855   0.00000  Uiso   1.00
H184   H     0.57809   0.08023   0.48911   0.00000  Uiso   1.00
H185   H     0.62929   0.08149   0.01644   0.00000  Uiso   1.00
O186   O     0.37808   0.14900   0.40808   0.00000  Uiso   1.00
C187   C     0.38774   0.10628   0.39788   0.00000  Uiso   1.00
H188   H     0.38444   0.09178   0.43421   0.00000  Uiso   1.00
H189   H     0.42337   0.09970   0.37173   0.00000  Uiso   1.00
H190   H     0.36169   0.09146   0.37805   0.00000  Uiso   1.00
C191   C     0.40696   0.21841   0.06658   0.00000  Uiso   1.00
H192   H     0.37184   0.21227   0.09032   0.00000  Uiso   1.00
O193   O     0.43020   0.24700   0.08073   0.00000  Uiso   1.00
O194   O     0.34551   0.19226   0.00547   0.00000  Uiso   1.00
C195   C     0.33566   0.23146   0.49291   0.00000  Uiso   1.00
H196   H     0.34229   0.23214   0.45058   0.00000  Uiso   1.00
H197   H     0.35649   0.25631   0.00881   0.00000  Uiso   1.00
H198   H     0.63100   0.23831   0.01035   0.00000  Uiso   1.00
O199   O     0.54307   0.22978   0.38452   0.00000  Uiso   1.00
C200   C     0.51183   0.26356   0.40295   0.00000  Uiso   1.00
H201   H     0.52316   0.28891   0.37806   0.00000  Uiso   1.00
H202   H     0.51223   0.27577   0.44297   0.00000  Uiso   1.00
H203   H     0.47518   0.25525   0.40074   0.00000  Uiso   1.00
O204   O     0.58148   0.29760   0.25757   0.00000  Uiso   1.00
C205   C     0.60980   0.28936   0.20653   0.00000  Uiso   1.00
H206   H     0.64024   0.27044   0.20750   0.00000  Uiso   1.00
H207   H     0.62368   0.31838   0.18973   0.00000  Uiso   1.00
H208   H     0.59084   0.27118   0.18057   0.00000  Uiso   1.00
O209   O     0.79375   0.22678   0.25001   0.00000  Uiso   1.00
O210   O     0.87294   0.22679   0.25001   0.00000  Uiso   1.00
C211   C     0.83501   0.24537   0.24607   0.00000  Uiso   1.00
O212   O     0.77441   0.16665   0.32549   0.00000  Uiso   1.00
O213   O     0.85360   0.16666   0.32549   0.00000  Uiso   1.00
C214   C     0.80775   0.16827   0.35007   0.00000  Uiso   1.00
Cu215  Cu    0.78645   0.16666   0.25000   0.00000  Uiso   1.00
Cu216  Cu    0.88022   0.16667   0.25000   0.00000  Uiso   1.00
O217   O     0.79373   0.10654   0.25000   0.00000  Uiso   1.00
O218   O     0.87292   0.10655   0.25000   0.00000  Uiso   1.00
O219   O     0.81306   0.16667   0.17451   0.00000  Uiso   1.00
O220   O     0.89225   0.16668   0.17451   0.00000  Uiso   1.00
C221   C     0.83228   0.08749   0.25079   0.00000  Uiso   1.00
C222   C     0.85808   0.16645   0.15060   0.00000  Uiso   1.00
C223   C     0.92149   0.15448   0.00919   0.00000  Uiso   1.00
H224   H     0.93927   0.14236   0.07822   0.00000  Uiso   1.00
H225   H     0.93997   0.19132   0.42014   0.00000  Uiso   1.00
C226   C     0.86918   0.16746   0.09455   0.00000  Uiso   1.00
C227   C     0.74323   0.16746   0.43367   0.00000  Uiso   1.00
C228   C     0.72643   0.18452   0.48522   0.00000  Uiso   1.00
C229   C     0.75833   0.19437   0.01594   0.00000  Uiso   1.00
C230   C     0.80717   0.18777   0.49322   0.00000  Uiso   1.00
C231   C     0.82211   0.18611   0.43915   0.00000  Uiso   1.00
C232   C     0.84273   0.18174   0.01940   0.00000  Uiso   1.00
C233   C     0.88970   0.17442   0.48915   0.00000  Uiso   1.00
C234   C     0.90312   0.18777   0.43978   0.00000  Uiso   1.00
C235   C     0.86771   0.20021   0.41886   0.00000  Uiso   1.00
C236   C     0.83335   0.17809   0.07224   0.00000  Uiso   1.00
C237   C     0.91284   0.15446   0.06263   0.00000  Uiso   1.00
C238   C     0.79134   0.17357   0.40799   0.00000  Uiso   1.00
H239   H     0.79844   0.18290   0.09667   0.00000  Uiso   1.00
C240   C     0.87275   0.31452   0.25616   0.00000  Uiso   1.00
C241   C     0.86534   0.02373   0.26839   0.00000  Uiso   1.00
C242   C     0.83086   0.04234   0.25057   0.00000  Uiso   1.00
C243   C     0.79987   0.01769   0.22710   0.00000  Uiso   1.00
C244   C     0.80475   0.30788   0.22009   0.00000  Uiso   1.00
C245   C     0.83785   0.28979   0.24026   0.00000  Uiso   1.00
C246   C     0.96938   0.19702   0.27898   0.00000  Uiso   1.00
C247   C     0.68452   0.19370   0.28319   0.00000  Uiso   1.00
N248   N     0.71598   0.16666   0.24999   0.00000  Uiso   1.00
C249   C     0.69815   0.13878   0.21784   0.00000  Uiso   1.00
C250   C     0.98142   0.13689   0.22064   0.00000  Uiso   1.00
N251   N     0.95069   0.16669   0.25000   0.00000  Uiso   1.00
O252   O     0.88407   0.04638   0.30539   0.00000  Uiso   1.00
C253   C     0.93387   0.04610   0.29203   0.00000  Uiso   1.00
H254   H     0.94669   0.07662   0.30555   0.00000  Uiso   1.00
H255   H     0.94927   0.04088   0.24994   0.00000  Uiso   1.00
H256   H     0.94679   0.02266   0.31198   0.00000  Uiso   1.00
O257   O     0.76570   0.03542   0.20950   0.00000  Uiso   1.00
C258   C     0.72304   0.03746   0.24906   0.00000  Uiso   1.00
H259   H     0.69366   0.03740   0.23030   0.00000  Uiso   1.00
H260   H     0.72112   0.06648   0.27490   0.00000  Uiso   1.00
H261   H     0.71699   0.01114   0.27323   0.00000  Uiso   1.00
O262   O     0.78724   0.28446   0.18293   0.00000  Uiso   1.00
C263   C     0.73860   0.27629   0.20134   0.00000  Uiso   1.00
H264   H     0.72738   0.27535   0.24365   0.00000  Uiso   1.00
H265   H     0.73064   0.24538   0.18392   0.00000  Uiso   1.00
H266   H     0.71783   0.29916   0.18877   0.00000  Uiso   1.00
O267   O     0.93873   0.22893   0.30402   0.00000  Uiso   1.00
C268   C     0.95921   0.26420   0.32548   0.00000  Uiso   1.00
H269   H     0.99099   0.27544   0.29825   0.00000  Uiso   1.00
H270   H     0.96451   0.25934   0.36365   0.00000  Uiso   1.00
H271   H     0.93357   0.28961   0.33533   0.00000  Uiso   1.00
C272   C     0.69750   0.21194   0.32995   0.00000  Uiso   1.00
H273   H     0.67941   0.20120   0.36639   0.00000  Uiso   1.00
O274   O     0.72543   0.24064   0.32923   0.00000  Uiso   1.00
O275   O     0.72749   0.10766   0.18946   0.00000  Uiso   1.00
C276   C     0.74118   0.11403   0.13669   0.00000  Uiso   1.00
H277   H     0.78011   0.11097   0.12279   0.00000  Uiso   1.00
H278   H     0.73070   0.14438   0.12753   0.00000  Uiso   1.00
H279   H     0.72680   0.08885   0.11417   0.00000  Uiso   1.00
O280   O     0.96298   0.10080   0.20173   0.00000  Uiso   1.00
C281   C     0.96446   0.10072   0.14920   0.00000  Uiso   1.00
H282   H     0.98303   0.07258   0.12791   0.00000  Uiso   1.00
H283   H     0.98194   0.12834   0.13114   0.00000  Uiso   1.00
H284   H     0.92784   0.09760   0.14469   0.00000  Uiso   1.00
O285   O     0.95782   0.13154   0.47599   0.00000  Uiso   1.00
C286   C     0.94948   0.08927   0.48341   0.00000  Uiso   1.00
H287   H     0.96902   0.07012   0.44855   0.00000  Uiso   1.00
H288   H     0.91142   0.08023   0.48911   0.00000  Uiso   1.00
H289   H     0.96263   0.08149   0.01644   0.00000  Uiso   1.00
O290   O     0.71141   0.14900   0.40808   0.00000  Uiso   1.00
C291   C     0.72108   0.10628   0.39788   0.00000  Uiso   1.00
H292   H     0.71777   0.09178   0.43421   0.00000  Uiso   1.00
H293   H     0.75671   0.09970   0.37173   0.00000  Uiso   1.00
H294   H     0.69502   0.09146   0.37805   0.00000  Uiso   1.00
C295   C     0.74029   0.21841   0.06658   0.00000  Uiso   1.00
H296   H     0.70518   0.21227   0.09032   0.00000  Uiso   1.00
O297   O     0.76354   0.24700   0.08073   0.00000  Uiso   1.00
O298   O     0.67885   0.19226   0.00547   0.00000  Uiso   1.00
C299   C     0.66899   0.23146   0.49291   0.00000  Uiso   1.00
H300   H     0.67562   0.23214   0.45058   0.00000  Uiso   1.00
H301   H     0.68983   0.25631   0.00881   0.00000  Uiso   1.00
H302   H     0.96433   0.23831   0.01035   0.00000  Uiso   1.00
O303   O     0.87640   0.22978   0.38452   0.00000  Uiso   1.00
C304   C     0.84516   0.26356   0.40295   0.00000  Uiso   1.00
H305   H     0.85649   0.28891   0.37806   0.00000  Uiso   1.00
H306   H     0.84556   0.27577   0.44297   0.00000  Uiso   1.00
H307   H     0.80852   0.25525   0.40074   0.00000  Uiso   1.00
O308   O     0.91482   0.29760   0.25757   0.00000  Uiso   1.00
C309   C     0.94314   0.28936   0.20653   0.00000  Uiso   1.00
H310   H     0.97358   0.27044   0.20750   0.00000  Uiso   1.00
H311   H     0.95701   0.31838   0.18973   0.00000  Uiso   1.00
H312   H     0.92417   0.27118   0.18057   0.00000  Uiso   1.00
O313   O     0.12708   0.56011   0.25001   0.00000  Uiso   1.00
O314   O     0.20627   0.56012   0.25001   0.00000  Uiso   1.00
C315   C     0.16834   0.57870   0.24607   0.00000  Uiso   1.00
O316   O     0.10775   0.49998   0.32549   0.00000  Uiso   1.00
O317   O     0.18694   0.49999   0.32549   0.00000  Uiso   1.00
C318   C     0.14108   0.50160   0.35007   0.00000  Uiso   1.00
Cu319  Cu    0.11978   0.49999   0.25000   0.00000  Uiso   1.00
Cu320  Cu    0.21355   0.50001   0.25000   0.00000  Uiso   1.00
O321   O     0.12706   0.43988   0.25000   0.00000  Uiso   1.00
O322   O     0.20625   0.43989   0.25000   0.00000  Uiso   1.00
O323   O     0.14640   0.50001   0.17451   0.00000  Uiso   1.00
O324   O     0.22559   0.50002   0.17451   0.00000  Uiso   1.00
C325   C     0.16561   0.42082   0.25079   0.00000  Uiso   1.00
C326   C     0.19142   0.49978   0.15060   0.00000  Uiso   1.00
C327   C     0.25483   0.48781   0.00919   0.00000  Uiso   1.00
H328   H     0.27261   0.47569   0.07822   0.00000  Uiso   1.00
H329   H     0.27330   0.52465   0.42014   0.00000  Uiso   1.00
C330   C     0.20251   0.50079   0.09455   0.00000  Uiso   1.00
C331   C     0.07656   0.50079   0.43367   0.00000  Uiso   1.00
C332   C     0.05976   0.51785   0.48522   0.00000  Uiso   1.00
C333   C     0.09166   0.52771   0.01594   0.00000  Uiso   1.00
C334   C     0.14050   0.52110   0.49322   0.00000  Uiso   1.00
C335   C     0.15544   0.51944   0.43915   0.00000  Uiso   1.00
C336   C     0.17606   0.51507   0.01940   0.00000  Uiso   1.00
C337   C     0.22303   0.50775   0.48915   0.00000  Uiso   1.00
C338   C     0.23645   0.52110   0.43978   0.00000  Uiso   1.00
C339   C     0.20104   0.53354   0.41886   0.00000  Uiso   1.00
C340   C     0.16668   0.51142   0.07224   0.00000  Uiso   1.00
C341   C     0.24618   0.48779   0.06263   0.00000  Uiso   1.00
C342   C     0.12468   0.50691   0.40799   0.00000  Uiso   1.00
H343   H     0.13177   0.51623   0.09667   0.00000  Uiso   1.00
C344   C     0.20609   0.64786   0.25616   0.00000  Uiso   1.00
C345   C     0.19867   0.35706   0.26839   0.00000  Uiso   1.00
C346   C     0.16419   0.37567   0.25057   0.00000  Uiso   1.00
C347   C     0.13320   0.35103   0.22710   0.00000  Uiso   1.00
C348   C     0.13808   0.64122   0.22009   0.00000  Uiso   1.00
C349   C     0.17118   0.62312   0.24026   0.00000  Uiso   1.00
C350   C     0.30271   0.53035   0.27898   0.00000  Uiso   1.00
C351   C     0.01786   0.52704   0.28319   0.00000  Uiso   1.00
N352   N     0.04931   0.49999   0.24999   0.00000  Uiso   1.00
C353   C     0.03148   0.47211   0.21784   0.00000  Uiso   1.00
C354   C     0.31476   0.47022   0.22064   0.00000  Uiso   1.00
N355   N     0.28402   0.50002   0.25000   0.00000  Uiso   1.00
O356   O     0.21741   0.37971   0.30539   0.00000  Uiso   1.00
C357   C     0.26720   0.37943   0.29203   0.00000  Uiso   1.00
H358   H     0.28002   0.40995   0.30555   0.00000  Uiso   1.00
H359   H     0.28260   0.37422   0.24994   0.00000  Uiso   1.00
H360   H     0.28012   0.35599   0.31198   0.00000  Uiso   1.00
O361   O     0.09903   0.36875   0.20950   0.00000  Uiso   1.00
C362   C     0.05637   0.37080   0.24906   0.00000  Uiso   1.00
H363   H     0.02699   0.37073   0.23030   0.00000  Uiso   1.00
H364   H     0.05446   0.39981   0.27490   0.00000  Uiso   1.00
H365   H     0.05032   0.34447   0.27323   0.00000  Uiso   1.00
O366   O     0.12057   0.61780   0.18293   0.00000  Uiso   1.00
C367   C     0.07193   0.60963   0.20134   0.00000  Uiso   1.00
H368   H     0.06071   0.60868   0.24365   0.00000  Uiso   1.00
H369   H     0.06397   0.57872   0.18392   0.00000  Uiso   1.00
H370   H     0.05116   0.63250   0.18877   0.00000  Uiso   1.00
O371   O     0.27206   0.56226   0.30402   0.00000  Uiso   1.00
C372   C     0.29255   0.59753   0.32548   0.00000  Uiso   1.00
H373   H     0.32432   0.60878   0.29825   0.00000  Uiso   1.00
H374   H     0.29784   0.59267   0.36365   0.00000  Uiso   1.00
H375   H     0.26691   0.62294   0.33533   0.00000  Uiso   1.00
C376   C     0.03083   0.54528   0.32995   0.00000  Uiso   1.00
H377   H     0.01275   0.53453   0.36639   0.00000  Uiso   1.00
O378   O     0.05876   0.57398   0.32923   0.00000  Uiso   1.00
O379   O     0.06082   0.44099   0.18946   0.00000  Uiso   1.00
C380   C     0.07451   0.44736   0.13669   0.00000  Uiso   1.00
H381   H     0.11344   0.44431   0.12279   0.00000  Uiso   1.00
H382   H     0.06403   0.47771   0.12753   0.00000  Uiso   1.00
H383   H     0.06013   0.42218   0.11417   0.00000  Uiso   1.00
O384   O     0.29631   0.43414   0.20173   0.00000  Uiso   1.00
C385   C     0.29779   0.43406   0.14920   0.00000  Uiso   1.00
H386   H     0.31636   0.40592   0.12791   0.00000  Uiso   1.00
H387   H     0.31527   0.46167   0.13114   0.00000  Uiso   1.00
H388   H     0.26118   0.43093   0.14469   0.00000  Uiso   1.00
O389   O     0.29116   0.46488   0.47599   0.00000  Uiso   1.00
C390   C     0.28281   0.42260   0.48341   0.00000  Uiso   1.00
H391   H     0.30235   0.40345   0.44855   0.00000  Uiso   1.00
H392   H     0.24476   0.41356   0.48911   0.00000  Uiso   1.00
H393   H     0.29596   0.41482   0.01644   0.00000  Uiso   1.00
O394   O     0.04475   0.48233   0.40808   0.00000  Uiso   1.00
C395   C     0.05441   0.43962   0.39788   0.00000  Uiso   1.00
H396   H     0.05111   0.42511   0.43421   0.00000  Uiso   1.00
H397   H     0.09004   0.43303   0.37173   0.00000  Uiso   1.00
H398   H     0.02836   0.42479   0.37805   0.00000  Uiso   1.00
C399   C     0.07362   0.55175   0.06658   0.00000  Uiso   1.00
H400   H     0.03851   0.54560   0.09032   0.00000  Uiso   1.00
O401   O     0.09687   0.58033   0.08073   0.00000  Uiso   1.00
O402   O     0.01218   0.52559   0.00547   0.00000  Uiso   1.00
C403   C     0.00233   0.56480   0.49291   0.00000  Uiso   1.00
H404   H     0.00895   0.56547   0.45058   0.00000  Uiso   1.00
H405   H     0.02316   0.58965   0.00881   0.00000  Uiso   1.00
H406   H     0.29766   0.57164   0.01035   0.00000  Uiso   1.00
O407   O     0.20973   0.56312   0.38452   0.00000  Uiso   1.00
C408   C     0.17849   0.59690   0.40295   0.00000  Uiso   1.00
H409   H     0.18983   0.62224   0.37806   0.00000  Uiso   1.00
H410   H     0.17889   0.60910   0.44297   0.00000  Uiso   1.00
H411   H     0.14185   0.58859   0.40074   0.00000  Uiso   1.00
O412   O     0.24815   0.63093   0.25757   0.00000  Uiso   1.00
C413   C     0.27647   0.62270   0.20653   0.00000  Uiso   1.00
H414   H     0.30691   0.60377   0.20750   0.00000  Uiso   1.00
H415   H     0.29035   0.65172   0.18973   0.00000  Uiso   1.00
H416   H     0.25750   0.60452   0.18057   0.00000  Uiso   1.00
O417   O     0.46042   0.56011   0.25001   0.00000  Uiso   1.00
O418   O     0.53961   0.56012   0.25001   0.00000  Uiso   1.00
C419   C     0.50168   0.57870   0.24607   0.00000  Uiso   1.00
O420   O     0.44108   0.49998   0.32549   0.00000  Uiso   1.00
O421   O     0.52027   0.49999   0.32549   0.00000  Uiso   1.00
C422   C     0.47442   0.50160   0.35007   0.00000  Uiso   1.00
Cu423  Cu    0.45311   0.49999   0.25000   0.00000  Uiso   1.00
Cu424  Cu    0.54689   0.50001   0.25000   0.00000  Uiso   1.00
O425   O     0.46039   0.43988   0.25000   0.00000  Uiso   1.00
O426   O     0.53958   0.43989   0.25000   0.00000  Uiso   1.00
O427   O     0.47973   0.50001   0.17451   0.00000  Uiso   1.00
O428   O     0.55892   0.50002   0.17451   0.00000  Uiso   1.00
C429   C     0.49895   0.42082   0.25079   0.00000  Uiso   1.00
C430   C     0.52475   0.49978   0.15060   0.00000  Uiso   1.00
C431   C     0.58816   0.48781   0.00919   0.00000  Uiso   1.00
H432   H     0.60594   0.47569   0.07822   0.00000  Uiso   1.00
H433   H     0.60663   0.52465   0.42014   0.00000  Uiso   1.00
C434   C     0.53584   0.50079   0.09455   0.00000  Uiso   1.00
C435   C     0.40990   0.50079   0.43367   0.00000  Uiso   1.00
C436   C     0.39310   0.51785   0.48522   0.00000  Uiso   1.00
C437   C     0.42499   0.52771   0.01594   0.00000  Uiso   1.00
C438   C     0.47383   0.52110   0.49322   0.00000  Uiso   1.00
C439   C     0.48877   0.51944   0.43915   0.00000  Uiso   1.00
C440   C     0.50939   0.51507   0.01940   0.00000  Uiso   1.00
C441   C     0.55636   0.50775   0.48915   0.00000  Uiso   1.00
C442   C     0.56979   0.52110   0.43978   0.00000  Uiso   1.00
C443   C     0.53438   0.53354   0.41886   0.00000  Uiso   1.00
C444   C     0.50001   0.51142   0.07224   0.00000  Uiso   1.00
C445   C     0.57951   0.48779   0.06263   0.00000  Uiso   1.00
C446   C     0.45801   0.50691   0.40799   0.00000  Uiso   1.00
H447   H     0.46510   0.51623   0.09667   0.00000  Uiso   1.00
C448   C     0.53942   0.64786   0.25616   0.00000  Uiso   1.00
C449   C     0.53200   0.35706   0.26839   0.00000  Uiso   1.00
C450   C     0.49752   0.37567   0.25057   0.00000  Uiso   1.00
C451   C     0.46654   0.35103   0.22710   0.00000  Uiso   1.00
C452   C     0.47142   0.64122   0.22009   0.00000  Uiso   1.00
C453   C     0.50451   0.62312   0.24026   0.00000  Uiso   1.00
C454   C     0.63605   0.53035   0.27898   0.00000  Uiso   1.00
C455   C     0.35119   0.52704   0.28319   0.00000  Uiso   1.00
N456   N     0.38265   0.49999   0.24999   0.00000  Uiso   1.00
C457   C     0.36481   0.47211   0.21784   0.00000  Uiso   1.00
C458   C     0.64809   0.47022   0.22064   0.00000  Uiso   1.00
N459   N     0.61735   0.50002   0.25000   0.00000  Uiso   1.00
O460   O     0.55074   0.37971   0.30539   0.00000  Uiso   1.00
C461   C     0.60053   0.37943   0.29203   0.00000  Uiso   1.00
H462   H     0.61335   0.40995   0.30555   0.00000  Uiso   1.00
H463   H     0.61594   0.37422   0.24994   0.00000  Uiso   1.00
H464   H     0.61345   0.35599   0.31198   0.00000  Uiso   1.00
O465   O     0.43237   0.36875   0.20950   0.00000  Uiso   1.00
C466   C     0.38970   0.37080   0.24906   0.00000  Uiso   1.00
H467   H     0.36032   0.37073   0.23030   0.00000  Uiso   1.00
H468   H     0.38779   0.39981   0.27490   0.00000  Uiso   1.00
H469   H     0.38365   0.34447   0.27323   0.00000  Uiso   1.00
O470   O     0.45391   0.61780   0.18293   0.00000  Uiso   1.00
C471   C     0.40526   0.60963   0.20134   0.00000  Uiso   1.00
H472   H     0.39404   0.60868   0.24365   0.00000  Uiso   1.00
H473   H     0.39731   0.57872   0.18392   0.00000  Uiso   1.00
H474   H     0.38450   0.63250   0.18877   0.00000  Uiso   1.00
O475   O     0.60540   0.56226   0.30402   0.00000  Uiso   1.00
C476   C     0.62588   0.59753   0.32548   0.00000  Uiso   1.00
H477   H     0.65765   0.60878   0.29825   0.00000  Uiso   1.00
H478   H     0.63118   0.59267   0.36365   0.00000  Uiso   1.00
H479   H     0.60024   0.62294   0.33533   0.00000  Uiso   1.00
C480   C     0.36417   0.54528   0.32995   0.00000  Uiso   1.00
H481   H     0.34608   0.53453   0.36639   0.00000  Uiso   1.00
O482   O     0.39210   0.57398   0.32923   0.00000  Uiso   1.00
O483   O     0.39416   0.44099   0.18946   0.00000  Uiso   1.00
C484   C     0.40784   0.44736   0.13669   0.00000  Uiso   1.00
H485   H     0.44677   0.44431   0.12279   0.00000  Uiso   1.00
H486   H     0.39737   0.47771   0.12753   0.00000  Uiso   1.00
H487   H     0.39346   0.42218   0.11417   0.00000  Uiso   1.00
O488   O     0.62964   0.43414   0.20173   0.00000  Uiso   1.00
C489   C     0.63112   0.43406   0.14920   0.00000  Uiso   1.00
H490   H     0.64969   0.40592   0.12791   0.00000  Uiso   1.00
H491   H     0.64860   0.46167   0.13114   0.00000  Uiso   1.00
H492   H     0.59451   0.43093   0.14469   0.00000  Uiso   1.00
O493   O     0.62449   0.46488   0.47599   0.00000  Uiso   1.00
C494   C     0.61614   0.42260   0.48341   0.00000  Uiso   1.00
H495   H     0.63568   0.40345   0.44855   0.00000  Uiso   1.00
H496   H     0.57809   0.41356   0.48911   0.00000  Uiso   1.00
H497   H     0.62929   0.41482   0.01644   0.00000  Uiso   1.00
O498   O     0.37808   0.48233   0.40808   0.00000  Uiso   1.00
C499   C     0.38774   0.43962   0.39788   0.00000  Uiso   1.00
H500   H     0.38444   0.42511   0.43421   0.00000  Uiso   1.00
H501   H     0.42337   0.43303   0.37173   0.00000  Uiso   1.00
H502   H     0.36169   0.42479   0.37805   0.00000  Uiso   1.00
C503   C     0.40696   0.55175   0.06658   0.00000  Uiso   1.00
H504   H     0.37184   0.54560   0.09032   0.00000  Uiso   1.00
O505   O     0.43020   0.58033   0.08073   0.00000  Uiso   1.00
O506   O     0.34551   0.52559   0.00547   0.00000  Uiso   1.00
C507   C     0.33566   0.56480   0.49291   0.00000  Uiso   1.00
H508   H     0.34229   0.56547   0.45058   0.00000  Uiso   1.00
H509   H     0.35649   0.58965   0.00881   0.00000  Uiso   1.00
H510   H     0.63100   0.57164   0.01035   0.00000  Uiso   1.00
O511   O     0.54307   0.56312   0.38452   0.00000  Uiso   1.00
C512   C     0.51183   0.59690   0.40295   0.00000  Uiso   1.00
H513   H     0.52316   0.62224   0.37806   0.00000  Uiso   1.00
H514   H     0.51223   0.60910   0.44297   0.00000  Uiso   1.00
H515   H     0.47518   0.58859   0.40074   0.00000  Uiso   1.00
O516   O     0.58148   0.63093   0.25757   0.00000  Uiso   1.00
C517   C     0.60980   0.62270   0.20653   0.00000  Uiso   1.00
H518   H     0.64024   0.60377   0.20750   0.00000  Uiso   1.00
H519   H     0.62368   0.65172   0.18973   0.00000  Uiso   1.00
H520   H     0.59084   0.60452   0.18057   0.00000  Uiso   1.00
O521   O     0.79375   0.56011   0.25001   0.00000  Uiso   1.00
O522   O     0.87294   0.56012   0.25001   0.00000  Uiso   1.00
C523   C     0.83501   0.57870   0.24607   0.00000  Uiso   1.00
O524   O     0.77441   0.49998   0.32549   0.00000  Uiso   1.00
O525   O     0.85360   0.49999   0.32549   0.00000  Uiso   1.00
C526   C     0.80775   0.50160   0.35007   0.00000  Uiso   1.00
Cu527  Cu    0.78645   0.49999   0.25000   0.00000  Uiso   1.00
Cu528  Cu    0.88022   0.50001   0.25000   0.00000  Uiso   1.00
O529   O     0.79373   0.43988   0.25000   0.00000  Uiso   1.00
O530   O     0.87292   0.43989   0.25000   0.00000  Uiso   1.00
O531   O     0.81306   0.50001   0.17451   0.00000  Uiso   1.00
O532   O     0.89225   0.50002   0.17451   0.00000  Uiso   1.00
C533   C     0.83228   0.42082   0.25079   0.00000  Uiso   1.00
C534   C     0.85808   0.49978   0.15060   0.00000  Uiso   1.00
C535   C     0.92149   0.48781   0.00919   0.00000  Uiso   1.00
H536   H     0.93927   0.47569   0.07822   0.00000  Uiso   1.00
H537   H     0.93997   0.52465   0.42014   0.00000  Uiso   1.00
C538   C     0.86918   0.50079   0.09455   0.00000  Uiso   1.00
C539   C     0.74323   0.50079   0.43367   0.00000  Uiso   1.00
C540   C     0.72643   0.51785   0.48522   0.00000  Uiso   1.00
C541   C     0.75833   0.52771   0.01594   0.00000  Uiso   1.00
C542   C     0.80717   0.52110   0.49322   0.00000  Uiso   1.00
C543   C     0.82211   0.51944   0.43915   0.00000  Uiso   1.00
C544   C     0.84273   0.51507   0.01940   0.00000  Uiso   1.00
C545   C     0.88970   0.50775   0.48915   0.00000  Uiso   1.00
C546   C     0.90312   0.52110   0.43978   0.00000  Uiso   1.00
C547   C     0.86771   0.53354   0.41886   0.00000  Uiso   1.00
C548   C     0.83335   0.51142   0.07224   0.00000  Uiso   1.00
C549   C     0.91284   0.48779   0.06263   0.00000  Uiso   1.00
C550   C     0.79134   0.50691   0.40799   0.00000  Uiso   1.00
H551   H     0.79844   0.51623   0.09667   0.00000  Uiso   1.00
C552   C     0.87275   0.64786   0.25616   0.00000  Uiso   1.00
C553   C     0.86534   0.35706   0.26839   0.00000  Uiso   1.00
C554   C     0.83086   0.37567   0.25057   0.00000  Uiso   1.00
C555   C     0.79987   0.35103   0.22710   0.00000  Uiso   1.00
C556   C     0.80475   0.64122   0.22009   0.00000  Uiso   1.00
C557   C     0.83785   0.62312   0.24026   0.00000  Uiso   1.00
C558   C     0.96938   0.53035   0.27898   0.00000  Uiso   1.00
C559   C     0.68452   0.52704   0.28319   0.00000  Uiso   1.00
N560   N     0.71598   0.49999   0.24999   0.00000  Uiso   1.00
C561   C     0.69815   0.47211   0.21784   0.00000  Uiso   1.00
C562   C     0.98142   0.47022   0.22064   0.00000  Uiso   1.00
N563   N     0.95069   0.50002   0.25000   0.00000  Uiso   1.00
O564   O     0.88407   0.37971   0.30539   0.00000  Uiso   1.00
C565   C     0.93387   0.37943   0.29203   0.00000  Uiso   1.00
H566   H     0.94669   0.40995   0.30555   0.00000  Uiso   1.00
H567   H     0.94927   0.37422   0.24994   0.00000  Uiso   1.00
H568   H     0.94679   0.35599   0.31198   0.00000  Uiso   1.00
O569   O     0.76570   0.36875   0.20950   0.00000  Uiso   1.00
C570   C     0.72304   0.37080   0.24906   0.00000  Uiso   1.00
H571   H     0.69366   0.37073   0.23030   0.00000  Uiso   1.00
H572   H     0.72112   0.39981   0.27490   0.00000  Uiso   1.00
H573   H     0.71699   0.34447   0.27323   0.00000  Uiso   1.00
O574   O     0.78724   0.61780   0.18293   0.00000  Uiso   1.00
C575   C     0.73860   0.60963   0.20134   0.00000  Uiso   1.00
H576   H     0.72738   0.60868   0.24365   0.00000  Uiso   1.00
H577   H     0.73064   0.57872   0.18392   0.00000  Uiso   1.00
H578   H     0.71783   0.63250   0.18877   0.00000  Uiso   1.00
O579   O     0.93873   0.56226   0.30402   0.00000  Uiso   1.00
C580   C     0.95921   0.59753   0.32548   0.00000  Uiso   1.00
H581   H     0.99099   0.60878   0.29825   0.00000  Uiso   1.00
H582   H     0.96451   0.59267   0.36365   0.00000  Uiso   1.00
H583   H     0.93357   0.62294   0.33533   0.00000  Uiso   1.00
C584   C     0.69750   0.54528   0.32995   0.00000  Uiso   1.00
H585   H     0.67941   0.53453   0.36639   0.00000  Uiso   1.00
O586   O     0.72543   0.57398   0.32923   0.00000  Uiso   1.00
O587   O     0.72749   0.44099   0.18946   0.00000  Uiso   1.00
C588   C     0.74118   0.44736   0.13669   0.00000  Uiso   1.00
H589   H     0.78011   0.44431   0.12279   0.00000  Uiso   1.00
H590   H     0.73070   0.47771   0.12753   0.00000  Uiso   1.00
H591   H     0.72680   0.42218   0.11417   0.00000  Uiso   1.00
O592   O     0.96298   0.43414   0.20173   0.00000  Uiso   1.00
C593   C     0.96446   0.43406   0.14920   0.00000  Uiso   1.00
H594   H     0.98303   0.40592   0.12791   0.00000  Uiso   1.00
H595   H     0.98194   0.46167   0.13114   0.00000  Uiso   1.00
H596   H     0.92784   0.43093   0.14469   0.00000  Uiso   1.00
O597   O     0.95782   0.46488   0.47599   0.00000  Uiso   1.00
C598   C     0.94948   0.42260   0.48341   0.00000  Uiso   1.00
H599   H     0.96902   0.40345   0.44855   0.00000  Uiso   1.00
H600   H     0.91142   0.41356   0.48911   0.00000  Uiso   1.00
H601   H     0.96263   0.41482   0.01644   0.00000  Uiso   1.00
O602   O     0.71141   0.48233   0.40808   0.00000  Uiso   1.00
C603   C     0.72108   0.43962   0.39788   0.00000  Uiso   1.00
H604   H     0.71777   0.42511   0.43421   0.00000  Uiso   1.00
H605   H     0.75671   0.43303   0.37173   0.00000  Uiso   1.00
H606   H     0.69502   0.42479   0.37805   0.00000  Uiso   1.00
C607   C     0.74029   0.55175   0.06658   0.00000  Uiso   1.00
H608   H     0.70518   0.54560   0.09032   0.00000  Uiso   1.00
O609   O     0.76354   0.58033   0.08073   0.00000  Uiso   1.00
O610   O     0.67885   0.52559   0.00547   0.00000  Uiso   1.00
C611   C     0.66899   0.56480   0.49291   0.00000  Uiso   1.00
H612   H     0.67562   0.56547   0.45058   0.00000  Uiso   1.00
H613   H     0.68983   0.58965   0.00881   0.00000  Uiso   1.00
H614   H     0.96433   0.57164   0.01035   0.00000  Uiso   1.00
O615   O     0.87640   0.56312   0.38452   0.00000  Uiso   1.00
C616   C     0.84516   0.59690   0.40295   0.00000  Uiso   1.00
H617   H     0.85649   0.62224   0.37806   0.00000  Uiso   1.00
H618   H     0.84556   0.60910   0.44297   0.00000  Uiso   1.00
H619   H     0.80852   0.58859   0.40074   0.00000  Uiso   1.00
O620   O     0.91482   0.63093   0.25757   0.00000  Uiso   1.00
C621   C     0.94314   0.62270   0.20653   0.00000  Uiso   1.00
H622   H     0.97358   0.60377   0.20750   0.00000  Uiso   1.00
H623   H     0.95701   0.65172   0.18973   0.00000  Uiso   1.00
H624   H     0.92417   0.60452   0.18057   0.00000  Uiso   1.00
O625   O     0.12708   0.89345   0.25001   0.00000  Uiso   1.00
O626   O     0.20627   0.89346   0.25001   0.00000  Uiso   1.00
C627   C     0.16834   0.91204   0.24607   0.00000  Uiso   1.00
O628   O     0.10775   0.83332   0.32549   0.00000  Uiso   1.00
O629   O     0.18694   0.83333   0.32549   0.00000  Uiso   1.00
C630   C     0.14108   0.83493   0.35007   0.00000  Uiso   1.00
Cu631  Cu    0.11978   0.83333   0.25000   0.00000  Uiso   1.00
Cu632  Cu    0.21355   0.83334   0.25000   0.00000  Uiso   1.00
O633   O     0.12706   0.77321   0.25000   0.00000  Uiso   1.00
O634   O     0.20625   0.77322   0.25000   0.00000  Uiso   1.00
O635   O     0.14640   0.83334   0.17451   0.00000  Uiso   1.00
O636   O     0.22559   0.83335   0.17451   0.00000  Uiso   1.00
C637   C     0.16561   0.75416   0.25079   0.00000  Uiso   1.00
C638   C     0.19142   0.83312   0.15060   0.00000  Uiso   1.00
C639   C     0.25483   0.82114   0.00919   0.00000  Uiso   1.00
H640   H     0.27261   0.80902   0.07822   0.00000  Uiso   1.00
H641   H     0.27330   0.85798   0.42014   0.00000  Uiso   1.00
C642   C     0.20251   0.83412   0.09455   0.00000  Uiso   1.00
C643   C     0.07656   0.83412   0.43367   0.00000  Uiso   1.00
C644   C     0.05976   0.85118   0.48522   0.00000  Uiso   1.00
C645   C     0.09166   0.86104   0.01594   0.00000  Uiso   1.00
C646   C     0.14050   0.85444   0.49322   0.00000  Uiso   1.00
C647   C     0.15544   0.85277   0.43915   0.00000  Uiso   1.00
C648   C     0.17606   0.84841   0.01940   0.00000  Uiso   1.00
C649   C     0.22303   0.84108   0.48915   0.00000  Uiso   1.00
C650   C     0.23645   0.85444   0.43978   0.00000  Uiso   1.00
C651   C     0.20104   0.86688   0.41886   0.00000  Uiso   1.00
C652   C     0.16668   0.84476   0.07224   0.00000  Uiso   1.00
C653   C     0.24618   0.82113   0.06263   0.00000  Uiso   1.00
C654   C     0.12468   0.84024   0.40799   0.00000  Uiso   1.00
H655   H     0.13177   0.84956   0.09667   0.00000  Uiso   1.00
C656   C     0.20609   0.98119   0.25616   0.00000  Uiso   1.00
C657   C     0.19867   0.69040   0.26839   0.00000  Uiso   1.00
C658   C     0.16419   0.70901   0.25057   0.00000  Uiso   1.00
C659   C     0.13320   0.68436   0.22710   0.00000  Uiso   1.00
C660   C     0.13808   0.97455   0.22009   0.00000  Uiso   1.00
C661   C     0.17118   0.95646   0.24026   0.00000  Uiso   1.00
C662   C     0.30271   0.86368   0.27898   0.00000  Uiso   1.00
C663   C     0.01786   0.86037   0.28319   0.00000  Uiso   1.00
N664   N     0.04931   0.83332   0.24999   0.00000  Uiso   1.00
C665   C     0.03148   0.80545   0.21784   0.00000  Uiso   1.00
C666   C     0.31476   0.80356   0.22064   0.00000  Uiso   1.00
N667   N     0.28402   0.83335   0.25000   0.00000  Uiso   1.00
O668   O     0.21741   0.71305   0.30539   0.00000  Uiso   1.00
C669   C     0.26720   0.71277   0.29203   0.00000  Uiso   1.00
H670   H     0.28002   0.74328   0.30555   0.00000  Uiso   1.00
H671   H     0.28260   0.70755   0.24994   0.00000  Uiso   1.00
H672   H     0.28012   0.68932   0.31198   0.00000  Uiso   1.00
O673   O     0.09903   0.70208   0.20950   0.00000  Uiso   1.00
C674   C     0.05637   0.70413   0.24906   0.00000  Uiso   1.00
H675   H     0.02699   0.70406   0.23030   0.00000  Uiso   1.00
H676   H     0.05446   0.73315   0.27490   0.00000  Uiso   1.00
H677   H     0.05032   0.67781   0.27323   0.00000  Uiso   1.00
O678   O     0.12057   0.95113   0.18293   0.00000  Uiso   1.00
C679   C     0.07193   0.94296   0.20134   0.00000  Uiso   1.00
H680   H     0.06071   0.94202   0.24365   0.00000  Uiso   1.00
H681   H     0.06397   0.91205   0.18392   0.00000  Uiso   1.00
H682   H     0.05116   0.96583   0.18877   0.00000  Uiso   1.00
O683   O     0.27206   0.89560   0.30402   0.00000  Uiso   1.00
C684   C     0.29255   0.93087   0.32548   0.00000  Uiso   1.00
H685   H     0.32432   0.94211   0.29825   0.00000  Uiso   1.00
H686   H     0.29784   0.92601   0.36365   0.00000  Uiso   1.00
H687   H     0.26691   0.95627   0.33533   0.00000  Uiso   1.00
C688   C     0.03083   0.87861   0.32995   0.00000  Uiso   1.00
H689   H     0.01275   0.86786   0.36639   0.00000  Uiso   1.00
O690   O     0.05876   0.90731   0.32923   0.00000  Uiso   1.00
O691   O     0.06082   0.77432   0.18946   0.00000  Uiso   1.00
C692   C     0.07451   0.78069   0.13669   0.00000  Uiso   1.00
H693   H     0.11344   0.77764   0.12279   0.00000  Uiso   1.00
H694   H     0.06403   0.81105   0.12753   0.00000  Uiso   1.00
H695   H     0.06013   0.75551   0.11417   0.00000  Uiso   1.00
O696   O     0.29631   0.76747   0.20173   0.00000  Uiso   1.00
C697   C     0.29779   0.76739   0.14920   0.00000  Uiso   1.00
H698   H     0.31636   0.73925   0.12791   0.00000  Uiso   1.00
H699   H     0.31527   0.79500   0.13114   0.00000  Uiso   1.00
H700   H     0.26118   0.76427   0.14469   0.00000  Uiso   1.00
O701   O     0.29116   0.79821   0.47599   0.00000  Uiso   1.00
C702   C     0.28281   0.75594   0.48341   0.00000  Uiso   1.00
H703   H     0.30235   0.73679   0.44855   0.00000  Uiso   1.00
H704   H     0.24476   0.74690   0.48911   0.00000  Uiso   1.00
H705   H     0.29596   0.74816   0.01644   0.00000  Uiso   1.00
O706   O     0.04475   0.81567   0.40808   0.00000  Uiso   1.00
C707   C     0.05441   0.77295   0.39788   0.00000  Uiso   1.00
H708   H     0.05111   0.75844   0.43421   0.00000  Uiso   1.00
H709   H     0.09004   0.76637   0.37173   0.00000  Uiso   1.00
H710   H     0.02836   0.75812   0.37805   0.00000  Uiso   1.00
C711   C     0.07362   0.88508   0.06658   0.00000  Uiso   1.00
H712   H     0.03851   0.87894   0.09032   0.00000  Uiso   1.00
O713   O     0.09687   0.91367   0.08073   0.00000  Uiso   1.00
O714   O     0.01218   0.85893   0.00547   0.00000  Uiso   1.00
C715   C     0.00233   0.89813   0.49291   0.00000  Uiso   1.00
H716   H     0.00895   0.89881   0.45058   0.00000  Uiso   1.00
H717   H     0.02316   0.92298   0.00881   0.00000  Uiso   1.00
H718   H     0.29766   0.90497   0.01035   0.00000  Uiso   1.00
O719   O     0.20973   0.89645   0.38452   0.00000  Uiso   1.00
C720   C     0.17849   0.93023   0.40295   0.00000  Uiso   1.00
H721   H     0.18983   0.95558   0.37806   0.00000  Uiso   1.00
H722   H     0.17889   0.94244   0.44297   0.00000  Uiso   1.00
H723   H     0.14185   0.92192   0.40074   0.00000  Uiso   1.00
O724   O     0.24815   0.96426   0.25757   0.00000  Uiso   1.00
C725   C     0.27647   0.95603   0.20653   0.00000  Uiso   1.00
H726   H     0.30691   0.93711   0.20750   0.00000  Uiso   1.00
H727   H     0.29035   0.98505   0.18973   0.00000  Uiso   1.00
H728   H     0.25750   0.93785   0.18057   0.00000  Uiso   1.00
O729   O     0.46042   0.89345   0.25001   0.00000  Uiso   1.00
O730   O     0.53961   0.89346   0.25001   0.00000  Uiso   1.00
C731   C     0.50168   0.91204   0.24607   0.00000  Uiso   1.00
O732   O     0.44108   0.83332   0.32549   0.00000  Uiso   1.00
O733   O     0.52027   0.83333   0.32549   0.00000  Uiso   1.00
C734   C     0.47442   0.83493   0.35007   0.00000  Uiso   1.00
Cu735  Cu    0.45311   0.83333   0.25000   0.00000  Uiso   1.00
Cu736  Cu    0.54689   0.83334   0.25000   0.00000  Uiso   1.00
O737   O     0.46039   0.77321   0.25000   0.00000  Uiso   1.00
O738   O     0.53958   0.77322   0.25000   0.00000  Uiso   1.00
O739   O     0.47973   0.83334   0.17451   0.00000  Uiso   1.00
O740   O     0.55892   0.83335   0.17451   0.00000  Uiso   1.00
C741   C     0.49895   0.75416   0.25079   0.00000  Uiso   1.00
C742   C     0.52475   0.83312   0.15060   0.00000  Uiso   1.00
C743   C     0.58816   0.82114   0.00919   0.00000  Uiso   1.00
H744   H     0.60594   0.80902   0.07822   0.00000  Uiso   1.00
H745   H     0.60663   0.85798   0.42014   0.00000  Uiso   1.00
C746   C     0.53584   0.83412   0.09455   0.00000  Uiso   1.00
C747   C     0.40990   0.83412   0.43367   0.00000  Uiso   1.00
C748   C     0.39310   0.85118   0.48522   0.00000  Uiso   1.00
C749   C     0.42499   0.86104   0.01594   0.00000  Uiso   1.00
C750   C     0.47383   0.85444   0.49322   0.00000  Uiso   1.00
C751   C     0.48877   0.85277   0.43915   0.00000  Uiso   1.00
C752   C     0.50939   0.84841   0.01940   0.00000  Uiso   1.00
C753   C     0.55636   0.84108   0.48915   0.00000  Uiso   1.00
C754   C     0.56979   0.85444   0.43978   0.00000  Uiso   1.00
C755   C     0.53438   0.86688   0.41886   0.00000  Uiso   1.00
C756   C     0.50001   0.84476   0.07224   0.00000  Uiso   1.00
C757   C     0.57951   0.82113   0.06263   0.00000  Uiso   1.00
C758   C     0.45801   0.84024   0.40799   0.00000  Uiso   1.00
H759   H     0.46510   0.84956   0.09667   0.00000  Uiso   1.00
C760   C     0.53942   0.98119   0.25616   0.00000  Uiso   1.00
C761   C     0.53200   0.69040   0.26839   0.00000  Uiso   1.00
C762   C     0.49752   0.70901   0.25057   0.00000  Uiso   1.00
C763   C     0.46654   0.68436   0.22710   0.00000  Uiso   1.00
C764   C     0.47142   0.97455   0.22009   0.00000  Uiso   1.00
C765   C     0.50451   0.95646   0.24026   0.00000  Uiso   1.00
C766   C     0.63605   0.86368   0.27898   0.00000  Uiso   1.00
C767   C     0.35119   0.86037   0.28319   0.00000  Uiso   1.00
N768   N     0.38265   0.83332   0.24999   0.00000  Uiso   1.00
C769   C     0.36481   0.80545   0.21784   0.00000  Uiso   1.00
C770   C     0.64809   0.80356   0.22064   0.00000  Uiso   1.00
N771   N     0.61735   0.83335   0.25000   0.00000  Uiso   1.00
O772   O     0.55074   0.71305   0.30539   0.00000  Uiso   1.00
C773   C     0.60053   0.71277   0.29203   0.00000  Uiso   1.00
H774   H     0.61335   0.74328   0.30555   0.00000  Uiso   1.00
H775   H     0.61594   0.70755   0.24994   0.00000  Uiso   1.00
H776   H     0.61345   0.68932   0.31198   0.00000  Uiso   1.00
O777   O     0.43237   0.70208   0.20950   0.00000  Uiso   1.00
C778   C     0.38970   0.70413   0.24906   0.00000  Uiso   1.00
H779   H     0.36032   0.70406   0.23030   0.00000  Uiso   1.00
H780   H     0.38779   0.73315   0.27490   0.00000  Uiso   1.00
H781   H     0.38365   0.67781   0.27323   0.00000  Uiso   1.00
O782   O     0.45391   0.95113   0.18293   0.00000  Uiso   1.00
C783   C     0.40526   0.94296   0.20134   0.00000  Uiso   1.00
H784   H     0.39404   0.94202   0.24365   0.00000  Uiso   1.00
H785   H     0.39731   0.91205   0.18392   0.00000  Uiso   1.00
H786   H     0.38450   0.96583   0.18877   0.00000  Uiso   1.00
O787   O     0.60540   0.89560   0.30402   0.00000  Uiso   1.00
C788   C     0.62588   0.93087   0.32548   0.00000  Uiso   1.00
H789   H     0.65765   0.94211   0.29825   0.00000  Uiso   1.00
H790   H     0.63118   0.92601   0.36365   0.00000  Uiso   1.00
H791   H     0.60024   0.95627   0.33533   0.00000  Uiso   1.00
C792   C     0.36417   0.87861   0.32995   0.00000  Uiso   1.00
H793   H     0.34608   0.86786   0.36639   0.00000  Uiso   1.00
O794   O     0.39210   0.90731   0.32923   0.00000  Uiso   1.00
O795   O     0.39416   0.77432   0.18946   0.00000  Uiso   1.00
C796   C     0.40784   0.78069   0.13669   0.00000  Uiso   1.00
H797   H     0.44677   0.77764   0.12279   0.00000  Uiso   1.00
H798   H     0.39737   0.81105   0.12753   0.00000  Uiso   1.00
H799   H     0.39346   0.75551   0.11417   0.00000  Uiso   1.00
O800   O     0.62964   0.76747   0.20173   0.00000  Uiso   1.00
C801   C     0.63112   0.76739   0.14920   0.00000  Uiso   1.00
H802   H     0.64969   0.73925   0.12791   0.00000  Uiso   1.00
H803   H     0.64860   0.79500   0.13114   0.00000  Uiso   1.00
H804   H     0.59451   0.76427   0.14469   0.00000  Uiso   1.00
O805   O     0.62449   0.79821   0.47599   0.00000  Uiso   1.00
C806   C     0.61614   0.75594   0.48341   0.00000  Uiso   1.00
H807   H     0.63568   0.73679   0.44855   0.00000  Uiso   1.00
H808   H     0.57809   0.74690   0.48911   0.00000  Uiso   1.00
H809   H     0.62929   0.74816   0.01644   0.00000  Uiso   1.00
O810   O     0.37808   0.81567   0.40808   0.00000  Uiso   1.00
C811   C     0.38774   0.77295   0.39788   0.00000  Uiso   1.00
H812   H     0.38444   0.75844   0.43421   0.00000  Uiso   1.00
H813   H     0.42337   0.76637   0.37173   0.00000  Uiso   1.00
H814   H     0.36169   0.75812   0.37805   0.00000  Uiso   1.00
C815   C     0.40696   0.88508   0.06658   0.00000  Uiso   1.00
H816   H     0.37184   0.87894   0.09032   0.00000  Uiso   1.00
O817   O     0.43020   0.91367   0.08073   0.00000  Uiso   1.00
O818   O     0.34551   0.85893   0.00547   0.00000  Uiso   1.00
C819   C     0.33566   0.89813   0.49291   0.00000  Uiso   1.00
H820   H     0.34229   0.89881   0.45058   0.00000  Uiso   1.00
H821   H     0.35649   0.92298   0.00881   0.00000  Uiso   1.00
H822   H     0.63100   0.90497   0.01035   0.00000  Uiso   1.00
O823   O     0.54307   0.89645   0.38452   0.00000  Uiso   1.00
C824   C     0.51183   0.93023   0.40295   0.00000  Uiso   1.00
H825   H     0.52316   0.95558   0.37806   0.00000  Uiso   1.00
H826   H     0.51223   0.94244   0.44297   0.00000  Uiso   1.00
H827   H     0.47518   0.92192   0.40074   0.00000  Uiso   1.00
O828   O     0.58148   0.96426   0.25757   0.00000  Uiso   1.00
C829   C     0.60980   0.95603   0.20653   0.00000  Uiso   1.00
H830   H     0.64024   0.93711   0.20750   0.00000  Uiso   1.00
H831   H     0.62368   0.98505   0.18973   0.00000  Uiso   1.00
H832   H     0.59084   0.93785   0.18057   0.00000  Uiso   1.00
O833   O     0.79375   0.89345   0.25001   0.00000  Uiso   1.00
O834   O     0.87294   0.89346   0.25001   0.00000  Uiso   1.00
C835   C     0.83501   0.91204   0.24607   0.00000  Uiso   1.00
O836   O     0.77441   0.83332   0.32549   0.00000  Uiso   1.00
O837   O     0.85360   0.83333   0.32549   0.00000  Uiso   1.00
C838   C     0.80775   0.83493   0.35007   0.00000  Uiso   1.00
Cu839  Cu    0.78645   0.83333   0.25000   0.00000  Uiso   1.00
Cu840  Cu    0.88022   0.83334   0.25000   0.00000  Uiso   1.00
O841   O     0.79373   0.77321   0.25000   0.00000  Uiso   1.00
O842   O     0.87292   0.77322   0.25000   0.00000  Uiso   1.00
O843   O     0.81306   0.83334   0.17451   0.00000  Uiso   1.00
O844   O     0.89225   0.83335   0.17451   0.00000  Uiso   1.00
C845   C     0.83228   0.75416   0.25079   0.00000  Uiso   1.00
C846   C     0.85808   0.83312   0.15060   0.00000  Uiso   1.00
C847   C     0.92149   0.82114   0.00919   0.00000  Uiso   1.00
H848   H     0.93927   0.80902   0.07822   0.00000  Uiso   1.00
H849   H     0.93997   0.85798   0.42014   0.00000  Uiso   1.00
C850   C     0.86918   0.83412   0.09455   0.00000  Uiso   1.00
C851   C     0.74323   0.83412   0.43367   0.00000  Uiso   1.00
C852   C     0.72643   0.85118   0.48522   0.00000  Uiso   1.00
C853   C     0.75833   0.86104   0.01594   0.00000  Uiso   1.00
C854   C     0.80717   0.85444   0.49322   0.00000  Uiso   1.00
C855   C     0.82211   0.85277   0.43915   0.00000  Uiso   1.00
C856   C     0.84273   0.84841   0.01940   0.00000  Uiso   1.00
C857   C     0.88970   0.84108   0.48915   0.00000  Uiso   1.00
C858   C     0.90312   0.85444   0.43978   0.00000  Uiso   1.00
C859   C     0.86771   0.86688   0.41886   0.00000  Uiso   1.00
C860   C     0.83335   0.84476   0.07224   0.00000  Uiso   1.00
C861   C     0.91284   0.82113   0.06263   0.00000  Uiso   1.00
C862   C     0.79134   0.84024   0.40799   0.00000  Uiso   1.00
H863   H     0.79844   0.84956   0.09667   0.00000  Uiso   1.00
C864   C     0.87275   0.98119   0.25616   0.00000  Uiso   1.00
C865   C     0.86534   0.69040   0.26839   0.00000  Uiso   1.00
C866   C     0.83086   0.70901   0.25057   0.00000  Uiso   1.00
C867   C     0.79987   0.68436   0.22710   0.00000  Uiso   1.00
C868   C     0.80475   0.97455   0.22009   0.00000  Uiso   1.00
C869   C     0.83785   0.95646   0.24026   0.00000  Uiso   1.00
C870   C     0.96938   0.86368   0.27898   0.00000  Uiso   1.00
C871   C     0.68452   0.86037   0.28319   0.00000  Uiso   1.00
N872   N     0.71598   0.83332   0.24999   0.00000  Uiso   1.00
C873   C     0.69815   0.80545   0.21784   0.00000  Uiso   1.00
C874   C     0.98142   0.80356   0.22064   0.00000  Uiso   1.00
N875   N     0.95069   0.83335   0.25000   0.00000  Uiso   1.00
O876   O     0.88407   0.71305   0.30539   0.00000  Uiso   1.00
C877   C     0.93387   0.71277   0.29203   0.00000  Uiso   1.00
H878   H     0.94669   0.74328   0.30555   0.00000  Uiso   1.00
H879   H     0.94927   0.70755   0.24994   0.00000  Uiso   1.00
H880   H     0.94679   0.68932   0.31198   0.00000  Uiso   1.00
O881   O     0.76570   0.70208   0.20950   0.00000  Uiso   1.00
C882   C     0.72304   0.70413   0.24906   0.00000  Uiso   1.00
H883   H     0.69366   0.70406   0.23030   0.00000  Uiso   1.00
H884   H     0.72112   0.73315   0.27490   0.00000  Uiso   1.00
H885   H     0.71699   0.67781   0.27323   0.00000  Uiso   1.00
O886   O     0.78724   0.95113   0.18293   0.00000  Uiso   1.00
C887   C     0.73860   0.94296   0.20134   0.00000  Uiso   1.00
H888   H     0.72738   0.94202   0.24365   0.00000  Uiso   1.00
H889   H     0.73064   0.91205   0.18392   0.00000  Uiso   1.00
H890   H     0.71783   0.96583   0.18877   0.00000  Uiso   1.00
O891   O     0.93873   0.89560   0.30402   0.00000  Uiso   1.00
C892   C     0.95921   0.93087   0.32548   0.00000  Uiso   1.00
H893   H     0.99099   0.94211   0.29825   0.00000  Uiso   1.00
H894   H     0.96451   0.92601   0.36365   0.00000  Uiso   1.00
H895   H     0.93357   0.95627   0.33533   0.00000  Uiso   1.00
C896   C     0.69750   0.87861   0.32995   0.00000  Uiso   1.00
H897   H     0.67941   0.86786   0.36639   0.00000  Uiso   1.00
O898   O     0.72543   0.90731   0.32923   0.00000  Uiso   1.00
O899   O     0.72749   0.77432   0.18946   0.00000  Uiso   1.00
C900   C     0.74118   0.78069   0.13669   0.00000  Uiso   1.00
H901   H     0.78011   0.77764   0.12279   0.00000  Uiso   1.00
H902   H     0.73070   0.81105   0.12753   0.00000  Uiso   1.00
H903   H     0.72680   0.75551   0.11417   0.00000  Uiso   1.00
O904   O     0.96298   0.76747   0.20173   0.00000  Uiso   1.00
C905   C     0.96446   0.76739   0.14920   0.00000  Uiso   1.00
H906   H     0.98303   0.73925   0.12791   0.00000  Uiso   1.00
H907   H     0.98194   0.79500   0.13114   0.00000  Uiso   1.00
H908   H     0.92784   0.76427   0.14469   0.00000  Uiso   1.00
O909   O     0.95782   0.79821   0.47599   0.00000  Uiso   1.00
C910   C     0.94948   0.75594   0.48341   0.00000  Uiso   1.00
H911   H     0.96902   0.73679   0.44855   0.00000  Uiso   1.00
H912   H     0.91142   0.74690   0.48911   0.00000  Uiso   1.00
H913   H     0.96263   0.74816   0.01644   0.00000  Uiso   1.00
O914   O     0.71141   0.81567   0.40808   0.00000  Uiso   1.00
C915   C     0.72108   0.77295   0.39788   0.00000  Uiso   1.00
H916   H     0.71777   0.75844   0.43421   0.00000  Uiso   1.00
H917   H     0.75671   0.76637   0.37173   0.00000  Uiso   1.00
H918   H     0.69502   0.75812   0.37805   0.00000  Uiso   1.00
C919   C     0.74029   0.88508   0.06658   0.00000  Uiso   1.00
H920   H     0.70518   0.87894   0.09032   0.00000  Uiso   1.00
O921   O     0.76354   0.91367   0.08073   0.00000  Uiso   1.00
O922   O     0.67885   0.85893   0.00547   0.00000  Uiso   1.00
C923   C     0.66899   0.89813   0.49291   0.00000  Uiso   1.00
H924   H     0.67562   0.89881   0.45058   0.00000  Uiso   1.00
H925   H     0.68983   0.92298   0.00881   0.00000  Uiso   1.00
H926   H     0.96433   0.90497   0.01035   0.00000  Uiso   1.00
O927   O     0.87640   0.89645   0.38452   0.00000  Uiso   1.00
C928   C     0.84516   0.93023   0.40295   0.00000  Uiso   1.00
H929   H     0.85649   0.95558   0.37806   0.00000  Uiso   1.00
H930   H     0.84556   0.94244   0.44297   0.00000  Uiso   1.00
H931   H     0.80852   0.92192   0.40074   0.00000  Uiso   1.00
O932   O     0.91482   0.96426   0.25757   0.00000  Uiso   1.00
C933   C     0.94314   0.95603   0.20653   0.00000  Uiso   1.00
H934   H     0.97358   0.93711   0.20750   0.00000  Uiso   1.00
H935   H     0.95701   0.98505   0.18973   0.00000  Uiso   1.00
H936   H     0.92417   0.93785   0.18057   0.00000  Uiso   1.00
O937   O     0.12708   0.22678   0.75001   0.00000  Uiso   1.00
O938   O     0.20627   0.22679   0.75001   0.00000  Uiso   1.00
C939   C     0.16834   0.24537   0.74607   0.00000  Uiso   1.00
O940   O     0.10775   0.16665   0.82549   0.00000  Uiso   1.00
O941   O     0.18694   0.16666   0.82549   0.00000  Uiso   1.00
C942   C     0.14108   0.16827   0.85007   0.00000  Uiso   1.00
Cu943  Cu    0.11978   0.16666   0.75000   0.00000  Uiso   1.00
Cu944  Cu    0.21355   0.16667   0.75000   0.00000  Uiso   1.00
O945   O     0.12706   0.10654   0.75000   0.00000  Uiso   1.00
O946   O     0.20625   0.10655   0.75000   0.00000  Uiso   1.00
O947   O     0.14640   0.16667   0.67451   0.00000  Uiso   1.00
O948   O     0.22559   0.16668   0.67451   0.00000  Uiso   1.00
C949   C     0.16561   0.08749   0.75079   0.00000  Uiso   1.00
C950   C     0.19142   0.16645   0.65060   0.00000  Uiso   1.00
C951   C     0.25483   0.15448   0.50919   0.00000  Uiso   1.00
H952   H     0.27261   0.14236   0.57822   0.00000  Uiso   1.00
H953   H     0.27330   0.19132   0.92014   0.00000  Uiso   1.00
C954   C     0.20251   0.16746   0.59455   0.00000  Uiso   1.00
C955   C     0.07656   0.16746   0.93367   0.00000  Uiso   1.00
C956   C     0.05976   0.18452   0.98522   0.00000  Uiso   1.00
C957   C     0.09166   0.19437   0.51594   0.00000  Uiso   1.00
C958   C     0.14050   0.18777   0.99322   0.00000  Uiso   1.00
C959   C     0.15544   0.18611   0.93915   0.00000  Uiso   1.00
C960   C     0.17606   0.18174   0.51940   0.00000  Uiso   1.00
C961   C     0.22303   0.17442   0.98915   0.00000  Uiso   1.00
C962   C     0.23645   0.18777   0.93978   0.00000  Uiso   1.00
C963   C     0.20104   0.20021   0.91886   0.00000  Uiso   1.00
C964   C     0.16668   0.17809   0.57224   0.00000  Uiso   1.00
C965   C     0.24618   0.15446   0.56263   0.00000  Uiso   1.00
C966   C     0.12468   0.17357   0.90799   0.00000  Uiso   1.00
H967   H     0.13177   0.18290   0.59667   0.00000  Uiso   1.00
C968   C     0.20609   0.31452   0.75616   0.00000  Uiso   1.00
C969   C     0.19867   0.02373   0.76839   0.00000  Uiso   1.00
C970   C     0.16419   0.04234   0.75057   0.00000  Uiso   1.00
C971   C     0.13320   0.01769   0.72710   0.00000  Uiso   1.00
C972   C     0.13808   0.30788   0.72009   0.00000  Uiso   1.00
C973   C     0.17118   0.28979   0.74026   0.00000  Uiso   1.00
C974   C     0.30271   0.19702   0.77898   0.00000  Uiso   1.00
C975   C     0.01786   0.19370   0.78319   0.00000  Uiso   1.00
N976   N     0.04931   0.16666   0.74999   0.00000  Uiso   1.00
C977   C     0.03148   0.13878   0.71784   0.00000  Uiso   1.00
C978   C     0.31476   0.13689   0.72064   0.00000  Uiso   1.00
N979   N     0.28402   0.16669   0.75000   0.00000  Uiso   1.00
O980   O     0.21741   0.04638   0.80539   0.00000  Uiso   1.00
C981   C     0.26720   0.04610   0.79203   0.00000  Uiso   1.00
H982   H     0.28002   0.07662   0.80555   0.00000  Uiso   1.00
H983   H     0.28260   0.04088   0.74994   0.00000  Uiso   1.00
H984   H     0.28012   0.02266   0.81198   0.00000  Uiso   1.00
O985   O     0.09903   0.03542   0.70950   0.00000  Uiso   1.00
C986   C     0.05637   0.03746   0.74906   0.00000  Uiso   1.00
H987   H     0.02699   0.03740   0.73030   0.00000  Uiso   1.00
H988   H     0.05446   0.06648   0.77490   0.00000  Uiso   1.00
H989   H     0.05032   0.01114   0.77323   0.00000  Uiso   1.00
O990   O     0.12057   0.28446   0.68293   0.00000  Uiso   1.00
C991   C     0.07193   0.27629   0.70134   0.00000  Uiso   1.00
H992   H     0.06071   0.27535   0.74365   0.00000  Uiso   1.00
H993   H     0.06397   0.24538   0.68392   0.00000  Uiso   1.00
H994   H     0.05116   0.29916   0.68877   0.00000  Uiso   1.00
O995   O     0.27206   0.22893   0.80402   0.00000  Uiso   1.00
C996   C     0.29255   0.26420   0.82548   0.00000  Uiso   1.00
H997   H     0.32432   0.27544   0.79825   0.00000  Uiso   1.00
H998   H     0.29784   0.25934   0.86365   0.00000  Uiso   1.00
H999   H     0.26691   0.28961   0.83533   0.00000  Uiso   1.00
C1000  C     0.03083   0.21194   0.82995   0.00000  Uiso   1.00
H1001  H     0.01275   0.20120   0.86639   0.00000  Uiso   1.00
O1002  O     0.05876   0.24064   0.82923   0.00000  Uiso   1.00
O1003  O     0.06082   0.10766   0.68946   0.00000  Uiso   1.00
C1004  C     0.07451   0.11403   0.63669   0.00000  Uiso   1.00
H1005  H     0.11344   0.11097   0.62279   0.00000  Uiso   1.00
H1006  H     0.06403   0.14438   0.62753   0.00000  Uiso   1.00
H1007  H     0.06013   0.08885   0.61417   0.00000  Uiso   1.00
O1008  O     0.29631   0.10080   0.70173   0.00000  Uiso   1.00
C1009  C     0.29779   0.10072   0.64920   0.00000  Uiso   1.00
H1010  H     0.31636   0.07258   0.62791   0.00000  Uiso   1.00
H1011  H     0.31527   0.12834   0.63114   0.00000  Uiso   1.00
H1012  H     0.26118   0.09760   0.64469   0.00000  Uiso   1.00
O1013  O     0.29116   0.13154   0.97599   0.00000  Uiso   1.00
C1014  C     0.28281   0.08927   0.98341   0.00000  Uiso   1.00
H1015  H     0.30235   0.07012   0.94855   0.00000  Uiso   1.00
H1016  H     0.24476   0.08023   0.98911   0.00000  Uiso   1.00
H1017  H     0.29596   0.08149   0.51644   0.00000  Uiso   1.00
O1018  O     0.04475   0.14900   0.90808   0.00000  Uiso   1.00
C1019  C     0.05441   0.10628   0.89788   0.00000  Uiso   1.00
H1020  H     0.05111   0.09178   0.93421   0.00000  Uiso   1.00
H1021  H     0.09004   0.09970   0.87173   0.00000  Uiso   1.00
H1022  H     0.02836   0.09146   0.87805   0.00000  Uiso   1.00
C1023  C     0.07362   0.21841   0.56658   0.00000  Uiso   1.00
H1024  H     0.03851   0.21227   0.59032   0.00000  Uiso   1.00
O1025  O     0.09687   0.24700   0.58073   0.00000  Uiso   1.00
O1026  O     0.01218   0.19226   0.50547   0.00000  Uiso   1.00
C1027  C     0.00233   0.23146   0.99291   0.00000  Uiso   1.00
H1028  H     0.00895   0.23214   0.95058   0.00000  Uiso   1.00
H1029  H     0.02316   0.25631   0.50881   0.00000  Uiso   1.00
H1030  H     0.29766   0.23831   0.51035   0.00000  Uiso   1.00
O1031  O     0.20973   0.22978   0.88452   0.00000  Uiso   1.00
C1032  C     0.17849   0.26356   0.90295   0.00000  Uiso   1.00
H1033  H     0.18983   0.28891   0.87806   0.00000  Uiso   1.00
H1034  H     0.17889   0.27577   0.94297   0.00000  Uiso   1.00
H1035  H     0.14185   0.25525   0.90074   0.00000  Uiso   1.00
O1036  O     0.24815   0.29760   0.75757   0.00000  Uiso   1.00
C1037  C     0.27647   0.28936   0.70653   0.00000  Uiso   1.00
H1038  H     0.30691   0.27044   0.70750   0.00000  Uiso   1.00
H1039  H     0.29035   0.31838   0.68973   0.00000  Uiso   1.00
H1040  H     0.25750   0.27118   0.68057   0.00000  Uiso   1.00
O1041  O     0.46042   0.22678   0.75001   0.00000  Uiso   1.00
O1042  O     0.53961   0.22679   0.75001   0.00000  Uiso   1.00
C1043  C     0.50168   0.24537   0.74607   0.00000  Uiso   1.00
O1044  O     0.44108   0.16665   0.82549   0.00000  Uiso   1.00
O1045  O     0.52027   0.16666   0.82549   0.00000  Uiso   1.00
C1046  C     0.47442   0.16827   0.85007   0.00000  Uiso   1.00
Cu1047 Cu    0.45311   0.16666   0.75000   0.00000  Uiso   1.00
Cu1048 Cu    0.54689   0.16667   0.75000   0.00000  Uiso   1.00
O1049  O     0.46039   0.10654   0.75000   0.00000  Uiso   1.00
O1050  O     0.53958   0.10655   0.75000   0.00000  Uiso   1.00
O1051  O     0.47973   0.16667   0.67451   0.00000  Uiso   1.00
O1052  O     0.55892   0.16668   0.67451   0.00000  Uiso   1.00
C1053  C     0.49895   0.08749   0.75079   0.00000  Uiso   1.00
C1054  C     0.52475   0.16645   0.65060   0.00000  Uiso   1.00
C1055  C     0.58816   0.15448   0.50919   0.00000  Uiso   1.00
H1056  H     0.60594   0.14236   0.57822   0.00000  Uiso   1.00
H1057  H     0.60663   0.19132   0.92014   0.00000  Uiso   1.00
C1058  C     0.53584   0.16746   0.59455   0.00000  Uiso   1.00
C1059  C     0.40990   0.16746   0.93367   0.00000  Uiso   1.00
C1060  C     0.39310   0.18452   0.98522   0.00000  Uiso   1.00
C1061  C     0.42499   0.19437   0.51594   0.00000  Uiso   1.00
C1062  C     0.47383   0.18777   0.99322   0.00000  Uiso   1.00
C1063  C     0.48877   0.18611   0.93915   0.00000  Uiso   1.00
C1064  C     0.50939   0.18174   0.51940   0.00000  Uiso   1.00
C1065  C     0.55636   0.17442   0.98915   0.00000  Uiso   1.00
C1066  C     0.56979   0.18777   0.93978   0.00000  Uiso   1.00
C1067  C     0.53438   0.20021   0.91886   0.00000  Uiso   1.00
C1068  C     0.50001   0.17809   0.57224   0.00000  Uiso   1.00
C1069  C     0.57951   0.15446   0.56263   0.00000  Uiso   1.00
C1070  C     0.45801   0.17357   0.90799   0.00000  Uiso   1.00
H1071  H     0.46510   0.18290   0.59667   0.00000  Uiso   1.00
C1072  C     0.53942   0.31452   0.75616   0.00000  Uiso   1.00
C1073  C     0.53200   0.02373   0.76839   0.00000  Uiso   1.00
C1074  C     0.49752   0.04234   0.75057   0.00000  Uiso   1.00
C1075  C     0.46654   0.01769   0.72710   0.00000  Uiso   1.00
C1076  C     0.47142   0.30788   0.72009   0.00000  Uiso   1.00
C1077  C     0.50451   0.28979   0.74026   0.00000  Uiso   1.00
C1078  C     0.63605   0.19702   0.77898   0.00000  Uiso   1.00
C1079  C     0.35119   0.19370   0.78319   0.00000  Uiso   1.00
N1080  N     0.38265   0.16666   0.74999   0.00000  Uiso   1.00
C1081  C     0.36481   0.13878   0.71784   0.00000  Uiso   1.00
C1082  C     0.64809   0.13689   0.72064   0.00000  Uiso   1.00
N1083  N     0.61735   0.16669   0.75000   0.00000  Uiso   1.00
O1084  O     0.55074   0.04638   0.80539   0.00000  Uiso   1.00
C1085  C     0.60053   0.04610   0.79203   0.00000  Uiso   1.00
H1086  H     0.61335   0.07662   0.80555   0.00000  Uiso   1.00
H1087  H     0.61594   0.04088   0.74994   0.00000  Uiso   1.00
H1088  H     0.61345   0.02266   0.81198   0.00000  Uiso   1.00
O1089  O     0.43237   0.03542   0.70950   0.00000  Uiso   1.00
C1090  C     0.38970   0.03746   0.74906   0.00000  Uiso   1.00
H1091  H     0.36032   0.03740   0.73030   0.00000  Uiso   1.00
H1092  H     0.38779   0.06648   0.77490   0.00000  Uiso   1.00
H1093  H     0.38365   0.01114   0.77323   0.00000  Uiso   1.00
O1094  O     0.45391   0.28446   0.68293   0.00000  Uiso   1.00
C1095  C     0.40526   0.27629   0.70134   0.00000  Uiso   1.00
H1096  H     0.39404   0.27535   0.74365   0.00000  Uiso   1.00
H1097  H     0.39731   0.24538   0.68392   0.00000  Uiso   1.00
H1098  H     0.38450   0.29916   0.68877   0.00000  Uiso   1.00
O1099  O     0.60540   0.22893   0.80402   0.00000  Uiso   1.00
C1100  C     0.62588   0.26420   0.82548   0.00000  Uiso   1.00
H1101  H     0.65765   0.27544   0.79825   0.00000  Uiso   1.00
H1102  H     0.63118   0.25934   0.86365   0.00000  Uiso   1.00
H1103  H     0.60024   0.28961   0.83533   0.00000  Uiso   1.00
C1104  C     0.36417   0.21194   0.82995   0.00000  Uiso   1.00
H1105  H     0.34608   0.20120   0.86639   0.00000  Uiso   1.00
O1106  O     0.39210   0.24064   0.82923   0.00000  Uiso   1.00
O1107  O     0.39416   0.10766   0.68946   0.00000  Uiso   1.00
C1108  C     0.40784   0.11403   0.63669   0.00000  Uiso   1.00
H1109  H     0.44677   0.11097   0.62279   0.00000  Uiso   1.00
H1110  H     0.39737   0.14438   0.62753   0.00000  Uiso   1.00
H1111  H     0.39346   0.08885   0.61417   0.00000  Uiso   1.00
O1112  O     0.62964   0.10080   0.70173   0.00000  Uiso   1.00
C1113  C     0.63112   0.10072   0.64920   0.00000  Uiso   1.00
H1114  H     0.64969   0.07258   0.62791   0.00000  Uiso   1.00
H1115  H     0.64860   0.12834   0.63114   0.00000  Uiso   1.00
H1116  H     0.59451   0.09760   0.64469   0.00000  Uiso   1.00
O1117  O     0.62449   0.13154   0.97599   0.00000  Uiso   1.00
C1118  C     0.61614   0.08927   0.98341   0.00000  Uiso   1.00
H1119  H     0.63568   0.07012   0.94855   0.00000  Uiso   1.00
H1120  H     0.57809   0.08023   0.98911   0.00000  Uiso   1.00
H1121  H     0.62929   0.08149   0.51644   0.00000  Uiso   1.00
O1122  O     0.37808   0.14900   0.90808   0.00000  Uiso   1.00
C1123  C     0.38774   0.10628   0.89788   0.00000  Uiso   1.00
H1124  H     0.38444   0.09178   0.93421   0.00000  Uiso   1.00
H1125  H     0.42337   0.09970   0.87173   0.00000  Uiso   1.00
H1126  H     0.36169   0.09146   0.87805   0.00000  Uiso   1.00
C1127  C     0.40696   0.21841   0.56658   0.00000  Uiso   1.00
H1128  H     0.37184   0.21227   0.59032   0.00000  Uiso   1.00
O1129  O     0.43020   0.24700   0.58073   0.00000  Uiso   1.00
O1130  O     0.34551   0.19226   0.50547   0.00000  Uiso   1.00
C1131  C     0.33566   0.23146   0.99291   0.00000  Uiso   1.00
H1132  H     0.34229   0.23214   0.95058   0.00000  Uiso   1.00
H1133  H     0.35649   0.25631   0.50881   0.00000  Uiso   1.00
H1134  H     0.63100   0.23831   0.51035   0.00000  Uiso   1.00
O1135  O     0.54307   0.22978   0.88452   0.00000  Uiso   1.00
C1136  C     0.51183   0.26356   0.90295   0.00000  Uiso   1.00
H1137  H     0.52316   0.28891   0.87806   0.00000  Uiso   1.00
H1138  H     0.51223   0.27577   0.94297   0.00000  Uiso   1.00
H1139  H     0.47518   0.25525   0.90074   0.00000  Uiso   1.00
O1140  O     0.58148   0.29760   0.75757   0.00000  Uiso   1.00
C1141  C     0.60980   0.28936   0.70653   0.00000  Uiso   1.00
H1142  H     0.64024   0.27044   0.70750   0.00000  Uiso   1.00
H1143  H     0.62368   0.31838   0.68973   0.00000  Uiso   1.00
H1144  H     0.59084   0.27118   0.68057   0.00000  Uiso   1.00
O1145  O     0.79375   0.22678   0.75001   0.00000  Uiso   1.00
O1146  O     0.87294   0.22679   0.75001   0.00000  Uiso   1.00
C1147  C     0.83501   0.24537   0.74607   0.00000  Uiso   1.00
O1148  O     0.77441   0.16665   0.82549   0.00000  Uiso   1.00
O1149  O     0.85360   0.16666   0.82549   0.00000  Uiso   1.00
C1150  C     0.80775   0.16827   0.85007   0.00000  Uiso   1.00
Cu1151 Cu    0.78645   0.16666   0.75000   0.00000  Uiso   1.00
Cu1152 Cu    0.88022   0.16667   0.75000   0.00000  Uiso   1.00
O1153  O     0.79373   0.10654   0.75000   0.00000  Uiso   1.00
O1154  O     0.87292   0.10655   0.75000   0.00000  Uiso   1.00
O1155  O     0.81306   0.16667   0.67451   0.00000  Uiso   1.00
O1156  O     0.89225   0.16668   0.67451   0.00000  Uiso   1.00
C1157  C     0.83228   0.08749   0.75079   0.00000  Uiso   1.00
C1158  C     0.85808   0.16645   0.65060   0.00000  Uiso   1.00
C1159  C     0.92149   0.15448   0.50919   0.00000  Uiso   1.00
H1160  H     0.93927   0.14236   0.57822   0.00000  Uiso   1.00
H1161  H     0.93997   0.19132   0.92014   0.00000  Uiso   1.00
C1162  C     0.86918   0.16746   0.59455   0.00000  Uiso   1.00
C1163  C     0.74323   0.16746   0.93367   0.00000  Uiso   1.00
C1164  C     0.72643   0.18452   0.98522   0.00000  Uiso   1.00
C1165  C     0.75833   0.19437   0.51594   0.00000  Uiso   1.00
C1166  C     0.80717   0.18777   0.99322   0.00000  Uiso   1.00
C1167  C     0.82211   0.18611   0.93915   0.00000  Uiso   1.00
C1168  C     0.84273   0.18174   0.51940   0.00000  Uiso   1.00
C1169  C     0.88970   0.17442   0.98915   0.00000  Uiso   1.00
C1170  C     0.90312   0.18777   0.93978   0.00000  Uiso   1.00
C1171  C     0.86771   0.20021   0.91886   0.00000  Uiso   1.00
C1172  C     0.83335   0.17809   0.57224   0.00000  Uiso   1.00
C1173  C     0.91284   0.15446   0.56263   0.00000  Uiso   1.00
C1174  C     0.79134   0.17357   0.90799   0.00000  Uiso   1.00
H1175  H     0.79844   0.18290   0.59667   0.00000  Uiso   1.00
C1176  C     0.87275   0.31452   0.75616   0.00000  Uiso   1.00
C1177  C     0.86534   0.02373   0.76839   0.00000  Uiso   1.00
C1178  C     0.83086   0.04234   0.75057   0.00000  Uiso   1.00
C1179  C     0.79987   0.01769   0.72710   0.00000  Uiso   1.00
C1180  C     0.80475   0.30788   0.72009   0.00000  Uiso   1.00
C1181  C     0.83785   0.28979   0.74026   0.00000  Uiso   1.00
C1182  C     0.96938   0.19702   0.77898   0.00000  Uiso   1.00
C1183  C     0.68452   0.19370   0.78319   0.00000  Uiso   1.00
N1184  N     0.71598   0.16666   0.74999   0.00000  Uiso   1.00
C1185  C     0.69815   0.13878   0.71784   0.00000  Uiso   1.00
C1186  C     0.98142   0.13689   0.72064   0.00000  Uiso   1.00
N1187  N     0.95069   0.16669   0.75000   0.00000  Uiso   1.00
O1188  O     0.88407   0.04638   0.80539   0.00000  Uiso   1.00
C1189  C     0.93387   0.04610   0.79203   0.00000  Uiso   1.00
H1190  H     0.94669   0.07662   0.80555   0.00000  Uiso   1.00
H1191  H     0.94927   0.04088   0.74994   0.00000  Uiso   1.00
H1192  H     0.94679   0.02266   0.81198   0.00000  Uiso   1.00
O1193  O     0.76570   0.03542   0.70950   0.00000  Uiso   1.00
C1194  C     0.72304   0.03746   0.74906   0.00000  Uiso   1.00
H1195  H     0.69366   0.03740   0.73030   0.00000  Uiso   1.00
H1196  H     0.72112   0.06648   0.77490   0.00000  Uiso   1.00
H1197  H     0.71699   0.01114   0.77323   0.00000  Uiso   1.00
O1198  O     0.78724   0.28446   0.68293   0.00000  Uiso   1.00
C1199  C     0.73860   0.27629   0.70134   0.00000  Uiso   1.00
H1200  H     0.72738   0.27535   0.74365   0.00000  Uiso   1.00
H1201  H     0.73064   0.24538   0.68392   0.00000  Uiso   1.00
H1202  H     0.71783   0.29916   0.68877   0.00000  Uiso   1.00
O1203  O     0.93873   0.22893   0.80402   0.00000  Uiso   1.00
C1204  C     0.95921   0.26420   0.82548   0.00000  Uiso   1.00
H1205  H     0.99099   0.27544   0.79825   0.00000  Uiso   1.00
H1206  H     0.96451   0.25934   0.86365   0.00000  Uiso   1.00
H1207  H     0.93357   0.28961   0.83533   0.00000  Uiso   1.00
C1208  C     0.69750   0.21194   0.82995   0.00000  Uiso   1.00
H1209  H     0.67941   0.20120   0.86639   0.00000  Uiso   1.00
O1210  O     0.72543   0.24064   0.82923   0.00000  Uiso   1.00
O1211  O     0.72749   0.10766   0.68946   0.00000  Uiso   1.00
C1212  C     0.74118   0.11403   0.63669   0.00000  Uiso   1.00
H1213  H     0.78011   0.11097   0.62279   0.00000  Uiso   1.00
H1214  H     0.73070   0.14438   0.62753   0.00000  Uiso   1.00
H1215  H     0.72680   0.08885   0.61417   0.00000  Uiso   1.00
O1216  O     0.96298   0.10080   0.70173   0.00000  Uiso   1.00
C1217  C     0.96446   0.10072   0.64920   0.00000  Uiso   1.00
H1218  H     0.98303   0.07258   0.62791   0.00000  Uiso   1.00
H1219  H     0.98194   0.12834   0.63114   0.00000  Uiso   1.00
H1220  H     0.92784   0.09760   0.64469   0.00000  Uiso   1.00
O1221  O     0.95782   0.13154   0.97599   0.00000  Uiso   1.00
C1222  C     0.94948   0.08927   0.98341   0.00000  Uiso   1.00
H1223  H     0.96902   0.07012   0.94855   0.00000  Uiso   1.00
H1224  H     0.91142   0.08023   0.98911   0.00000  Uiso   1.00
H1225  H     0.96263   0.08149   0.51644   0.00000  Uiso   1.00
O1226  O     0.71141   0.14900   0.90808   0.00000  Uiso   1.00
C1227  C     0.72108   0.10628   0.89788   0.00000  Uiso   1.00
H1228  H     0.71777   0.09178   0.93421   0.00000  Uiso   1.00
H1229  H     0.75671   0.09970   0.87173   0.00000  Uiso   1.00
H1230  H     0.69502   0.09146   0.87805   0.00000  Uiso   1.00
C1231  C     0.74029   0.21841   0.56658   0.00000  Uiso   1.00
H1232  H     0.70518   0.21227   0.59032   0.00000  Uiso   1.00
O1233  O     0.76354   0.24700   0.58073   0.00000  Uiso   1.00
O1234  O     0.67885   0.19226   0.50547   0.00000  Uiso   1.00
C1235  C     0.66899   0.23146   0.99291   0.00000  Uiso   1.00
H1236  H     0.67562   0.23214   0.95058   0.00000  Uiso   1.00
H1237  H     0.68983   0.25631   0.50881   0.00000  Uiso   1.00
H1238  H     0.96433   0.23831   0.51035   0.00000  Uiso   1.00
O1239  O     0.87640   0.22978   0.88452   0.00000  Uiso   1.00
C1240  C     0.84516   0.26356   0.90295   0.00000  Uiso   1.00
H1241  H     0.85649   0.28891   0.87806   0.00000  Uiso   1.00
H1242  H     0.84556   0.27577   0.94297   0.00000  Uiso   1.00
H1243  H     0.80852   0.25525   0.90074   0.00000  Uiso   1.00
O1244  O     0.91482   0.29760   0.75757   0.00000  Uiso   1.00
C1245  C     0.94314   0.28936   0.70653   0.00000  Uiso   1.00
H1246  H     0.97358   0.27044   0.70750   0.00000  Uiso   1.00
H1247  H     0.95701   0.31838   0.68973   0.00000  Uiso   1.00
H1248  H     0.92417   0.27118   0.68057   0.00000  Uiso   1.00
O1249  O     0.12708   0.56011   0.75001   0.00000  Uiso   1.00
O1250  O     0.20627   0.56012   0.75001   0.00000  Uiso   1.00
C1251  C     0.16834   0.57870   0.74607   0.00000  Uiso   1.00
O1252  O     0.10775   0.49998   0.82549   0.00000  Uiso   1.00
O1253  O     0.18694   0.49999   0.82549   0.00000  Uiso   1.00
C1254  C     0.14108   0.50160   0.85007   0.00000  Uiso   1.00
Cu1255 Cu    0.11978   0.49999   0.75000   0.00000  Uiso   1.00
Cu1256 Cu    0.21355   0.50001   0.75000   0.00000  Uiso   1.00
O1257  O     0.12706   0.43988   0.75000   0.00000  Uiso   1.00
O1258  O     0.20625   0.43989   0.75000   0.00000  Uiso   1.00
O1259  O     0.14640   0.50001   0.67451   0.00000  Uiso   1.00
O1260  O     0.22559   0.50002   0.67451   0.00000  Uiso   1.00
C1261  C     0.16561   0.42082   0.75079   0.00000  Uiso   1.00
C1262  C     0.19142   0.49978   0.65060   0.00000  Uiso   1.00
C1263  C     0.25483   0.48781   0.50919   0.00000  Uiso   1.00
H1264  H     0.27261   0.47569   0.57822   0.00000  Uiso   1.00
H1265  H     0.27330   0.52465   0.92014   0.00000  Uiso   1.00
C1266  C     0.20251   0.50079   0.59455   0.00000  Uiso   1.00
C1267  C     0.07656   0.50079   0.93367   0.00000  Uiso   1.00
C1268  C     0.05976   0.51785   0.98522   0.00000  Uiso   1.00
C1269  C     0.09166   0.52771   0.51594   0.00000  Uiso   1.00
C1270  C     0.14050   0.52110   0.99322   0.00000  Uiso   1.00
C1271  C     0.15544   0.51944   0.93915   0.00000  Uiso   1.00
C1272  C     0.17606   0.51507   0.51940   0.00000  Uiso   1.00
C1273  C     0.22303   0.50775   0.98915   0.00000  Uiso   1.00
C1274  C     0.23645   0.52110   0.93978   0.00000  Uiso   1.00
C1275  C     0.20104   0.53354   0.91886   0.00000  Uiso   1.00
C1276  C     0.16668   0.51142   0.57224   0.00000  Uiso   1.00
C1277  C     0.24618   0.48779   0.56263   0.00000  Uiso   1.00
C1278  C     0.12468   0.50691   0.90799   0.00000  Uiso   1.00
H1279  H     0.13177   0.51623   0.59667   0.00000  Uiso   1.00
C1280  C     0.20609   0.64786   0.75616   0.00000  Uiso   1.00
C1281  C     0.19867   0.35706   0.76839   0.00000  Uiso   1.00
C1282  C     0.16419   0.37567   0.75057   0.00000  Uiso   1.00
C1283  C     0.13320   0.35103   0.72710   0.00000  Uiso   1.00
C1284  C     0.13808   0.64122   0.72009   0.00000  Uiso   1.00
C1285  C     0.17118   0.62312   0.74026   0.00000  Uiso   1.00
C1286  C     0.30271   0.53035   0.77898   0.00000  Uiso   1.00
C1287  C     0.01786   0.52704   0.78319   0.00000  Uiso   1.00
N1288  N     0.04931   0.49999   0.74999   0.00000  Uiso   1.00
C1289  C     0.03148   0.47211   0.71784   0.00000  Uiso   1.00
C1290  C     0.31476   0.47022   0.72064   0.00000  Uiso   1.00
N1291  N     0.28402   0.50002   0.75000   0.00000  Uiso   1.00
O1292  O     0.21741   0.37971   0.80539   0.00000  Uiso   1.00
C1293  C     0.26720   0.37943   0.79203   0.00000  Uiso   1.00
H1294  H     0.28002   0.40995   0.80555   0.00000  Uiso   1.00
H1295  H     0.28260   0.37422   0.74994   0.00000  Uiso   1.00
H1296  H     0.28012   0.35599   0.81198   0.00000  Uiso   1.00
O1297  O     0.09903   0.36875   0.70950   0.00000  Uiso   1.00
C1298  C     0.05637   0.37080   0.74906   0.00000  Uiso   1.00
H1299  H     0.02699   0.37073   0.73030   0.00000  Uiso   1.00
H1300  H     0.05446   0.39981   0.77490   0.00000  Uiso   1.00
H1301  H     0.05032   0.34447   0.77323   0.00000  Uiso   1.00
O1302  O     0.12057   0.61780   0.68293   0.00000  Uiso   1.00
C1303  C     0.07193   0.60963   0.70134   0.00000  Uiso   1.00
H1304  H     0.06071   0.60868   0.74365   0.00000  Uiso   1.00
H1305  H     0.06397   0.57872   0.68392   0.00000  Uiso   1.00
H1306  H     0.05116   0.63250   0.68877   0.00000  Uiso   1.00
O1307  O     0.27206   0.56226   0.80402   0.00000  Uiso   1.00
C1308  C     0.29255   0.59753   0.82548   0.00000  Uiso   1.00
H1309  H     0.32432   0.60878   0.79825   0.00000  Uiso   1.00
H1310  H     0.29784   0.59267   0.86365   0.00000  Uiso   1.00
H1311  H     0.26691   0.62294   0.83533   0.00000  Uiso   1.00
C1312  C     0.03083   0.54528   0.82995   0.00000  Uiso   1.00
H1313  H     0.01275   0.53453   0.86639   0.00000  Uiso   1.00
O1314  O     0.05876   0.57398   0.82923   0.00000  Uiso   1.00
O1315  O     0.06082   0.44099   0.68946   0.00000  Uiso   1.00
C1316  C     0.07451   0.44736   0.63669   0.00000  Uiso   1.00
H1317  H     0.11344   0.44431   0.62279   0.00000  Uiso   1.00
H1318  H     0.06403   0.47771   0.62753   0.00000  Uiso   1.00
H1319  H     0.06013   0.42218   0.61417   0.00000  Uiso   1.00
O1320  O     0.29631   0.43414   0.70173   0.00000  Uiso   1.00
C1321  C     0.29779   0.43406   0.64920   0.00000  Uiso   1.00
H1322  H     0.31636   0.40592   0.62791   0.00000  Uiso   1.00
H1323  H     0.31527   0.46167   0.63114   0.00000  Uiso   1.00
H1324  H     0.26118   0.43093   0.64469   0.00000  Uiso   1.00
O1325  O     0.29116   0.46488   0.97599   0.00000  Uiso   1.00
C1326  C     0.28281   0.42260   0.98341   0.00000  Uiso   1.00
H1327  H     0.30235   0.40345   0.94855   0.00000  Uiso   1.00
H1328  H     0.24476   0.41356   0.98911   0.00000  Uiso   1.00
H1329  H     0.29596   0.41482   0.51644   0.00000  Uiso   1.00
O1330  O     0.04475   0.48233   0.90808   0.00000  Uiso   1.00
C1331  C     0.05441   0.43962   0.89788   0.00000  Uiso   1.00
H1332  H     0.05111   0.42511   0.93421   0.00000  Uiso   1.00
H1333  H     0.09004   0.43303   0.87173   0.00000  Uiso   1.00
H1334  H     0.02836   0.42479   0.87805   0.00000  Uiso   1.00
C1335  C     0.07362   0.55175   0.56658   0.00000  Uiso   1.00
H1336  H     0.03851   0.54560   0.59032   0.00000  Uiso   1.00
O1337  O     0.09687   0.58033   0.58073   0.00000  Uiso   1.00
O1338  O     0.01218   0.52559   0.50547   0.00000  Uiso   1.00
C1339  C     0.00233   0.56480   0.99291   0.00000  Uiso   1.00
H1340  H     0.00895   0.56547   0.95058   0.00000  Uiso   1.00
H1341  H     0.02316   0.58965   0.50881   0.00000  Uiso   1.00
H1342  H     0.29766   0.57164   0.51035   0.00000  Uiso   1.00
O1343  O     0.20973   0.56312   0.88452   0.00000  Uiso   1.00
C1344  C     0.17849   0.59690   0.90295   0.00000  Uiso   1.00
H1345  H     0.18983   0.62224   0.87806   0.00000  Uiso   1.00
H1346  H     0.17889   0.60910   0.94297   0.00000  Uiso   1.00
H1347  H     0.14185   0.58859   0.90074   0.00000  Uiso   1.00
O1348  O     0.24815   0.63093   0.75757   0.00000  Uiso   1.00
C1349  C     0.27647   0.62270   0.70653   0.00000  Uiso   1.00
H1350  H     0.30691   0.60377   0.70750   0.00000  Uiso   1.00
H1351  H     0.29035   0.65172   0.68973   0.00000  Uiso   1.00
H1352  H     0.25750   0.60452   0.68057   0.00000  Uiso   1.00
O1353  O     0.46042   0.56011   0.75001   0.00000  Uiso   1.00
O1354  O     0.53961   0.56012   0.75001   0.00000  Uiso   1.00
C1355  C     0.50168   0.57870   0.74607   0.00000  Uiso   1.00
O1356  O     0.44108   0.49998   0.82549   0.00000  Uiso   1.00
O1357  O     0.52027   0.49999   0.82549   0.00000  Uiso   1.00
C1358  C     0.47442   0.50160   0.85007   0.00000  Uiso   1.00
Cu1359 Cu    0.45311   0.49999   0.75000   0.00000  Uiso   1.00
Cu1360 Cu    0.54689   0.50001   0.75000   0.00000  Uiso   1.00
O1361  O     0.46039   0.43988   0.75000   0.00000  Uiso   1.00
O1362  O     0.53958   0.43989   0.75000   0.00000  Uiso   1.00
O1363  O     0.47973   0.50001   0.67451   0.00000  Uiso   1.00
O1364  O     0.55892   0.50002   0.67451   0.00000  Uiso   1.00
C1365  C     0.49895   0.42082   0.75079   0.00000  Uiso   1.00
C1366  C     0.52475   0.49978   0.65060   0.00000  Uiso   1.00
C1367  C     0.58816   0.48781   0.50919   0.00000  Uiso   1.00
H1368  H     0.60594   0.47569   0.57822   0.00000  Uiso   1.00
H1369  H     0.60663   0.52465   0.92014   0.00000  Uiso   1.00
C1370  C     0.53584   0.50079   0.59455   0.00000  Uiso   1.00
C1371  C     0.40990   0.50079   0.93367   0.00000  Uiso   1.00
C1372  C     0.39310   0.51785   0.98522   0.00000  Uiso   1.00
C1373  C     0.42499   0.52771   0.51594   0.00000  Uiso   1.00
C1374  C     0.47383   0.52110   0.99322   0.00000  Uiso   1.00
C1375  C     0.48877   0.51944   0.93915   0.00000  Uiso   1.00
C1376  C     0.50939   0.51507   0.51940   0.00000  Uiso   1.00
C1377  C     0.55636   0.50775   0.98915   0.00000  Uiso   1.00
C1378  C     0.56979   0.52110   0.93978   0.00000  Uiso   1.00
C1379  C     0.53438   0.53354   0.91886   0.00000  Uiso   1.00
C1380  C     0.50001   0.51142   0.57224   0.00000  Uiso   1.00
C1381  C     0.57951   0.48779   0.56263   0.00000  Uiso   1.00
C1382  C     0.45801   0.50691   0.90799   0.00000  Uiso   1.00
H1383  H     0.46510   0.51623   0.59667   0.00000  Uiso   1.00
C1384  C     0.53942   0.64786   0.75616   0.00000  Uiso   1.00
C1385  C     0.53200   0.35706   0.76839   0.00000  Uiso   1.00
C1386  C     0.49752   0.37567   0.75057   0.00000  Uiso   1.00
C1387  C     0.46654   0.35103   0.72710   0.00000  Uiso   1.00
C1388  C     0.47142   0.64122   0.72009   0.00000  Uiso   1.00
C1389  C     0.50451   0.62312   0.74026   0.00000  Uiso   1.00
C1390  C     0.63605   0.53035   0.77898   0.00000  Uiso   1.00
C1391  C     0.35119   0.52704   0.78319   0.00000  Uiso   1.00
N1392  N     0.38265   0.49999   0.74999   0.00000  Uiso   1.00
C1393  C     0.36481   0.47211   0.71784   0.00000  Uiso   1.00
C1394  C     0.64809   0.47022   0.72064   0.00000  Uiso   1.00
N1395  N     0.61735   0.50002   0.75000   0.00000  Uiso   1.00
O1396  O     0.55074   0.37971   0.80539   0.00000  Uiso   1.00
C1397  C     0.60053   0.37943   0.79203   0.00000  Uiso   1.00
H1398  H     0.61335   0.40995   0.80555   0.00000  Uiso   1.00
H1399  H     0.61594   0.37422   0.74994   0.00000  Uiso   1.00
H1400  H     0.61345   0.35599   0.81198   0.00000  Uiso   1.00
O1401  O     0.43237   0.36875   0.70950   0.00000  Uiso   1.00
C1402  C     0.38970   0.37080   0.74906   0.00000  Uiso   1.00
H1403  H     0.36032   0.37073   0.73030   0.00000  Uiso   1.00
H1404  H     0.38779   0.39981   0.77490   0.00000  Uiso   1.00
H1405  H     0.38365   0.34447   0.77323   0.00000  Uiso   1.00
O1406  O     0.45391   0.61780   0.68293   0.00000  Uiso   1.00
C1407  C     0.40526   0.60963   0.70134   0.00000  Uiso   1.00
H1408  H     0.39404   0.60868   0.74365   0.00000  Uiso   1.00
H1409  H     0.39731   0.57872   0.68392   0.00000  Uiso   1.00
H1410  H     0.38450   0.63250   0.68877   0.00000  Uiso   1.00
O1411  O     0.60540   0.56226   0.80402   0.00000  Uiso   1.00
C1412  C     0.62588   0.59753   0.82548   0.00000  Uiso   1.00
H1413  H     0.65765   0.60878   0.79825   0.00000  Uiso   1.00
H1414  H     0.63118   0.59267   0.86365   0.00000  Uiso   1.00
H1415  H     0.60024   0.62294   0.83533   0.00000  Uiso   1.00
C1416  C     0.36417   0.54528   0.82995   0.00000  Uiso   1.00
H1417  H     0.34608   0.53453   0.86639   0.00000  Uiso   1.00
O1418  O     0.39210   0.57398   0.82923   0.00000  Uiso   1.00
O1419  O     0.39416   0.44099   0.68946   0.00000  Uiso   1.00
C1420  C     0.40784   0.44736   0.63669   0.00000  Uiso   1.00
H1421  H     0.44677   0.44431   0.62279   0.00000  Uiso   1.00
H1422  H     0.39737   0.47771   0.62753   0.00000  Uiso   1.00
H1423  H     0.39346   0.42218   0.61417   0.00000  Uiso   1.00
O1424  O     0.62964   0.43414   0.70173   0.00000  Uiso   1.00
C1425  C     0.63112   0.43406   0.64920   0.00000  Uiso   1.00
H1426  H     0.64969   0.40592   0.62791   0.00000  Uiso   1.00
H1427  H     0.64860   0.46167   0.63114   0.00000  Uiso   1.00
H1428  H     0.59451   0.43093   0.64469   0.00000  Uiso   1.00
O1429  O     0.62449   0.46488   0.97599   0.00000  Uiso   1.00
C1430  C     0.61614   0.42260   0.98341   0.00000  Uiso   1.00
H1431  H     0.63568   0.40345   0.94855   0.00000  Uiso   1.00
H1432  H     0.57809   0.41356   0.98911   0.00000  Uiso   1.00
H1433  H     0.62929   0.41482   0.51644   0.00000  Uiso   1.00
O1434  O     0.37808   0.48233   0.90808   0.00000  Uiso   1.00
C1435  C     0.38774   0.43962   0.89788   0.00000  Uiso   1.00
H1436  H     0.38444   0.42511   0.93421   0.00000  Uiso   1.00
H1437  H     0.42337   0.43303   0.87173   0.00000  Uiso   1.00
H1438  H     0.36169   0.42479   0.87805   0.00000  Uiso   1.00
C1439  C     0.40696   0.55175   0.56658   0.00000  Uiso   1.00
H1440  H     0.37184   0.54560   0.59032   0.00000  Uiso   1.00
O1441  O     0.43020   0.58033   0.58073   0.00000  Uiso   1.00
O1442  O     0.34551   0.52559   0.50547   0.00000  Uiso   1.00
C1443  C     0.33566   0.56480   0.99291   0.00000  Uiso   1.00
H1444  H     0.34229   0.56547   0.95058   0.00000  Uiso   1.00
H1445  H     0.35649   0.58965   0.50881   0.00000  Uiso   1.00
H1446  H     0.63100   0.57164   0.51035   0.00000  Uiso   1.00
O1447  O     0.54307   0.56312   0.88452   0.00000  Uiso   1.00
C1448  C     0.51183   0.59690   0.90295   0.00000  Uiso   1.00
H1449  H     0.52316   0.62224   0.87806   0.00000  Uiso   1.00
H1450  H     0.51223   0.60910   0.94297   0.00000  Uiso   1.00
H1451  H     0.47518   0.58859   0.90074   0.00000  Uiso   1.00
O1452  O     0.58148   0.63093   0.75757   0.00000  Uiso   1.00
C1453  C     0.60980   0.62270   0.70653   0.00000  Uiso   1.00
H1454  H     0.64024   0.60377   0.70750   0.00000  Uiso   1.00
H1455  H     0.62368   0.65172   0.68973   0.00000  Uiso   1.00
H1456  H     0.59084   0.60452   0.68057   0.00000  Uiso   1.00
O1457  O     0.79375   0.56011   0.75001   0.00000  Uiso   1.00
O1458  O     0.87294   0.56012   0.75001   0.00000  Uiso   1.00
C1459  C     0.83501   0.57870   0.74607   0.00000  Uiso   1.00
O1460  O     0.77441   0.49998   0.82549   0.00000  Uiso   1.00
O1461  O     0.85360   0.49999   0.82549   0.00000  Uiso   1.00
C1462  C     0.80775   0.50160   0.85007   0.00000  Uiso   1.00
Cu1463 Cu    0.78645   0.49999   0.75000   0.00000  Uiso   1.00
Cu1464 Cu    0.88022   0.50001   0.75000   0.00000  Uiso   1.00
O1465  O     0.79373   0.43988   0.75000   0.00000  Uiso   1.00
O1466  O     0.87292   0.43989   0.75000   0.00000  Uiso   1.00
O1467  O     0.81306   0.50001   0.67451   0.00000  Uiso   1.00
O1468  O     0.89225   0.50002   0.67451   0.00000  Uiso   1.00
C1469  C     0.83228   0.42082   0.75079   0.00000  Uiso   1.00
C1470  C     0.85808   0.49978   0.65060   0.00000  Uiso   1.00
C1471  C     0.92149   0.48781   0.50919   0.00000  Uiso   1.00
H1472  H     0.93927   0.47569   0.57822   0.00000  Uiso   1.00
H1473  H     0.93997   0.52465   0.92014   0.00000  Uiso   1.00
C1474  C     0.86918   0.50079   0.59455   0.00000  Uiso   1.00
C1475  C     0.74323   0.50079   0.93367   0.00000  Uiso   1.00
C1476  C     0.72643   0.51785   0.98522   0.00000  Uiso   1.00
C1477  C     0.75833   0.52771   0.51594   0.00000  Uiso   1.00
C1478  C     0.80717   0.52110   0.99322   0.00000  Uiso   1.00
C1479  C     0.82211   0.51944   0.93915   0.00000  Uiso   1.00
C1480  C     0.84273   0.51507   0.51940   0.00000  Uiso   1.00
C1481  C     0.88970   0.50775   0.98915   0.00000  Uiso   1.00
C1482  C     0.90312   0.52110   0.93978   0.00000  Uiso   1.00
C1483  C     0.86771   0.53354   0.91886   0.00000  Uiso   1.00
C1484  C     0.83335   0.51142   0.57224   0.00000  Uiso   1.00
C1485  C     0.91284   0.48779   0.56263   0.00000  Uiso   1.00
C1486  C     0.79134   0.50691   0.90799   0.00000  Uiso   1.00
H1487  H     0.79844   0.51623   0.59667   0.00000  Uiso   1.00
C1488  C     0.87275   0.64786   0.75616   0.00000  Uiso   1.00
C1489  C     0.86534   0.35706   0.76839   0.00000  Uiso   1.00
C1490  C     0.83086   0.37567   0.75057   0.00000  Uiso   1.00
C1491  C     0.79987   0.35103   0.72710   0.00000  Uiso   1.00
C1492  C     0.80475   0.64122   0.72009   0.00000  Uiso   1.00
C1493  C     0.83785   0.62312   0.74026   0.00000  Uiso   1.00
C1494  C     0.96938   0.53035   0.77898   0.00000  Uiso   1.00
C1495  C     0.68452   0.52704   0.78319   0.00000  Uiso   1.00
N1496  N     0.71598   0.49999   0.74999   0.00000  Uiso   1.00
C1497  C     0.69815   0.47211   0.71784   0.00000  Uiso   1.00
C1498  C     0.98142   0.47022   0.72064   0.00000  Uiso   1.00
N1499  N     0.95069   0.50002   0.75000   0.00000  Uiso   1.00
O1500  O     0.88407   0.37971   0.80539   0.00000  Uiso   1.00
C1501  C     0.93387   0.37943   0.79203   0.00000  Uiso   1.00
H1502  H     0.94669   0.40995   0.80555   0.00000  Uiso   1.00
H1503  H     0.94927   0.37422   0.74994   0.00000  Uiso   1.00
H1504  H     0.94679   0.35599   0.81198   0.00000  Uiso   1.00
O1505  O     0.76570   0.36875   0.70950   0.00000  Uiso   1.00
C1506  C     0.72304   0.37080   0.74906   0.00000  Uiso   1.00
H1507  H     0.69366   0.37073   0.73030   0.00000  Uiso   1.00
H1508  H     0.72112   0.39981   0.77490   0.00000  Uiso   1.00
H1509  H     0.71699   0.34447   0.77323   0.00000  Uiso   1.00
O1510  O     0.78724   0.61780   0.68293   0.00000  Uiso   1.00
C1511  C     0.73860   0.60963   0.70134   0.00000  Uiso   1.00
H1512  H     0.72738   0.60868   0.74365   0.00000  Uiso   1.00
H1513  H     0.73064   0.57872   0.68392   0.00000  Uiso   1.00
H1514  H     0.71783   0.63250   0.68877   0.00000  Uiso   1.00
O1515  O     0.93873   0.56226   0.80402   0.00000  Uiso   1.00
C1516  C     0.95921   0.59753   0.82548   0.00000  Uiso   1.00
H1517  H     0.99099   0.60878   0.79825   0.00000  Uiso   1.00
H1518  H     0.96451   0.59267   0.86365   0.00000  Uiso   1.00
H1519  H     0.93357   0.62294   0.83533   0.00000  Uiso   1.00
C1520  C     0.69750   0.54528   0.82995   0.00000  Uiso   1.00
H1521  H     0.67941   0.53453   0.86639   0.00000  Uiso   1.00
O1522  O     0.72543   0.57398   0.82923   0.00000  Uiso   1.00
O1523  O     0.72749   0.44099   0.68946   0.00000  Uiso   1.00
C1524  C     0.74118   0.44736   0.63669   0.00000  Uiso   1.00
H1525  H     0.78011   0.44431   0.62279   0.00000  Uiso   1.00
H1526  H     0.73070   0.47771   0.62753   0.00000  Uiso   1.00
H1527  H     0.72680   0.42218   0.61417   0.00000  Uiso   1.00
O1528  O     0.96298   0.43414   0.70173   0.00000  Uiso   1.00
C1529  C     0.96446   0.43406   0.64920   0.00000  Uiso   1.00
H1530  H     0.98303   0.40592   0.62791   0.00000  Uiso   1.00
H1531  H     0.98194   0.46167   0.63114   0.00000  Uiso   1.00
H1532  H     0.92784   0.43093   0.64469   0.00000  Uiso   1.00
O1533  O     0.95782   0.46488   0.97599   0.00000  Uiso   1.00
C1534  C     0.94948   0.42260   0.98341   0.00000  Uiso   1.00
H1535  H     0.96902   0.40345   0.94855   0.00000  Uiso   1.00
H1536  H     0.91142   0.41356   0.98911   0.00000  Uiso   1.00
H1537  H     0.96263   0.41482   0.51644   0.00000  Uiso   1.00
O1538  O     0.71141   0.48233   0.90808   0.00000  Uiso   1.00
C1539  C     0.72108   0.43962   0.89788   0.00000  Uiso   1.00
H1540  H     0.71777   0.42511   0.93421   0.00000  Uiso   1.00
H1541  H     0.75671   0.43303   0.87173   0.00000  Uiso   1.00
H1542  H     0.69502   0.42479   0.87805   0.00000  Uiso   1.00
C1543  C     0.74029   0.55175   0.56658   0.00000  Uiso   1.00
H1544  H     0.70518   0.54560   0.59032   0.00000  Uiso   1.00
O1545  O     0.76354   0.58033   0.58073   0.00000  Uiso   1.00
O1546  O     0.67885   0.52559   0.50547   0.00000  Uiso   1.00
C1547  C     0.66899   0.56480   0.99291   0.00000  Uiso   1.00
H1548  H     0.67562   0.56547   0.95058   0.00000  Uiso   1.00
H1549  H     0.68983   0.58965   0.50881   0.00000  Uiso   1.00
H1550  H     0.96433   0.57164   0.51035   0.00000  Uiso   1.00
O1551  O     0.87640   0.56312   0.88452   0.00000  Uiso   1.00
C1552  C     0.84516   0.59690   0.90295   0.00000  Uiso   1.00
H1553  H     0.85649   0.62224   0.87806   0.00000  Uiso   1.00
H1554  H     0.84556   0.60910   0.94297   0.00000  Uiso   1.00
H1555  H     0.80852   0.58859   0.90074   0.00000  Uiso   1.00
O1556  O     0.91482   0.63093   0.75757   0.00000  Uiso   1.00
C1557  C     0.94314   0.62270   0.70653   0.00000  Uiso   1.00
H1558  H     0.97358   0.60377   0.70750   0.00000  Uiso   1.00
H1559  H     0.95701   0.65172   0.68973   0.00000  Uiso   1.00
H1560  H     0.92417   0.60452   0.68057   0.00000  Uiso   1.00
O1561  O     0.12708   0.89345   0.75001   0.00000  Uiso   1.00
O1562  O     0.20627   0.89346   0.75001   0.00000  Uiso   1.00
C1563  C     0.16834   0.91204   0.74607   0.00000  Uiso   1.00
O1564  O     0.10775   0.83332   0.82549   0.00000  Uiso   1.00
O1565  O     0.18694   0.83333   0.82549   0.00000  Uiso   1.00
C1566  C     0.14108   0.83493   0.85007   0.00000  Uiso   1.00
Cu1567 Cu    0.11978   0.83333   0.75000   0.00000  Uiso   1.00
Cu1568 Cu    0.21355   0.83334   0.75000   0.00000  Uiso   1.00
O1569  O     0.12706   0.77321   0.75000   0.00000  Uiso   1.00
O1570  O     0.20625   0.77322   0.75000   0.00000  Uiso   1.00
O1571  O     0.14640   0.83334   0.67451   0.00000  Uiso   1.00
O1572  O     0.22559   0.83335   0.67451   0.00000  Uiso   1.00
C1573  C     0.16561   0.75416   0.75079   0.00000  Uiso   1.00
C1574  C     0.19142   0.83312   0.65060   0.00000  Uiso   1.00
C1575  C     0.25483   0.82114   0.50919   0.00000  Uiso   1.00
H1576  H     0.27261   0.80902   0.57822   0.00000  Uiso   1.00
H1577  H     0.27330   0.85798   0.92014   0.00000  Uiso   1.00
C1578  C     0.20251   0.83412   0.59455   0.00000  Uiso   1.00
C1579  C     0.07656   0.83412   0.93367   0.00000  Uiso   1.00
C1580  C     0.05976   0.85118   0.98522   0.00000  Uiso   1.00
C1581  C     0.09166   0.86104   0.51594   0.00000  Uiso   1.00
C1582  C     0.14050   0.85444   0.99322   0.00000  Uiso   1.00
C1583  C     0.15544   0.85277   0.93915   0.00000  Uiso   1.00
C1584  C     0.17606   0.84841   0.51940   0.00000  Uiso   1.00
C1585  C     0.22303   0.84108   0.98915   0.00000  Uiso   1.00
C1586  C     0.23645   0.85444   0.93978   0.00000  Uiso   1.00
C1587  C     0.20104   0.86688   0.91886   0.00000  Uiso   1.00
C1588  C     0.16668   0.84476   0.57224   0.00000  Uiso   1.00
C1589  C     0.24618   0.82113   0.56263   0.00000  Uiso   1.00
C1590  C     0.12468   0.84024   0.90799   0.00000  Uiso   1.00
H1591  H     0.13177   0.84956   0.59667   0.00000  Uiso   1.00
C1592  C     0.20609   0.98119   0.75616   0.00000  Uiso   1.00
C1593  C     0.19867   0.69040   0.76839   0.00000  Uiso   1.00
C1594  C     0.16419   0.70901   0.75057   0.00000  Uiso   1.00
C1595  C     0.13320   0.68436   0.72710   0.00000  Uiso   1.00
C1596  C     0.13808   0.97455   0.72009   0.00000  Uiso   1.00
C1597  C     0.17118   0.95646   0.74026   0.00000  Uiso   1.00
C1598  C     0.30271   0.86368   0.77898   0.00000  Uiso   1.00
C1599  C     0.01786   0.86037   0.78319   0.00000  Uiso   1.00
N1600  N     0.04931   0.83332   0.74999   0.00000  Uiso   1.00
C1601  C     0.03148   0.80545   0.71784   0.00000  Uiso   1.00
C1602  C     0.31476   0.80356   0.72064   0.00000  Uiso   1.00
N1603  N     0.28402   0.83335   0.75000   0.00000  Uiso   1.00
O1604  O     0.21741   0.71305   0.80539   0.00000  Uiso   1.00
C1605  C     0.26720   0.71277   0.79203   0.00000  Uiso   1.00
H1606  H     0.28002   0.74328   0.80555   0.00000  Uiso   1.00
H1607  H     0.28260   0.70755   0.74994   0.00000  Uiso   1.00
H1608  H     0.28012   0.68932   0.81198   0.00000  Uiso   1.00
O1609  O     0.09903   0.70208   0.70950   0.00000  Uiso   1.00
C1610  C     0.05637   0.70413   0.74906   0.00000  Uiso   1.00
H1611  H     0.02699   0.70406   0.73030   0.00000  Uiso   1.00
H1612  H     0.05446   0.73315   0.77490   0.00000  Uiso   1.00
H1613  H     0.05032   0.67781   0.77323   0.00000  Uiso   1.00
O1614  O     0.12057   0.95113   0.68293   0.00000  Uiso   1.00
C1615  C     0.07193   0.94296   0.70134   0.00000  Uiso   1.00
H1616  H     0.06071   0.94202   0.74365   0.00000  Uiso   1.00
H1617  H     0.06397   0.91205   0.68392   0.00000  Uiso   1.00
H1618  H     0.05116   0.96583   0.68877   0.00000  Uiso   1.00
O1619  O     0.27206   0.89560   0.80402   0.00000  Uiso   1.00
C1620  C     0.29255   0.93087   0.82548   0.00000  Uiso   1.00
H1621  H     0.32432   0.94211   0.79825   0.00000  Uiso   1.00
H1622  H     0.29784   0.92601   0.86365   0.00000  Uiso   1.00
H1623  H     0.26691   0.95627   0.83533   0.00000  Uiso   1.00
C1624  C     0.03083   0.87861   0.82995   0.00000  Uiso   1.00
H1625  H     0.01275   0.86786   0.86639   0.00000  Uiso   1.00
O1626  O     0.05876   0.90731   0.82923   0.00000  Uiso   1.00
O1627  O     0.06082   0.77432   0.68946   0.00000  Uiso   1.00
C1628  C     0.07451   0.78069   0.63669   0.00000  Uiso   1.00
H1629  H     0.11344   0.77764   0.62279   0.00000  Uiso   1.00
H1630  H     0.06403   0.81105   0.62753   0.00000  Uiso   1.00
H1631  H     0.06013   0.75551   0.61417   0.00000  Uiso   1.00
O1632  O     0.29631   0.76747   0.70173   0.00000  Uiso   1.00
C1633  C     0.29779   0.76739   0.64920   0.00000  Uiso   1.00
H1634  H     0.31636   0.73925   0.62791   0.00000  Uiso   1.00
H1635  H     0.31527   0.79500   0.63114   0.00000  Uiso   1.00
H1636  H     0.26118   0.76427   0.64469   0.00000  Uiso   1.00
O1637  O     0.29116   0.79821   0.97599   0.00000  Uiso   1.00
C1638  C     0.28281   0.75594   0.98341   0.00000  Uiso   1.00
H1639  H     0.30235   0.73679   0.94855   0.00000  Uiso   1.00
H1640  H     0.24476   0.74690   0.98911   0.00000  Uiso   1.00
H1641  H     0.29596   0.74816   0.51644   0.00000  Uiso   1.00
O1642  O     0.04475   0.81567   0.90808   0.00000  Uiso   1.00
C1643  C     0.05441   0.77295   0.89788   0.00000  Uiso   1.00
H1644  H     0.05111   0.75844   0.93421   0.00000  Uiso   1.00
H1645  H     0.09004   0.76637   0.87173   0.00000  Uiso   1.00
H1646  H     0.02836   0.75812   0.87805   0.00000  Uiso   1.00
C1647  C     0.07362   0.88508   0.56658   0.00000  Uiso   1.00
H1648  H     0.03851   0.87894   0.59032   0.00000  Uiso   1.00
O1649  O     0.09687   0.91367   0.58073   0.00000  Uiso   1.00
O1650  O     0.01218   0.85893   0.50547   0.00000  Uiso   1.00
C1651  C     0.00233   0.89813   0.99291   0.00000  Uiso   1.00
H1652  H     0.00895   0.89881   0.95058   0.00000  Uiso   1.00
H1653  H     0.02316   0.92298   0.50881   0.00000  Uiso   1.00
H1654  H     0.29766   0.90497   0.51035   0.00000  Uiso   1.00
O1655  O     0.20973   0.89645   0.88452   0.00000  Uiso   1.00
C1656  C     0.17849   0.93023   0.90295   0.00000  Uiso   1.00
H1657  H     0.18983   0.95558   0.87806   0.00000  Uiso   1.00
H1658  H     0.17889   0.94244   0.94297   0.00000  Uiso   1.00
H1659  H     0.14185   0.92192   0.90074   0.00000  Uiso   1.00
O1660  O     0.24815   0.96426   0.75757   0.00000  Uiso   1.00
C1661  C     0.27647   0.95603   0.70653   0.00000  Uiso   1.00
H1662  H     0.30691   0.93711   0.70750   0.00000  Uiso   1.00
H1663  H     0.29035   0.98505   0.68973   0.00000  Uiso   1.00
H1664  H     0.25750   0.93785   0.68057   0.00000  Uiso   1.00
O1665  O     0.46042   0.89345   0.75001   0.00000  Uiso   1.00
O1666  O     0.53961   0.89346   0.75001   0.00000  Uiso   1.00
C1667  C     0.50168   0.91204   0.74607   0.00000  Uiso   1.00
O1668  O     0.44108   0.83332   0.82549   0.00000  Uiso   1.00
O1669  O     0.52027   0.83333   0.82549   0.00000  Uiso   1.00
C1670  C     0.47442   0.83493   0.85007   0.00000  Uiso   1.00
Cu1671 Cu    0.45311   0.83333   0.75000   0.00000  Uiso   1.00
Cu1672 Cu    0.54689   0.83334   0.75000   0.00000  Uiso   1.00
O1673  O     0.46039   0.77321   0.75000   0.00000  Uiso   1.00
O1674  O     0.53958   0.77322   0.75000   0.00000  Uiso   1.00
O1675  O     0.47973   0.83334   0.67451   0.00000  Uiso   1.00
O1676  O     0.55892   0.83335   0.67451   0.00000  Uiso   1.00
C1677  C     0.49895   0.75416   0.75079   0.00000  Uiso   1.00
C1678  C     0.52475   0.83312   0.65060   0.00000  Uiso   1.00
C1679  C     0.58816   0.82114   0.50919   0.00000  Uiso   1.00
H1680  H     0.60594   0.80902   0.57822   0.00000  Uiso   1.00
H1681  H     0.60663   0.85798   0.92014   0.00000  Uiso   1.00
C1682  C     0.53584   0.83412   0.59455   0.00000  Uiso   1.00
C1683  C     0.40990   0.83412   0.93367   0.00000  Uiso   1.00
C1684  C     0.39310   0.85118   0.98522   0.00000  Uiso   1.00
C1685  C     0.42499   0.86104   0.51594   0.00000  Uiso   1.00
C1686  C     0.47383   0.85444   0.99322   0.00000  Uiso   1.00
C1687  C     0.48877   0.85277   0.93915   0.00000  Uiso   1.00
C1688  C     0.50939   0.84841   0.51940   0.00000  Uiso   1.00
C1689  C     0.55636   0.84108   0.98915   0.00000  Uiso   1.00
C1690  C     0.56979   0.85444   0.93978   0.00000  Uiso   1.00
C1691  C     0.53438   0.86688   0.91886   0.00000  Uiso   1.00
C1692  C     0.50001   0.84476   0.57224   0.00000  Uiso   1.00
C1693  C     0.57951   0.82113   0.56263   0.00000  Uiso   1.00
C1694  C     0.45801   0.84024   0.90799   0.00000  Uiso   1.00
H1695  H     0.46510   0.84956   0.59667   0.00000  Uiso   1.00
C1696  C     0.53942   0.98119   0.75616   0.00000  Uiso   1.00
C1697  C     0.53200   0.69040   0.76839   0.00000  Uiso   1.00
C1698  C     0.49752   0.70901   0.75057   0.00000  Uiso   1.00
C1699  C     0.46654   0.68436   0.72710   0.00000  Uiso   1.00
C1700  C     0.47142   0.97455   0.72009   0.00000  Uiso   1.00
C1701  C     0.50451   0.95646   0.74026   0.00000  Uiso   1.00
C1702  C     0.63605   0.86368   0.77898   0.00000  Uiso   1.00
C1703  C     0.35119   0.86037   0.78319   0.00000  Uiso   1.00
N1704  N     0.38265   0.83332   0.74999   0.00000  Uiso   1.00
C1705  C     0.36481   0.80545   0.71784   0.00000  Uiso   1.00
C1706  C     0.64809   0.80356   0.72064   0.00000  Uiso   1.00
N1707  N     0.61735   0.83335   0.75000   0.00000  Uiso   1.00
O1708  O     0.55074   0.71305   0.80539   0.00000  Uiso   1.00
C1709  C     0.60053   0.71277   0.79203   0.00000  Uiso   1.00
H1710  H     0.61335   0.74328   0.80555   0.00000  Uiso   1.00
H1711  H     0.61594   0.70755   0.74994   0.00000  Uiso   1.00
H1712  H     0.61345   0.68932   0.81198   0.00000  Uiso   1.00
O1713  O     0.43237   0.70208   0.70950   0.00000  Uiso   1.00
C1714  C     0.38970   0.70413   0.74906   0.00000  Uiso   1.00
H1715  H     0.36032   0.70406   0.73030   0.00000  Uiso   1.00
H1716  H     0.38779   0.73315   0.77490   0.00000  Uiso   1.00
H1717  H     0.38365   0.67781   0.77323   0.00000  Uiso   1.00
O1718  O     0.45391   0.95113   0.68293   0.00000  Uiso   1.00
C1719  C     0.40526   0.94296   0.70134   0.00000  Uiso   1.00
H1720  H     0.39404   0.94202   0.74365   0.00000  Uiso   1.00
H1721  H     0.39731   0.91205   0.68392   0.00000  Uiso   1.00
H1722  H     0.38450   0.96583   0.68877   0.00000  Uiso   1.00
O1723  O     0.60540   0.89560   0.80402   0.00000  Uiso   1.00
C1724  C     0.62588   0.93087   0.82548   0.00000  Uiso   1.00
H1725  H     0.65765   0.94211   0.79825   0.00000  Uiso   1.00
H1726  H     0.63118   0.92601   0.86365   0.00000  Uiso   1.00
H1727  H     0.60024   0.95627   0.83533   0.00000  Uiso   1.00
C1728  C     0.36417   0.87861   0.82995   0.00000  Uiso   1.00
H1729  H     0.34608   0.86786   0.86639   0.00000  Uiso   1.00
O1730  O     0.39210   0.90731   0.82923   0.00000  Uiso   1.00
O1731  O     0.39416   0.77432   0.68946   0.00000  Uiso   1.00
C1732  C     0.40784   0.78069   0.63669   0.00000  Uiso   1.00
H1733  H     0.44677   0.77764   0.62279   0.00000  Uiso   1.00
H1734  H     0.39737   0.81105   0.62753   0.00000  Uiso   1.00
H1735  H     0.39346   0.75551   0.61417   0.00000  Uiso   1.00
O1736  O     0.62964   0.76747   0.70173   0.00000  Uiso   1.00
C1737  C     0.63112   0.76739   0.64920   0.00000  Uiso   1.00
H1738  H     0.64969   0.73925   0.62791   0.00000  Uiso   1.00
H1739  H     0.64860   0.79500   0.63114   0.00000  Uiso   1.00
H1740  H     0.59451   0.76427   0.64469   0.00000  Uiso   1.00
O1741  O     0.62449   0.79821   0.97599   0.00000  Uiso   1.00
C1742  C     0.61614   0.75594   0.98341   0.00000  Uiso   1.00
H1743  H     0.63568   0.73679   0.94855   0.00000  Uiso   1.00
H1744  H     0.57809   0.74690   0.98911   0.00000  Uiso   1.00
H1745  H     0.62929   0.74816   0.51644   0.00000  Uiso   1.00
O1746  O     0.37808   0.81567   0.90808   0.00000  Uiso   1.00
C1747  C     0.38774   0.77295   0.89788   0.00000  Uiso   1.00
H1748  H     0.38444   0.75844   0.93421   0.00000  Uiso   1.00
H1749  H     0.42337   0.76637   0.87173   0.00000  Uiso   1.00
H1750  H     0.36169   0.75812   0.87805   0.00000  Uiso   1.00
C1751  C     0.40696   0.88508   0.56658   0.00000  Uiso   1.00
H1752  H     0.37184   0.87894   0.59032   0.00000  Uiso   1.00
O1753  O     0.43020   0.91367   0.58073   0.00000  Uiso   1.00
O1754  O     0.34551   0.85893   0.50547   0.00000  Uiso   1.00
C1755  C     0.33566   0.89813   0.99291   0.00000  Uiso   1.00
H1756  H     0.34229   0.89881   0.95058   0.00000  Uiso   1.00
H1757  H     0.35649   0.92298   0.50881   0.00000  Uiso   1.00
H1758  H     0.63100   0.90497   0.51035   0.00000  Uiso   1.00
O1759  O     0.54307   0.89645   0.88452   0.00000  Uiso   1.00
C1760  C     0.51183   0.93023   0.90295   0.00000  Uiso   1.00
H1761  H     0.52316   0.95558   0.87806   0.00000  Uiso   1.00
H1762  H     0.51223   0.94244   0.94297   0.00000  Uiso   1.00
H1763  H     0.47518   0.92192   0.90074   0.00000  Uiso   1.00
O1764  O     0.58148   0.96426   0.75757   0.00000  Uiso   1.00
C1765  C     0.60980   0.95603   0.70653   0.00000  Uiso   1.00
H1766  H     0.64024   0.93711   0.70750   0.00000  Uiso   1.00
H1767  H     0.62368   0.98505   0.68973   0.00000  Uiso   1.00
H1768  H     0.59084   0.93785   0.68057   0.00000  Uiso   1.00
O1769  O     0.79375   0.89345   0.75001   0.00000  Uiso   1.00
O1770  O     0.87294   0.89346   0.75001   0.00000  Uiso   1.00
C1771  C     0.83501   0.91204   0.74607   0.00000  Uiso   1.00
O1772  O     0.77441   0.83332   0.82549   0.00000  Uiso   1.00
O1773  O     0.85360   0.83333   0.82549   0.00000  Uiso   1.00
C1774  C     0.80775   0.83493   0.85007   0.00000  Uiso   1.00
Cu1775 Cu    0.78645   0.83333   0.75000   0.00000  Uiso   1.00
Cu1776 Cu    0.88022   0.83334   0.75000   0.00000  Uiso   1.00
O1777  O     0.79373   0.77321   0.75000   0.00000  Uiso   1.00
O1778  O     0.87292   0.77322   0.75000   0.00000  Uiso   1.00
O1779  O     0.81306   0.83334   0.67451   0.00000  Uiso   1.00
O1780  O     0.89225   0.83335   0.67451   0.00000  Uiso   1.00
C1781  C     0.83228   0.75416   0.75079   0.00000  Uiso   1.00
C1782  C     0.85808   0.83312   0.65060   0.00000  Uiso   1.00
C1783  C     0.92149   0.82114   0.50919   0.00000  Uiso   1.00
H1784  H     0.93927   0.80902   0.57822   0.00000  Uiso   1.00
H1785  H     0.93997   0.85798   0.92014   0.00000  Uiso   1.00
C1786  C     0.86918   0.83412   0.59455   0.00000  Uiso   1.00
C1787  C     0.74323   0.83412   0.93367   0.00000  Uiso   1.00
C1788  C     0.72643   0.85118   0.98522   0.00000  Uiso   1.00
C1789  C     0.75833   0.86104   0.51594   0.00000  Uiso   1.00
C1790  C     0.80717   0.85444   0.99322   0.00000  Uiso   1.00
C1791  C     0.82211   0.85277   0.93915   0.00000  Uiso   1.00
C1792  C     0.84273   0.84841   0.51940   0.00000  Uiso   1.00
C1793  C     0.88970   0.84108   0.98915   0.00000  Uiso   1.00
C1794  C     0.90312   0.85444   0.93978   0.00000  Uiso   1.00
C1795  C     0.86771   0.86688   0.91886   0.00000  Uiso   1.00
C1796  C     0.83335   0.84476   0.57224   0.00000  Uiso   1.00
C1797  C     0.91284   0.82113   0.56263   0.00000  Uiso   1.00
C1798  C     0.79134   0.84024   0.90799   0.00000  Uiso   1.00
H1799  H     0.79844   0.84956   0.59667   0.00000  Uiso   1.00
C1800  C     0.87275   0.98119   0.75616   0.00000  Uiso   1.00
C1801  C     0.86534   0.69040   0.76839   0.00000  Uiso   1.00
C1802  C     0.83086   0.70901   0.75057   0.00000  Uiso   1.00
C1803  C     0.79987   0.68436   0.72710   0.00000  Uiso   1.00
C1804  C     0.80475   0.97455   0.72009   0.00000  Uiso   1.00
C1805  C     0.83785   0.95646   0.74026   0.00000  Uiso   1.00
C1806  C     0.96938   0.86368   0.77898   0.00000  Uiso   1.00
C1807  C     0.68452   0.86037   0.78319   0.00000  Uiso   1.00
N1808  N     0.71598   0.83332   0.74999   0.00000  Uiso   1.00
C1809  C     0.69815   0.80545   0.71784   0.00000  Uiso   1.00
C1810  C     0.98142   0.80356   0.72064   0.00000  Uiso   1.00
N1811  N     0.95069   0.83335   0.75000   0.00000  Uiso   1.00
O1812  O     0.88407   0.71305   0.80539   0.00000  Uiso   1.00
C1813  C     0.93387   0.71277   0.79203   0.00000  Uiso   1.00
H1814  H     0.94669   0.74328   0.80555   0.00000  Uiso   1.00
H1815  H     0.94927   0.70755   0.74994   0.00000  Uiso   1.00
H1816  H     0.94679   0.68932   0.81198   0.00000  Uiso   1.00
O1817  O     0.76570   0.70208   0.70950   0.00000  Uiso   1.00
C1818  C     0.72304   0.70413   0.74906   0.00000  Uiso   1.00
H1819  H     0.69366   0.70406   0.73030   0.00000  Uiso   1.00
H1820  H     0.72112   0.73315   0.77490   0.00000  Uiso   1.00
H1821  H     0.71699   0.67781   0.77323   0.00000  Uiso   1.00
O1822  O     0.78724   0.95113   0.68293   0.00000  Uiso   1.00
C1823  C     0.73860   0.94296   0.70134   0.00000  Uiso   1.00
H1824  H     0.72738   0.94202   0.74365   0.00000  Uiso   1.00
H1825  H     0.73064   0.91205   0.68392   0.00000  Uiso   1.00
H1826  H     0.71783   0.96583   0.68877   0.00000  Uiso   1.00
O1827  O     0.93873   0.89560   0.80402   0.00000  Uiso   1.00
C1828  C     0.95921   0.93087   0.82548   0.00000  Uiso   1.00
H1829  H     0.99099   0.94211   0.79825   0.00000  Uiso   1.00
H1830  H     0.96451   0.92601   0.86365   0.00000  Uiso   1.00
H1831  H     0.93357   0.95627   0.83533   0.00000  Uiso   1.00
C1832  C     0.69750   0.87861   0.82995   0.00000  Uiso   1.00
H1833  H     0.67941   0.86786   0.86639   0.00000  Uiso   1.00
O1834  O     0.72543   0.90731   0.82923   0.00000  Uiso   1.00
O1835  O     0.72749   0.77432   0.68946   0.00000  Uiso   1.00
C1836  C     0.74118   0.78069   0.63669   0.00000  Uiso   1.00
H1837  H     0.78011   0.77764   0.62279   0.00000  Uiso   1.00
H1838  H     0.73070   0.81105   0.62753   0.00000  Uiso   1.00
H1839  H     0.72680   0.75551   0.61417   0.00000  Uiso   1.00
O1840  O     0.96298   0.76747   0.70173   0.00000  Uiso   1.00
C1841  C     0.96446   0.76739   0.64920   0.00000  Uiso   1.00
H1842  H     0.98303   0.73925   0.62791   0.00000  Uiso   1.00
H1843  H     0.98194   0.79500   0.63114   0.00000  Uiso   1.00
H1844  H     0.92784   0.76427   0.64469   0.00000  Uiso   1.00
O1845  O     0.95782   0.79821   0.97599   0.00000  Uiso   1.00
C1846  C     0.94948   0.75594   0.98341   0.00000  Uiso   1.00
H1847  H     0.96902   0.73679   0.94855   0.00000  Uiso   1.00
H1848  H     0.91142   0.74690   0.98911   0.00000  Uiso   1.00
H1849  H     0.96263   0.74816   0.51644   0.00000  Uiso   1.00
O1850  O     0.71141   0.81567   0.90808   0.00000  Uiso   1.00
C1851  C     0.72108   0.77295   0.89788   0.00000  Uiso   1.00
H1852  H     0.71777   0.75844   0.93421   0.00000  Uiso   1.00
H1853  H     0.75671   0.76637   0.87173   0.00000  Uiso   1.00
H1854  H     0.69502   0.75812   0.87805   0.00000  Uiso   1.00
C1855  C     0.74029   0.88508   0.56658   0.00000  Uiso   1.00
H1856  H     0.70518   0.87894   0.59032   0.00000  Uiso   1.00
O1857  O     0.76354   0.91367   0.58073   0.00000  Uiso   1.00
O1858  O     0.67885   0.85893   0.50547   0.00000  Uiso   1.00
C1859  C     0.66899   0.89813   0.99291   0.00000  Uiso   1.00
H1860  H     0.67562   0.89881   0.95058   0.00000  Uiso   1.00
H1861  H     0.68983   0.92298   0.50881   0.00000  Uiso   1.00
H1862  H     0.96433   0.90497   0.51035   0.00000  Uiso   1.00
O1863  O     0.87640   0.89645   0.88452   0.00000  Uiso   1.00
C1864  C     0.84516   0.93023   0.90295   0.00000  Uiso   1.00
H1865  H     0.85649   0.95558   0.87806   0.00000  Uiso   1.00
H1866  H     0.84556   0.94244   0.94297   0.00000  Uiso   1.00
H1867  H     0.80852   0.92192   0.90074   0.00000  Uiso   1.00
O1868  O     0.91482   0.96426   0.75757   0.00000  Uiso   1.00
C1869  C     0.94314   0.95603   0.70653   0.00000  Uiso   1.00
H1870  H     0.97358   0.93711   0.70750   0.00000  Uiso   1.00
H1871  H     0.95701   0.98505   0.68973   0.00000  Uiso   1.00
H1872  H     0.92417   0.93785   0.68057   0.00000  Uiso   1.00
loop_
_geom_bond_atom_site_label_1
_geom_bond_atom_site_label_2
_geom_bond_distance
_geom_bond_site_symmetry_2
_ccdc_geom_bond_type
O1     C3      1.315   .     A
O1     Cu7     1.963   .     S
O2     Cu8     1.977   .     S
O2     C3      1.313   .     A
C3     C37     1.469   .     S
O4     Cu7     1.976   .     S
O4     C6      1.309   .     A
O5     Cu8     1.985   .     S
O5     C6      1.334   .     A
C6     C30     1.505   .     S
Cu7    Cu8     2.740   .     S
Cu7    O11     1.985   .     S
Cu7    N40     2.059   .     S
Cu7    O9      1.977   .     S
Cu8    N43     2.059   .     S
Cu8    O12     1.976   .     S
Cu8    O10     1.963   .     S
O9     C13     1.310   .     A
O10    C13     1.318   .     A
O11    C14     1.308   .     A
O12    C14     1.320   .     A
C13    C34     1.470   .     S
C14    C18     1.467   .     S
C15    C29     1.398   .     A
C15    C961    1.396   1_554 S
C15    O1013   1.383   1_554 S
H16    C29     1.073   .     S
H17    C26     1.079   .     S
C18    C28     1.404   .     A
C18    C29     1.394   .     A
C19    C20     1.411   .     A
C19    O82     1.381   .     S
C19    C30     1.416   .     A
C20    C957    1.407   .     S
C20    O1026   1.378   .     S
C21    C87     1.480   .     S
C21    C956    1.407   1_554 S
C21    C958    1.415   1_554 S
C22    C23     1.407   .     A
C22    C957    1.415   .     S
C22    C960    1.427   .     S
C23    C27     1.387   .     A
C23    C30     1.405   .     A
C24    C28     1.398   .     A
C24    C958    1.427   1_554 S
C24    C961    1.419   1_554 S
C25    C26     1.400   .     A
C25    C960    1.419   .     S
C25    C951    1.396   .     S
C26    C27     1.389   .     A
C27    O95     1.379   .     S
C28    H31     1.069   .     S
C32    O100    1.375   .     S
C32    C37     1.404   .     A
C32    C345    1.401   .     S
C33    C34     1.402   .     A
C33    O44     1.393   .     S
C33    C656    1.401   1_545 S
C34    C35     1.416   .     A
C35    O49     1.377   .     S
C35    C660    1.405   1_545 S
C36    C37     1.398   .     A
C36    O54     1.388   .     S
C36    C347    1.405   .     S
C38    O59     1.394   .     S
C38    N43     1.381   .     A
C38    C143    1.458   .     S
C39    C64     1.471   .     S
C39    N40     1.375   .     A
C39    C246    1.458   1_455 S
N40    C41     1.373   .     A
C41    O67     1.381   .     S
C41    C250    1.445   1_455 S
C42    O72     1.381   .     S
C42    N43     1.381   .     A
C42    C145    1.445   .     S
O44    C45     1.406   .     S
C45    H47     1.106   .     S
C45    H46     1.110   .     S
C45    H48     1.107   .     S
O49    C50     1.416   .     S
C50    H52     1.108   .     S
C50    H53     1.114   .     S
C50    H51     1.103   .     S
O54    C55     1.406   .     S
C55    H56     1.107   .     S
C55    H57     1.109   .     S
C55    H58     1.108   .     S
O59    C60     1.416   .     S
C60    H63     1.100   .     S
C60    H62     1.108   .     S
C60    H61     1.104   .     S
C64    O66     1.219   .     D
C64    H65     1.078   .     S
O67    C68     1.412   .     S
C68    H69     1.107   .     S
C68    H71     1.106   .     S
C68    H70     1.115   .     S
O72    C73     1.406   .     S
C73    H74     1.108   .     S
C73    H75     1.114   .     S
C73    H76     1.108   .     S
O77    C78     1.416   .     S
O77    C951    1.383   .     S
C78    H80     1.116   .     S
C78    H79     1.107   .     S
C78    H1017   1.112   .     S
H81    C1014   1.112   1_554 S
O82    C83     1.414   .     S
C83    H84     1.113   .     S
C83    H85     1.111   .     S
C83    H86     1.109   .     S
C87    H88     1.086   .     S
C87    O89     1.221   .     D
O90    C956    1.378   1_554 S
O90    C1027   1.412   1_554 S
C91    H92     1.111   .     S
C91    O1026   1.412   .     S
C91    H1029   1.113   .     S
C91    H1238   1.109   1_455 S
H93    C1027   1.113   1_554 S
H94    C1131   1.109   1_554 S
O95    C96     1.418   .     S
C96    H99     1.111   .     S
C96    H98     1.114   .     S
C96    H97     1.107   .     S
O100   C101    1.416   .     S
C101   H102    1.106   .     S
C101   H103    1.110   .     S
C101   H104    1.113   .     S
O105   C107    1.315   .     A
O105   Cu111   1.963   .     S
O106   Cu112   1.977   .     S
O106   C107    1.313   .     A
C107   C141    1.469   .     S
O108   Cu111   1.976   .     S
O108   C110    1.309   .     A
O109   Cu112   1.985   .     S
O109   C110    1.334   .     A
C110   C134    1.505   .     S
Cu111  Cu112   2.740   .     S
Cu111  O115    1.985   .     S
Cu111  N144    2.059   .     S
Cu111  O113    1.977   .     S
Cu112  N147    2.059   .     S
Cu112  O116    1.976   .     S
Cu112  O114    1.963   .     S
O113   C117    1.310   .     A
O114   C117    1.318   .     A
O115   C118    1.308   .     A
O116   C118    1.320   .     A
C117   C138    1.470   .     S
C118   C122    1.467   .     S
C119   C133    1.398   .     A
C119   C1065   1.396   1_554 S
C119   O1117   1.383   1_554 S
H120   C133    1.073   .     S
H121   C130    1.079   .     S
C122   C132    1.404   .     A
C122   C133    1.394   .     A
C123   C124    1.411   .     A
C123   O186    1.381   .     S
C123   C134    1.416   .     A
C124   C1061   1.407   .     S
C124   O1130   1.378   .     S
C125   C191    1.480   .     S
C125   C1060   1.407   1_554 S
C125   C1062   1.415   1_554 S
C126   C127    1.407   .     A
C126   C1061   1.415   .     S
C126   C1064   1.427   .     S
C127   C131    1.387   .     A
C127   C134    1.405   .     A
C128   C132    1.398   .     A
C128   C1062   1.427   1_554 S
C128   C1065   1.419   1_554 S
C129   C130    1.400   .     A
C129   C1064   1.419   .     S
C129   C1055   1.396   .     S
C130   C131    1.389   .     A
C131   O199    1.379   .     S
C132   H135    1.069   .     S
C136   O204    1.375   .     S
C136   C141    1.404   .     A
C136   C449    1.401   .     S
C137   C138    1.402   .     A
C137   O148    1.393   .     S
C137   C760    1.401   1_545 S
C138   C139    1.416   .     A
C139   O153    1.377   .     S
C139   C764    1.405   1_545 S
C140   C141    1.398   .     A
C140   O158    1.388   .     S
C140   C451    1.405   .     S
C142   O163    1.394   .     S
C142   N147    1.381   .     A
C142   C247    1.458   .     S
C143   C168    1.471   .     S
C143   N144    1.375   .     A
N144   C145    1.373   .     A
C145   O171    1.381   .     S
C146   O176    1.381   .     S
C146   N147    1.381   .     A
C146   C249    1.445   .     S
O148   C149    1.406   .     S
C149   H151    1.106   .     S
C149   H150    1.110   .     S
C149   H152    1.107   .     S
O153   C154    1.416   .     S
C154   H156    1.108   .     S
C154   H157    1.114   .     S
C154   H155    1.103   .     S
O158   C159    1.406   .     S
C159   H160    1.107   .     S
C159   H161    1.109   .     S
C159   H162    1.108   .     S
O163   C164    1.416   .     S
C164   H167    1.100   .     S
C164   H166    1.108   .     S
C164   H165    1.104   .     S
C168   O170    1.219   .     D
C168   H169    1.078   .     S
O171   C172    1.412   .     S
C172   H173    1.107   .     S
C172   H175    1.106   .     S
C172   H174    1.115   .     S
O176   C177    1.406   .     S
C177   H178    1.108   .     S
C177   H179    1.114   .     S
C177   H180    1.108   .     S
O181   C182    1.416   .     S
O181   C1055   1.383   .     S
C182   H184    1.116   .     S
C182   H183    1.107   .     S
C182   H1121   1.112   .     S
H185   C1118   1.112   1_554 S
O186   C187    1.414   .     S
C187   H188    1.113   .     S
C187   H189    1.111   .     S
C187   H190    1.109   .     S
C191   H192    1.086   .     S
C191   O193    1.221   .     D
O194   C1060   1.378   1_554 S
O194   C1131   1.412   1_554 S
C195   H196    1.111   .     S
C195   O1130   1.412   .     S
C195   H1133   1.113   .     S
C195   H1030   1.109   .     S
H197   C1131   1.113   1_554 S
H198   C1235   1.109   1_554 S
O199   C200    1.418   .     S
C200   H203    1.111   .     S
C200   H202    1.114   .     S
C200   H201    1.107   .     S
O204   C205    1.416   .     S
C205   H206    1.106   .     S
C205   H207    1.110   .     S
C205   H208    1.113   .     S
O209   C211    1.315   .     A
O209   Cu215   1.963   .     S
O210   Cu216   1.977   .     S
O210   C211    1.313   .     A
C211   C245    1.469   .     S
O212   Cu215   1.976   .     S
O212   C214    1.309   .     A
O213   Cu216   1.985   .     S
O213   C214    1.334   .     A
C214   C238    1.505   .     S
Cu215  Cu216   2.740   .     S
Cu215  O219    1.985   .     S
Cu215  N248    2.059   .     S
Cu215  O217    1.977   .     S
Cu216  N251    2.059   .     S
Cu216  O220    1.976   .     S
Cu216  O218    1.963   .     S
O217   C221    1.310   .     A
O218   C221    1.318   .     A
O219   C222    1.308   .     A
O220   C222    1.320   .     A
C221   C242    1.470   .     S
C222   C226    1.467   .     S
C223   C237    1.398   .     A
C223   C1169   1.396   1_554 S
C223   O1221   1.383   1_554 S
H224   C237    1.073   .     S
H225   C234    1.079   .     S
C226   C236    1.404   .     A
C226   C237    1.394   .     A
C227   C228    1.411   .     A
C227   O290    1.381   .     S
C227   C238    1.416   .     A
C228   C1165   1.407   .     S
C228   O1234   1.378   .     S
C229   C295    1.480   .     S
C229   C1164   1.407   1_554 S
C229   C1166   1.415   1_554 S
C230   C231    1.407   .     A
C230   C1165   1.415   .     S
C230   C1168   1.427   .     S
C231   C235    1.387   .     A
C231   C238    1.405   .     A
C232   C236    1.398   .     A
C232   C1166   1.427   1_554 S
C232   C1169   1.419   1_554 S
C233   C234    1.400   .     A
C233   C1168   1.419   .     S
C233   C1159   1.396   .     S
C234   C235    1.389   .     A
C235   O303    1.379   .     S
C236   H239    1.069   .     S
C240   O308    1.375   .     S
C240   C245    1.404   .     A
C240   C553    1.401   .     S
C241   C242    1.402   .     A
C241   O252    1.393   .     S
C241   C864    1.401   1_545 S
C242   C243    1.416   .     A
C243   O257    1.377   .     S
C243   C868    1.405   1_545 S
C244   C245    1.398   .     A
C244   O262    1.388   .     S
C244   C555    1.405   .     S
C246   O267    1.394   .     S
C246   N251    1.381   .     A
C246   C39     1.458   1_655 S
C247   C272    1.471   .     S
C247   N248    1.375   .     A
N248   C249    1.373   .     A
C249   O275    1.381   .     S
C250   O280    1.381   .     S
C250   N251    1.381   .     A
C250   C41     1.445   1_655 S
O252   C253    1.406   .     S
C253   H255    1.106   .     S
C253   H254    1.110   .     S
C253   H256    1.107   .     S
O257   C258    1.416   .     S
C258   H260    1.108   .     S
C258   H261    1.114   .     S
C258   H259    1.103   .     S
O262   C263    1.406   .     S
C263   H264    1.107   .     S
C263   H265    1.109   .     S
C263   H266    1.108   .     S
O267   C268    1.416   .     S
C268   H271    1.100   .     S
C268   H270    1.108   .     S
C268   H269    1.104   .     S
C272   O274    1.219   .     D
C272   H273    1.078   .     S
O275   C276    1.412   .     S
C276   H277    1.107   .     S
C276   H279    1.106   .     S
C276   H278    1.115   .     S
O280   C281    1.406   .     S
C281   H282    1.108   .     S
C281   H283    1.114   .     S
C281   H284    1.108   .     S
O285   C286    1.416   .     S
O285   C1159   1.383   .     S
C286   H288    1.116   .     S
C286   H287    1.107   .     S
C286   H1225   1.112   .     S
H289   C1222   1.112   1_554 S
O290   C291    1.414   .     S
C291   H292    1.113   .     S
C291   H293    1.111   .     S
C291   H294    1.109   .     S
C295   H296    1.086   .     S
C295   O297    1.221   .     D
O298   C1164   1.378   1_554 S
O298   C1235   1.412   1_554 S
C299   H300    1.111   .     S
C299   O1234   1.412   .     S
C299   H1237   1.113   .     S
C299   H1134   1.109   .     S
H301   C1235   1.113   1_554 S
H302   C1027   1.109   1_654 S
O303   C304    1.418   .     S
C304   H307    1.111   .     S
C304   H306    1.114   .     S
C304   H305    1.107   .     S
O308   C309    1.416   .     S
C309   H310    1.106   .     S
C309   H311    1.110   .     S
C309   H312    1.113   .     S
O313   C315    1.315   .     A
O313   Cu319   1.963   .     S
O314   Cu320   1.977   .     S
O314   C315    1.313   .     A
C315   C349    1.469   .     S
O316   Cu319   1.976   .     S
O316   C318    1.309   .     A
O317   Cu320   1.985   .     S
O317   C318    1.334   .     A
C318   C342    1.505   .     S
Cu319  Cu320   2.740   .     S
Cu319  O323    1.985   .     S
Cu319  N352    2.059   .     S
Cu319  O321    1.977   .     S
Cu320  N355    2.059   .     S
Cu320  O324    1.976   .     S
Cu320  O322    1.963   .     S
O321   C325    1.310   .     A
O322   C325    1.318   .     A
O323   C326    1.308   .     A
O324   C326    1.320   .     A
C325   C346    1.470   .     S
C326   C330    1.467   .     S
C327   C341    1.398   .     A
C327   C1273   1.396   1_554 S
C327   O1325   1.383   1_554 S
H328   C341    1.073   .     S
H329   C338    1.079   .     S
C330   C340    1.404   .     A
C330   C341    1.394   .     A
C331   C332    1.411   .     A
C331   O394    1.381   .     S
C331   C342    1.416   .     A
C332   C1269   1.407   .     S
C332   O1338   1.378   .     S
C333   C399    1.480   .     S
C333   C1268   1.407   1_554 S
C333   C1270   1.415   1_554 S
C334   C335    1.407   .     A
C334   C1269   1.415   .     S
C334   C1272   1.427   .     S
C335   C339    1.387   .     A
C335   C342    1.405   .     A
C336   C340    1.398   .     A
C336   C1270   1.427   1_554 S
C336   C1273   1.419   1_554 S
C337   C338    1.400   .     A
C337   C1272   1.419   .     S
C337   C1263   1.396   .     S
C338   C339    1.389   .     A
C339   O407    1.379   .     S
C340   H343    1.069   .     S
C344   O412    1.375   .     S
C344   C349    1.404   .     A
C344   C657    1.401   .     S
C345   C346    1.402   .     A
C345   O356    1.393   .     S
C346   C347    1.416   .     A
C347   O361    1.377   .     S
C348   C349    1.398   .     A
C348   O366    1.388   .     S
C348   C659    1.405   .     S
C350   O371    1.394   .     S
C350   N355    1.381   .     A
C350   C455    1.458   .     S
C351   C376    1.471   .     S
C351   N352    1.375   .     A
C351   C558    1.458   1_455 S
N352   C353    1.373   .     A
C353   O379    1.381   .     S
C353   C562    1.445   1_455 S
C354   O384    1.381   .     S
C354   N355    1.381   .     A
C354   C457    1.445   .     S
O356   C357    1.406   .     S
C357   H359    1.106   .     S
C357   H358    1.110   .     S
C357   H360    1.107   .     S
O361   C362    1.416   .     S
C362   H364    1.108   .     S
C362   H365    1.114   .     S
C362   H363    1.103   .     S
O366   C367    1.406   .     S
C367   H368    1.107   .     S
C367   H369    1.109   .     S
C367   H370    1.108   .     S
O371   C372    1.416   .     S
C372   H375    1.100   .     S
C372   H374    1.108   .     S
C372   H373    1.104   .     S
C376   O378    1.219   .     D
C376   H377    1.078   .     S
O379   C380    1.412   .     S
C380   H381    1.107   .     S
C380   H383    1.106   .     S
C380   H382    1.115   .     S
O384   C385    1.406   .     S
C385   H386    1.108   .     S
C385   H387    1.114   .     S
C385   H388    1.108   .     S
O389   C390    1.416   .     S
O389   C1263   1.383   .     S
C390   H392    1.116   .     S
C390   H391    1.107   .     S
C390   H1329   1.112   .     S
H393   C1326   1.112   1_554 S
O394   C395    1.414   .     S
C395   H396    1.113   .     S
C395   H397    1.111   .     S
C395   H398    1.109   .     S
C399   H400    1.086   .     S
C399   O401    1.221   .     D
O402   C1268   1.378   1_554 S
O402   C1339   1.412   1_554 S
C403   H404    1.111   .     S
C403   O1338   1.412   .     S
C403   H1341   1.113   .     S
C403   H1550   1.109   1_455 S
H405   C1339   1.113   1_554 S
H406   C1443   1.109   1_554 S
O407   C408    1.418   .     S
C408   H411    1.111   .     S
C408   H410    1.114   .     S
C408   H409    1.107   .     S
O412   C413    1.416   .     S
C413   H414    1.106   .     S
C413   H415    1.110   .     S
C413   H416    1.113   .     S
O417   C419    1.315   .     A
O417   Cu423   1.963   .     S
O418   Cu424   1.977   .     S
O418   C419    1.313   .     A
C419   C453    1.469   .     S
O420   Cu423   1.976   .     S
O420   C422    1.309   .     A
O421   Cu424   1.985   .     S
O421   C422    1.334   .     A
C422   C446    1.505   .     S
Cu423  Cu424   2.740   .     S
Cu423  O427    1.985   .     S
Cu423  N456    2.059   .     S
Cu423  O425    1.977   .     S
Cu424  N459    2.059   .     S
Cu424  O428    1.976   .     S
Cu424  O426    1.963   .     S
O425   C429    1.310   .     A
O426   C429    1.318   .     A
O427   C430    1.308   .     A
O428   C430    1.320   .     A
C429   C450    1.470   .     S
C430   C434    1.467   .     S
C431   C445    1.398   .     A
C431   C1377   1.396   1_554 S
C431   O1429   1.383   1_554 S
H432   C445    1.073   .     S
H433   C442    1.079   .     S
C434   C444    1.404   .     A
C434   C445    1.394   .     A
C435   C436    1.411   .     A
C435   O498    1.381   .     S
C435   C446    1.416   .     A
C436   C1373   1.407   .     S
C436   O1442   1.378   .     S
C437   C503    1.480   .     S
C437   C1372   1.407   1_554 S
C437   C1374   1.415   1_554 S
C438   C439    1.407   .     A
C438   C1373   1.415   .     S
C438   C1376   1.427   .     S
C439   C443    1.387   .     A
C439   C446    1.405   .     A
C440   C444    1.398   .     A
C440   C1374   1.427   1_554 S
C440   C1377   1.419   1_554 S
C441   C442    1.400   .     A
C441   C1376   1.419   .     S
C441   C1367   1.396   .     S
C442   C443    1.389   .     A
C443   O511    1.379   .     S
C444   H447    1.069   .     S
C448   O516    1.375   .     S
C448   C453    1.404   .     A
C448   C761    1.401   .     S
C449   C450    1.402   .     A
C449   O460    1.393   .     S
C450   C451    1.416   .     A
C451   O465    1.377   .     S
C452   C453    1.398   .     A
C452   O470    1.388   .     S
C452   C763    1.405   .     S
C454   O475    1.394   .     S
C454   N459    1.381   .     A
C454   C559    1.458   .     S
C455   C480    1.471   .     S
C455   N456    1.375   .     A
N456   C457    1.373   .     A
C457   O483    1.381   .     S
C458   O488    1.381   .     S
C458   N459    1.381   .     A
C458   C561    1.445   .     S
O460   C461    1.406   .     S
C461   H463    1.106   .     S
C461   H462    1.110   .     S
C461   H464    1.107   .     S
O465   C466    1.416   .     S
C466   H468    1.108   .     S
C466   H469    1.114   .     S
C466   H467    1.103   .     S
O470   C471    1.406   .     S
C471   H472    1.107   .     S
C471   H473    1.109   .     S
C471   H474    1.108   .     S
O475   C476    1.416   .     S
C476   H479    1.100   .     S
C476   H478    1.108   .     S
C476   H477    1.104   .     S
C480   O482    1.219   .     D
C480   H481    1.078   .     S
O483   C484    1.412   .     S
C484   H485    1.107   .     S
C484   H487    1.106   .     S
C484   H486    1.115   .     S
O488   C489    1.406   .     S
C489   H490    1.108   .     S
C489   H491    1.114   .     S
C489   H492    1.108   .     S
O493   C494    1.416   .     S
O493   C1367   1.383   .     S
C494   H496    1.116   .     S
C494   H495    1.107   .     S
C494   H1433   1.112   .     S
H497   C1430   1.112   1_554 S
O498   C499    1.414   .     S
C499   H500    1.113   .     S
C499   H501    1.111   .     S
C499   H502    1.109   .     S
C503   H504    1.086   .     S
C503   O505    1.221   .     D
O506   C1372   1.378   1_554 S
O506   C1443   1.412   1_554 S
C507   H508    1.111   .     S
C507   O1442   1.412   .     S
C507   H1445   1.113   .     S
C507   H1342   1.109   .     S
H509   C1443   1.113   1_554 S
H510   C1547   1.109   1_554 S
O511   C512    1.418   .     S
C512   H515    1.111   .     S
C512   H514    1.114   .     S
C512   H513    1.107   .     S
O516   C517    1.416   .     S
C517   H518    1.106   .     S
C517   H519    1.110   .     S
C517   H520    1.113   .     S
O521   C523    1.315   .     A
O521   Cu527   1.963   .     S
O522   Cu528   1.977   .     S
O522   C523    1.313   .     A
C523   C557    1.469   .     S
O524   Cu527   1.976   .     S
O524   C526    1.309   .     A
O525   Cu528   1.985   .     S
O525   C526    1.334   .     A
C526   C550    1.505   .     S
Cu527  Cu528   2.740   .     S
Cu527  O531    1.985   .     S
Cu527  N560    2.059   .     S
Cu527  O529    1.977   .     S
Cu528  N563    2.059   .     S
Cu528  O532    1.976   .     S
Cu528  O530    1.963   .     S
O529   C533    1.310   .     A
O530   C533    1.318   .     A
O531   C534    1.308   .     A
O532   C534    1.320   .     A
C533   C554    1.470   .     S
C534   C538    1.467   .     S
C535   C549    1.398   .     A
C535   C1481   1.396   1_554 S
C535   O1533   1.383   1_554 S
H536   C549    1.073   .     S
H537   C546    1.079   .     S
C538   C548    1.404   .     A
C538   C549    1.394   .     A
C539   C540    1.411   .     A
C539   O602    1.381   .     S
C539   C550    1.416   .     A
C540   C1477   1.407   .     S
C540   O1546   1.378   .     S
C541   C607    1.480   .     S
C541   C1476   1.407   1_554 S
C541   C1478   1.415   1_554 S
C542   C543    1.407   .     A
C542   C1477   1.415   .     S
C542   C1480   1.427   .     S
C543   C547    1.387   .     A
C543   C550    1.405   .     A
C544   C548    1.398   .     A
C544   C1478   1.427   1_554 S
C544   C1481   1.419   1_554 S
C545   C546    1.400   .     A
C545   C1480   1.419   .     S
C545   C1471   1.396   .     S
C546   C547    1.389   .     A
C547   O615    1.379   .     S
C548   H551    1.069   .     S
C552   O620    1.375   .     S
C552   C557    1.404   .     A
C552   C865    1.401   .     S
C553   C554    1.402   .     A
C553   O564    1.393   .     S
C554   C555    1.416   .     A
C555   O569    1.377   .     S
C556   C557    1.398   .     A
C556   O574    1.388   .     S
C556   C867    1.405   .     S
C558   O579    1.394   .     S
C558   N563    1.381   .     A
C558   C351    1.458   1_655 S
C559   C584    1.471   .     S
C559   N560    1.375   .     A
N560   C561    1.373   .     A
C561   O587    1.381   .     S
C562   O592    1.381   .     S
C562   N563    1.381   .     A
C562   C353    1.445   1_655 S
O564   C565    1.406   .     S
C565   H567    1.106   .     S
C565   H566    1.110   .     S
C565   H568    1.107   .     S
O569   C570    1.416   .     S
C570   H572    1.108   .     S
C570   H573    1.114   .     S
C570   H571    1.103   .     S
O574   C575    1.406   .     S
C575   H576    1.107   .     S
C575   H577    1.109   .     S
C575   H578    1.108   .     S
O579   C580    1.416   .     S
C580   H583    1.100   .     S
C580   H582    1.108   .     S
C580   H581    1.104   .     S
C584   O586    1.219   .     D
C584   H585    1.078   .     S
O587   C588    1.412   .     S
C588   H589    1.107   .     S
C588   H591    1.106   .     S
C588   H590    1.115   .     S
O592   C593    1.406   .     S
C593   H594    1.108   .     S
C593   H595    1.114   .     S
C593   H596    1.108   .     S
O597   C598    1.416   .     S
O597   C1471   1.383   .     S
C598   H600    1.116   .     S
C598   H599    1.107   .     S
C598   H1537   1.112   .     S
H601   C1534   1.112   1_554 S
O602   C603    1.414   .     S
C603   H604    1.113   .     S
C603   H605    1.111   .     S
C603   H606    1.109   .     S
C607   H608    1.086   .     S
C607   O609    1.221   .     D
O610   C1476   1.378   1_554 S
O610   C1547   1.412   1_554 S
C611   H612    1.111   .     S
C611   O1546   1.412   .     S
C611   H1549   1.113   .     S
C611   H1446   1.109   .     S
H613   C1547   1.113   1_554 S
H614   C1339   1.109   1_654 S
O615   C616    1.418   .     S
C616   H619    1.111   .     S
C616   H618    1.114   .     S
C616   H617    1.107   .     S
O620   C621    1.416   .     S
C621   H622    1.106   .     S
C621   H623    1.110   .     S
C621   H624    1.113   .     S
O625   C627    1.315   .     A
O625   Cu631   1.963   .     S
O626   Cu632   1.977   .     S
O626   C627    1.313   .     A
C627   C661    1.469   .     S
O628   Cu631   1.976   .     S
O628   C630    1.309   .     A
O629   Cu632   1.985   .     S
O629   C630    1.334   .     A
C630   C654    1.505   .     S
Cu631  Cu632   2.740   .     S
Cu631  O635    1.985   .     S
Cu631  N664    2.059   .     S
Cu631  O633    1.977   .     S
Cu632  N667    2.059   .     S
Cu632  O636    1.976   .     S
Cu632  O634    1.963   .     S
O633   C637    1.310   .     A
O634   C637    1.318   .     A
O635   C638    1.308   .     A
O636   C638    1.320   .     A
C637   C658    1.470   .     S
C638   C642    1.467   .     S
C639   C653    1.398   .     A
C639   C1585   1.396   1_554 S
C639   O1637   1.383   1_554 S
H640   C653    1.073   .     S
H641   C650    1.079   .     S
C642   C652    1.404   .     A
C642   C653    1.394   .     A
C643   C644    1.411   .     A
C643   O706    1.381   .     S
C643   C654    1.416   .     A
C644   C1581   1.407   .     S
C644   O1650   1.378   .     S
C645   C711    1.480   .     S
C645   C1580   1.407   1_554 S
C645   C1582   1.415   1_554 S
C646   C647    1.407   .     A
C646   C1581   1.415   .     S
C646   C1584   1.427   .     S
C647   C651    1.387   .     A
C647   C654    1.405   .     A
C648   C652    1.398   .     A
C648   C1582   1.427   1_554 S
C648   C1585   1.419   1_554 S
C649   C650    1.400   .     A
C649   C1584   1.419   .     S
C649   C1575   1.396   .     S
C650   C651    1.389   .     A
C651   O719    1.379   .     S
C652   H655    1.069   .     S
C656   O724    1.375   .     S
C656   C661    1.404   .     A
C656   C33     1.401   1_565 S
C657   C658    1.402   .     A
C657   O668    1.393   .     S
C658   C659    1.416   .     A
C659   O673    1.377   .     S
C660   C661    1.398   .     A
C660   O678    1.388   .     S
C660   C35     1.405   1_565 S
C662   O683    1.394   .     S
C662   N667    1.381   .     A
C662   C767    1.458   .     S
C663   C688    1.471   .     S
C663   N664    1.375   .     A
C663   C870    1.458   1_455 S
N664   C665    1.373   .     A
C665   O691    1.381   .     S
C665   C874    1.445   1_455 S
C666   O696    1.381   .     S
C666   N667    1.381   .     A
C666   C769    1.445   .     S
O668   C669    1.406   .     S
C669   H671    1.106   .     S
C669   H670    1.110   .     S
C669   H672    1.107   .     S
O673   C674    1.416   .     S
C674   H676    1.108   .     S
C674   H677    1.114   .     S
C674   H675    1.103   .     S
O678   C679    1.406   .     S
C679   H680    1.107   .     S
C679   H681    1.109   .     S
C679   H682    1.108   .     S
O683   C684    1.416   .     S
C684   H687    1.100   .     S
C684   H686    1.108   .     S
C684   H685    1.104   .     S
C688   O690    1.219   .     D
C688   H689    1.078   .     S
O691   C692    1.412   .     S
C692   H693    1.107   .     S
C692   H695    1.106   .     S
C692   H694    1.115   .     S
O696   C697    1.406   .     S
C697   H698    1.108   .     S
C697   H699    1.114   .     S
C697   H700    1.108   .     S
O701   C702    1.416   .     S
O701   C1575   1.383   .     S
C702   H704    1.116   .     S
C702   H703    1.107   .     S
C702   H1641   1.112   .     S
H705   C1638   1.112   1_554 S
O706   C707    1.414   .     S
C707   H708    1.113   .     S
C707   H709    1.111   .     S
C707   H710    1.109   .     S
C711   H712    1.086   .     S
C711   O713    1.221   .     D
O714   C1580   1.378   1_554 S
O714   C1651   1.412   1_554 S
C715   H716    1.111   .     S
C715   O1650   1.412   .     S
C715   H1653   1.113   .     S
C715   H1862   1.109   1_455 S
H717   C1651   1.113   1_554 S
H718   C1755   1.109   1_554 S
O719   C720    1.418   .     S
C720   H723    1.111   .     S
C720   H722    1.114   .     S
C720   H721    1.107   .     S
O724   C725    1.416   .     S
C725   H726    1.106   .     S
C725   H727    1.110   .     S
C725   H728    1.113   .     S
O729   C731    1.315   .     A
O729   Cu735   1.963   .     S
O730   Cu736   1.977   .     S
O730   C731    1.313   .     A
C731   C765    1.469   .     S
O732   Cu735   1.976   .     S
O732   C734    1.309   .     A
O733   Cu736   1.985   .     S
O733   C734    1.334   .     A
C734   C758    1.505   .     S
Cu735  Cu736   2.740   .     S
Cu735  O739    1.985   .     S
Cu735  N768    2.059   .     S
Cu735  O737    1.977   .     S
Cu736  N771    2.059   .     S
Cu736  O740    1.976   .     S
Cu736  O738    1.963   .     S
O737   C741    1.310   .     A
O738   C741    1.318   .     A
O739   C742    1.308   .     A
O740   C742    1.320   .     A
C741   C762    1.470   .     S
C742   C746    1.467   .     S
C743   C757    1.398   .     A
C743   C1689   1.396   1_554 S
C743   O1741   1.383   1_554 S
H744   C757    1.073   .     S
H745   C754    1.079   .     S
C746   C756    1.404   .     A
C746   C757    1.394   .     A
C747   C748    1.411   .     A
C747   O810    1.381   .     S
C747   C758    1.416   .     A
C748   C1685   1.407   .     S
C748   O1754   1.378   .     S
C749   C815    1.480   .     S
C749   C1684   1.407   1_554 S
C749   C1686   1.415   1_554 S
C750   C751    1.407   .     A
C750   C1685   1.415   .     S
C750   C1688   1.427   .     S
C751   C755    1.387   .     A
C751   C758    1.405   .     A
C752   C756    1.398   .     A
C752   C1686   1.427   1_554 S
C752   C1689   1.419   1_554 S
C753   C754    1.400   .     A
C753   C1688   1.419   .     S
C753   C1679   1.396   .     S
C754   C755    1.389   .     A
C755   O823    1.379   .     S
C756   H759    1.069   .     S
C760   O828    1.375   .     S
C760   C765    1.404   .     A
C760   C137    1.401   1_565 S
C761   C762    1.402   .     A
C761   O772    1.393   .     S
C762   C763    1.416   .     A
C763   O777    1.377   .     S
C764   C765    1.398   .     A
C764   O782    1.388   .     S
C764   C139    1.405   1_565 S
C766   O787    1.394   .     S
C766   N771    1.381   .     A
C766   C871    1.458   .     S
C767   C792    1.471   .     S
C767   N768    1.375   .     A
N768   C769    1.373   .     A
C769   O795    1.381   .     S
C770   O800    1.381   .     S
C770   N771    1.381   .     A
C770   C873    1.445   .     S
O772   C773    1.406   .     S
C773   H775    1.106   .     S
C773   H774    1.110   .     S
C773   H776    1.107   .     S
O777   C778    1.416   .     S
C778   H780    1.108   .     S
C778   H781    1.114   .     S
C778   H779    1.103   .     S
O782   C783    1.406   .     S
C783   H784    1.107   .     S
C783   H785    1.109   .     S
C783   H786    1.108   .     S
O787   C788    1.416   .     S
C788   H791    1.100   .     S
C788   H790    1.108   .     S
C788   H789    1.104   .     S
C792   O794    1.219   .     D
C792   H793    1.078   .     S
O795   C796    1.412   .     S
C796   H797    1.107   .     S
C796   H799    1.106   .     S
C796   H798    1.115   .     S
O800   C801    1.406   .     S
C801   H802    1.108   .     S
C801   H803    1.114   .     S
C801   H804    1.108   .     S
O805   C806    1.416   .     S
O805   C1679   1.383   .     S
C806   H808    1.116   .     S
C806   H807    1.107   .     S
C806   H1745   1.112   .     S
H809   C1742   1.112   1_554 S
O810   C811    1.414   .     S
C811   H812    1.113   .     S
C811   H813    1.111   .     S
C811   H814    1.109   .     S
C815   H816    1.086   .     S
C815   O817    1.221   .     D
O818   C1684   1.378   1_554 S
O818   C1755   1.412   1_554 S
C819   H820    1.111   .     S
C819   O1754   1.412   .     S
C819   H1757   1.113   .     S
C819   H1654   1.109   .     S
H821   C1755   1.113   1_554 S
H822   C1859   1.109   1_554 S
O823   C824    1.418   .     S
C824   H827    1.111   .     S
C824   H826    1.114   .     S
C824   H825    1.107   .     S
O828   C829    1.416   .     S
C829   H830    1.106   .     S
C829   H831    1.110   .     S
C829   H832    1.113   .     S
O833   C835    1.315   .     A
O833   Cu839   1.963   .     S
O834   Cu840   1.977   .     S
O834   C835    1.313   .     A
C835   C869    1.469   .     S
O836   Cu839   1.976   .     S
O836   C838    1.309   .     A
O837   Cu840   1.985   .     S
O837   C838    1.334   .     A
C838   C862    1.505   .     S
Cu839  Cu840   2.740   .     S
Cu839  O843    1.985   .     S
Cu839  N872    2.059   .     S
Cu839  O841    1.977   .     S
Cu840  N875    2.059   .     S
Cu840  O844    1.976   .     S
Cu840  O842    1.963   .     S
O841   C845    1.310   .     A
O842   C845    1.318   .     A
O843   C846    1.308   .     A
O844   C846    1.320   .     A
C845   C866    1.470   .     S
C846   C850    1.467   .     S
C847   C861    1.398   .     A
C847   C1793   1.396   1_554 S
C847   O1845   1.383   1_554 S
H848   C861    1.073   .     S
H849   C858    1.079   .     S
C850   C860    1.404   .     A
C850   C861    1.394   .     A
C851   C852    1.411   .     A
C851   O914    1.381   .     S
C851   C862    1.416   .     A
C852   C1789   1.407   .     S
C852   O1858   1.378   .     S
C853   C919    1.480   .     S
C853   C1788   1.407   1_554 S
C853   C1790   1.415   1_554 S
C854   C855    1.407   .     A
C854   C1789   1.415   .     S
C854   C1792   1.427   .     S
C855   C859    1.387   .     A
C855   C862    1.405   .     A
C856   C860    1.398   .     A
C856   C1790   1.427   1_554 S
C856   C1793   1.419   1_554 S
C857   C858    1.400   .     A
C857   C1792   1.419   .     S
C857   C1783   1.396   .     S
C858   C859    1.389   .     A
C859   O927    1.379   .     S
C860   H863    1.069   .     S
C864   O932    1.375   .     S
C864   C869    1.404   .     A
C864   C241    1.401   1_565 S
C865   C866    1.402   .     A
C865   O876    1.393   .     S
C866   C867    1.416   .     A
C867   O881    1.377   .     S
C868   C869    1.398   .     A
C868   O886    1.388   .     S
C868   C243    1.405   1_565 S
C870   O891    1.394   .     S
C870   N875    1.381   .     A
C870   C663    1.458   1_655 S
C871   C896    1.471   .     S
C871   N872    1.375   .     A
N872   C873    1.373   .     A
C873   O899    1.381   .     S
C874   O904    1.381   .     S
C874   N875    1.381   .     A
C874   C665    1.445   1_655 S
O876   C877    1.406   .     S
C877   H879    1.106   .     S
C877   H878    1.110   .     S
C877   H880    1.107   .     S
O881   C882    1.416   .     S
C882   H884    1.108   .     S
C882   H885    1.114   .     S
C882   H883    1.103   .     S
O886   C887    1.406   .     S
C887   H888    1.107   .     S
C887   H889    1.109   .     S
C887   H890    1.108   .     S
O891   C892    1.416   .     S
C892   H895    1.100   .     S
C892   H894    1.108   .     S
C892   H893    1.104   .     S
C896   O898    1.219   .     D
C896   H897    1.078   .     S
O899   C900    1.412   .     S
C900   H901    1.107   .     S
C900   H903    1.106   .     S
C900   H902    1.115   .     S
O904   C905    1.406   .     S
C905   H906    1.108   .     S
C905   H907    1.114   .     S
C905   H908    1.108   .     S
O909   C910    1.416   .     S
O909   C1783   1.383   .     S
C910   H912    1.116   .     S
C910   H911    1.107   .     S
C910   H1849   1.112   .     S
H913   C1846   1.112   1_554 S
O914   C915    1.414   .     S
C915   H916    1.113   .     S
C915   H917    1.111   .     S
C915   H918    1.109   .     S
C919   H920    1.086   .     S
C919   O921    1.221   .     D
O922   C1788   1.378   1_554 S
O922   C1859   1.412   1_554 S
C923   H924    1.111   .     S
C923   O1858   1.412   .     S
C923   H1861   1.113   .     S
C923   H1758   1.109   .     S
H925   C1859   1.113   1_554 S
H926   C1651   1.109   1_654 S
O927   C928    1.418   .     S
C928   H931    1.111   .     S
C928   H930    1.114   .     S
C928   H929    1.107   .     S
O932   C933    1.416   .     S
C933   H934    1.106   .     S
C933   H935    1.110   .     S
C933   H936    1.113   .     S
O937   C939    1.315   .     A
O937   Cu943   1.963   .     S
O938   Cu944   1.977   .     S
O938   C939    1.313   .     A
C939   C973    1.469   .     S
O940   Cu943   1.976   .     S
O940   C942    1.309   .     A
O941   Cu944   1.985   .     S
O941   C942    1.334   .     A
C942   C966    1.505   .     S
Cu943  Cu944   2.740   .     S
Cu943  O947    1.985   .     S
Cu943  N976    2.059   .     S
Cu943  O945    1.977   .     S
Cu944  N979    2.059   .     S
Cu944  O948    1.976   .     S
Cu944  O946    1.963   .     S
O945   C949    1.310   .     A
O946   C949    1.318   .     A
O947   C950    1.308   .     A
O948   C950    1.320   .     A
C949   C970    1.470   .     S
C950   C954    1.467   .     S
C951   C965    1.398   .     A
H952   C965    1.073   .     S
H953   C962    1.079   .     S
C954   C964    1.404   .     A
C954   C965    1.394   .     A
C955   C956    1.411   .     A
C955   O1018   1.381   .     S
C955   C966    1.416   .     A
C956   C21     1.407   1_556 S
C956   O90     1.378   1_556 S
C957   C1023   1.480   .     S
C958   C959    1.407   .     A
C958   C21     1.415   1_556 S
C958   C24     1.427   1_556 S
C959   C963    1.387   .     A
C959   C966    1.405   .     A
C960   C964    1.398   .     A
C961   C962    1.400   .     A
C961   C24     1.419   1_556 S
C961   C15     1.396   1_556 S
C962   C963    1.389   .     A
C963   O1031   1.379   .     S
C964   H967    1.069   .     S
C968   O1036   1.375   .     S
C968   C973    1.404   .     A
C968   C1281   1.401   .     S
C969   C970    1.402   .     A
C969   O980    1.393   .     S
C969   C1592   1.401   1_545 S
C970   C971    1.416   .     A
C971   O985    1.377   .     S
C971   C1596   1.405   1_545 S
C972   C973    1.398   .     A
C972   O990    1.388   .     S
C972   C1283   1.405   .     S
C974   O995    1.394   .     S
C974   N979    1.381   .     A
C974   C1079   1.458   .     S
C975   C1000   1.471   .     S
C975   N976    1.375   .     A
C975   C1182   1.458   1_455 S
N976   C977    1.373   .     A
C977   O1003   1.381   .     S
C977   C1186   1.445   1_455 S
C978   O1008   1.381   .     S
C978   N979    1.381   .     A
C978   C1081   1.445   .     S
O980   C981    1.406   .     S
C981   H983    1.106   .     S
C981   H982    1.110   .     S
C981   H984    1.107   .     S
O985   C986    1.416   .     S
C986   H988    1.108   .     S
C986   H989    1.114   .     S
C986   H987    1.103   .     S
O990   C991    1.406   .     S
C991   H992    1.107   .     S
C991   H993    1.109   .     S
C991   H994    1.108   .     S
O995   C996    1.416   .     S
C996   H999    1.100   .     S
C996   H998    1.108   .     S
C996   H997    1.104   .     S
C1000  O1002   1.219   .     D
C1000  H1001   1.078   .     S
O1003  C1004   1.412   .     S
C1004  H1005   1.107   .     S
C1004  H1007   1.106   .     S
C1004  H1006   1.115   .     S
O1008  C1009   1.406   .     S
C1009  H1010   1.108   .     S
C1009  H1011   1.114   .     S
C1009  H1012   1.108   .     S
O1013  C1014   1.416   .     S
O1013  C15     1.383   1_556 S
C1014  H1016   1.116   .     S
C1014  H1015   1.107   .     S
C1014  H81     1.112   1_556 S
O1018  C1019   1.414   .     S
C1019  H1020   1.113   .     S
C1019  H1021   1.111   .     S
C1019  H1022   1.109   .     S
C1023  H1024   1.086   .     S
C1023  O1025   1.221   .     D
C1027  H1028   1.111   .     S
C1027  O90     1.412   1_556 S
C1027  H93     1.113   1_556 S
C1027  H302    1.109   1_456 S
O1031  C1032   1.418   .     S
C1032  H1035   1.111   .     S
C1032  H1034   1.114   .     S
C1032  H1033   1.107   .     S
O1036  C1037   1.416   .     S
C1037  H1038   1.106   .     S
C1037  H1039   1.110   .     S
C1037  H1040   1.113   .     S
O1041  C1043   1.315   .     A
O1041  Cu1047  1.963   .     S
O1042  Cu1048  1.977   .     S
O1042  C1043   1.313   .     A
C1043  C1077   1.469   .     S
O1044  Cu1047  1.976   .     S
O1044  C1046   1.309   .     A
O1045  Cu1048  1.985   .     S
O1045  C1046   1.334   .     A
C1046  C1070   1.505   .     S
Cu1047 Cu1048  2.740   .     S
Cu1047 O1051   1.985   .     S
Cu1047 N1080   2.059   .     S
Cu1047 O1049   1.977   .     S
Cu1048 N1083   2.059   .     S
Cu1048 O1052   1.976   .     S
Cu1048 O1050   1.963   .     S
O1049  C1053   1.310   .     A
O1050  C1053   1.318   .     A
O1051  C1054   1.308   .     A
O1052  C1054   1.320   .     A
C1053  C1074   1.470   .     S
C1054  C1058   1.467   .     S
C1055  C1069   1.398   .     A
H1056  C1069   1.073   .     S
H1057  C1066   1.079   .     S
C1058  C1068   1.404   .     A
C1058  C1069   1.394   .     A
C1059  C1060   1.411   .     A
C1059  O1122   1.381   .     S
C1059  C1070   1.416   .     A
C1060  C125    1.407   1_556 S
C1060  O194    1.378   1_556 S
C1061  C1127   1.480   .     S
C1062  C1063   1.407   .     A
C1062  C125    1.415   1_556 S
C1062  C128    1.427   1_556 S
C1063  C1067   1.387   .     A
C1063  C1070   1.405   .     A
C1064  C1068   1.398   .     A
C1065  C1066   1.400   .     A
C1065  C128    1.419   1_556 S
C1065  C119    1.396   1_556 S
C1066  C1067   1.389   .     A
C1067  O1135   1.379   .     S
C1068  H1071   1.069   .     S
C1072  O1140   1.375   .     S
C1072  C1077   1.404   .     A
C1072  C1385   1.401   .     S
C1073  C1074   1.402   .     A
C1073  O1084   1.393   .     S
C1073  C1696   1.401   1_545 S
C1074  C1075   1.416   .     A
C1075  O1089   1.377   .     S
C1075  C1700   1.405   1_545 S
C1076  C1077   1.398   .     A
C1076  O1094   1.388   .     S
C1076  C1387   1.405   .     S
C1078  O1099   1.394   .     S
C1078  N1083   1.381   .     A
C1078  C1183   1.458   .     S
C1079  C1104   1.471   .     S
C1079  N1080   1.375   .     A
N1080  C1081   1.373   .     A
C1081  O1107   1.381   .     S
C1082  O1112   1.381   .     S
C1082  N1083   1.381   .     A
C1082  C1185   1.445   .     S
O1084  C1085   1.406   .     S
C1085  H1087   1.106   .     S
C1085  H1086   1.110   .     S
C1085  H1088   1.107   .     S
O1089  C1090   1.416   .     S
C1090  H1092   1.108   .     S
C1090  H1093   1.114   .     S
C1090  H1091   1.103   .     S
O1094  C1095   1.406   .     S
C1095  H1096   1.107   .     S
C1095  H1097   1.109   .     S
C1095  H1098   1.108   .     S
O1099  C1100   1.416   .     S
C1100  H1103   1.100   .     S
C1100  H1102   1.108   .     S
C1100  H1101   1.104   .     S
C1104  O1106   1.219   .     D
C1104  H1105   1.078   .     S
O1107  C1108   1.412   .     S
C1108  H1109   1.107   .     S
C1108  H1111   1.106   .     S
C1108  H1110   1.115   .     S
O1112  C1113   1.406   .     S
C1113  H1114   1.108   .     S
C1113  H1115   1.114   .     S
C1113  H1116   1.108   .     S
O1117  C1118   1.416   .     S
O1117  C119    1.383   1_556 S
C1118  H1120   1.116   .     S
C1118  H1119   1.107   .     S
C1118  H185    1.112   1_556 S
O1122  C1123   1.414   .     S
C1123  H1124   1.113   .     S
C1123  H1125   1.111   .     S
C1123  H1126   1.109   .     S
C1127  H1128   1.086   .     S
C1127  O1129   1.221   .     D
C1131  H1132   1.111   .     S
C1131  O194    1.412   1_556 S
C1131  H197    1.113   1_556 S
C1131  H94     1.109   1_556 S
O1135  C1136   1.418   .     S
C1136  H1139   1.111   .     S
C1136  H1138   1.114   .     S
C1136  H1137   1.107   .     S
O1140  C1141   1.416   .     S
C1141  H1142   1.106   .     S
C1141  H1143   1.110   .     S
C1141  H1144   1.113   .     S
O1145  C1147   1.315   .     A
O1145  Cu1151  1.963   .     S
O1146  Cu1152  1.977   .     S
O1146  C1147   1.313   .     A
C1147  C1181   1.469   .     S
O1148  Cu1151  1.976   .     S
O1148  C1150   1.309   .     A
O1149  Cu1152  1.985   .     S
O1149  C1150   1.334   .     A
C1150  C1174   1.505   .     S
Cu1151 Cu1152  2.740   .     S
Cu1151 O1155   1.985   .     S
Cu1151 N1184   2.059   .     S
Cu1151 O1153   1.977   .     S
Cu1152 N1187   2.059   .     S
Cu1152 O1156   1.976   .     S
Cu1152 O1154   1.963   .     S
O1153  C1157   1.310   .     A
O1154  C1157   1.318   .     A
O1155  C1158   1.308   .     A
O1156  C1158   1.320   .     A
C1157  C1178   1.470   .     S
C1158  C1162   1.467   .     S
C1159  C1173   1.398   .     A
H1160  C1173   1.073   .     S
H1161  C1170   1.079   .     S
C1162  C1172   1.404   .     A
C1162  C1173   1.394   .     A
C1163  C1164   1.411   .     A
C1163  O1226   1.381   .     S
C1163  C1174   1.416   .     A
C1164  C229    1.407   1_556 S
C1164  O298    1.378   1_556 S
C1165  C1231   1.480   .     S
C1166  C1167   1.407   .     A
C1166  C229    1.415   1_556 S
C1166  C232    1.427   1_556 S
C1167  C1171   1.387   .     A
C1167  C1174   1.405   .     A
C1168  C1172   1.398   .     A
C1169  C1170   1.400   .     A
C1169  C232    1.419   1_556 S
C1169  C223    1.396   1_556 S
C1170  C1171   1.389   .     A
C1171  O1239   1.379   .     S
C1172  H1175   1.069   .     S
C1176  O1244   1.375   .     S
C1176  C1181   1.404   .     A
C1176  C1489   1.401   .     S
C1177  C1178   1.402   .     A
C1177  O1188   1.393   .     S
C1177  C1800   1.401   1_545 S
C1178  C1179   1.416   .     A
C1179  O1193   1.377   .     S
C1179  C1804   1.405   1_545 S
C1180  C1181   1.398   .     A
C1180  O1198   1.388   .     S
C1180  C1491   1.405   .     S
C1182  O1203   1.394   .     S
C1182  N1187   1.381   .     A
C1182  C975    1.458   1_655 S
C1183  C1208   1.471   .     S
C1183  N1184   1.375   .     A
N1184  C1185   1.373   .     A
C1185  O1211   1.381   .     S
C1186  O1216   1.381   .     S
C1186  N1187   1.381   .     A
C1186  C977    1.445   1_655 S
O1188  C1189   1.406   .     S
C1189  H1191   1.106   .     S
C1189  H1190   1.110   .     S
C1189  H1192   1.107   .     S
O1193  C1194   1.416   .     S
C1194  H1196   1.108   .     S
C1194  H1197   1.114   .     S
C1194  H1195   1.103   .     S
O1198  C1199   1.406   .     S
C1199  H1200   1.107   .     S
C1199  H1201   1.109   .     S
C1199  H1202   1.108   .     S
O1203  C1204   1.416   .     S
C1204  H1207   1.100   .     S
C1204  H1206   1.108   .     S
C1204  H1205   1.104   .     S
C1208  O1210   1.219   .     D
C1208  H1209   1.078   .     S
O1211  C1212   1.412   .     S
C1212  H1213   1.107   .     S
C1212  H1215   1.106   .     S
C1212  H1214   1.115   .     S
O1216  C1217   1.406   .     S
C1217  H1218   1.108   .     S
C1217  H1219   1.114   .     S
C1217  H1220   1.108   .     S
O1221  C1222   1.416   .     S
O1221  C223    1.383   1_556 S
C1222  H1224   1.116   .     S
C1222  H1223   1.107   .     S
C1222  H289    1.112   1_556 S
O1226  C1227   1.414   .     S
C1227  H1228   1.113   .     S
C1227  H1229   1.111   .     S
C1227  H1230   1.109   .     S
C1231  H1232   1.086   .     S
C1231  O1233   1.221   .     D
C1235  H1236   1.111   .     S
C1235  O298    1.412   1_556 S
C1235  H301    1.113   1_556 S
C1235  H198    1.109   1_556 S
H1238  C91     1.109   1_655 S
O1239  C1240   1.418   .     S
C1240  H1243   1.111   .     S
C1240  H1242   1.114   .     S
C1240  H1241   1.107   .     S
O1244  C1245   1.416   .     S
C1245  H1246   1.106   .     S
C1245  H1247   1.110   .     S
C1245  H1248   1.113   .     S
O1249  C1251   1.315   .     A
O1249  Cu1255  1.963   .     S
O1250  Cu1256  1.977   .     S
O1250  C1251   1.313   .     A
C1251  C1285   1.469   .     S
O1252  Cu1255  1.976   .     S
O1252  C1254   1.309   .     A
O1253  Cu1256  1.985   .     S
O1253  C1254   1.334   .     A
C1254  C1278   1.505   .     S
Cu1255 Cu1256  2.740   .     S
Cu1255 O1259   1.985   .     S
Cu1255 N1288   2.059   .     S
Cu1255 O1257   1.977   .     S
Cu1256 N1291   2.059   .     S
Cu1256 O1260   1.976   .     S
Cu1256 O1258   1.963   .     S
O1257  C1261   1.310   .     A
O1258  C1261   1.318   .     A
O1259  C1262   1.308   .     A
O1260  C1262   1.320   .     A
C1261  C1282   1.470   .     S
C1262  C1266   1.467   .     S
C1263  C1277   1.398   .     A
H1264  C1277   1.073   .     S
H1265  C1274   1.079   .     S
C1266  C1276   1.404   .     A
C1266  C1277   1.394   .     A
C1267  C1268   1.411   .     A
C1267  O1330   1.381   .     S
C1267  C1278   1.416   .     A
C1268  C333    1.407   1_556 S
C1268  O402    1.378   1_556 S
C1269  C1335   1.480   .     S
C1270  C1271   1.407   .     A
C1270  C333    1.415   1_556 S
C1270  C336    1.427   1_556 S
C1271  C1275   1.387   .     A
C1271  C1278   1.405   .     A
C1272  C1276   1.398   .     A
C1273  C1274   1.400   .     A
C1273  C336    1.419   1_556 S
C1273  C327    1.396   1_556 S
C1274  C1275   1.389   .     A
C1275  O1343   1.379   .     S
C1276  H1279   1.069   .     S
C1280  O1348   1.375   .     S
C1280  C1285   1.404   .     A
C1280  C1593   1.401   .     S
C1281  C1282   1.402   .     A
C1281  O1292   1.393   .     S
C1282  C1283   1.416   .     A
C1283  O1297   1.377   .     S
C1284  C1285   1.398   .     A
C1284  O1302   1.388   .     S
C1284  C1595   1.405   .     S
C1286  O1307   1.394   .     S
C1286  N1291   1.381   .     A
C1286  C1391   1.458   .     S
C1287  C1312   1.471   .     S
C1287  N1288   1.375   .     A
C1287  C1494   1.458   1_455 S
N1288  C1289   1.373   .     A
C1289  O1315   1.381   .     S
C1289  C1498   1.445   1_455 S
C1290  O1320   1.381   .     S
C1290  N1291   1.381   .     A
C1290  C1393   1.445   .     S
O1292  C1293   1.406   .     S
C1293  H1295   1.106   .     S
C1293  H1294   1.110   .     S
C1293  H1296   1.107   .     S
O1297  C1298   1.416   .     S
C1298  H1300   1.108   .     S
C1298  H1301   1.114   .     S
C1298  H1299   1.103   .     S
O1302  C1303   1.406   .     S
C1303  H1304   1.107   .     S
C1303  H1305   1.109   .     S
C1303  H1306   1.108   .     S
O1307  C1308   1.416   .     S
C1308  H1311   1.100   .     S
C1308  H1310   1.108   .     S
C1308  H1309   1.104   .     S
C1312  O1314   1.219   .     D
C1312  H1313   1.078   .     S
O1315  C1316   1.412   .     S
C1316  H1317   1.107   .     S
C1316  H1319   1.106   .     S
C1316  H1318   1.115   .     S
O1320  C1321   1.406   .     S
C1321  H1322   1.108   .     S
C1321  H1323   1.114   .     S
C1321  H1324   1.108   .     S
O1325  C1326   1.416   .     S
O1325  C327    1.383   1_556 S
C1326  H1328   1.116   .     S
C1326  H1327   1.107   .     S
C1326  H393    1.112   1_556 S
O1330  C1331   1.414   .     S
C1331  H1332   1.113   .     S
C1331  H1333   1.111   .     S
C1331  H1334   1.109   .     S
C1335  H1336   1.086   .     S
C1335  O1337   1.221   .     D
C1339  H1340   1.111   .     S
C1339  O402    1.412   1_556 S
C1339  H405    1.113   1_556 S
C1339  H614    1.109   1_456 S
O1343  C1344   1.418   .     S
C1344  H1347   1.111   .     S
C1344  H1346   1.114   .     S
C1344  H1345   1.107   .     S
O1348  C1349   1.416   .     S
C1349  H1350   1.106   .     S
C1349  H1351   1.110   .     S
C1349  H1352   1.113   .     S
O1353  C1355   1.315   .     A
O1353  Cu1359  1.963   .     S
O1354  Cu1360  1.977   .     S
O1354  C1355   1.313   .     A
C1355  C1389   1.469   .     S
O1356  Cu1359  1.976   .     S
O1356  C1358   1.309   .     A
O1357  Cu1360  1.985   .     S
O1357  C1358   1.334   .     A
C1358  C1382   1.505   .     S
Cu1359 Cu1360  2.740   .     S
Cu1359 O1363   1.985   .     S
Cu1359 N1392   2.059   .     S
Cu1359 O1361   1.977   .     S
Cu1360 N1395   2.059   .     S
Cu1360 O1364   1.976   .     S
Cu1360 O1362   1.963   .     S
O1361  C1365   1.310   .     A
O1362  C1365   1.318   .     A
O1363  C1366   1.308   .     A
O1364  C1366   1.320   .     A
C1365  C1386   1.470   .     S
C1366  C1370   1.467   .     S
C1367  C1381   1.398   .     A
H1368  C1381   1.073   .     S
H1369  C1378   1.079   .     S
C1370  C1380   1.404   .     A
C1370  C1381   1.394   .     A
C1371  C1372   1.411   .     A
C1371  O1434   1.381   .     S
C1371  C1382   1.416   .     A
C1372  C437    1.407   1_556 S
C1372  O506    1.378   1_556 S
C1373  C1439   1.480   .     S
C1374  C1375   1.407   .     A
C1374  C437    1.415   1_556 S
C1374  C440    1.427   1_556 S
C1375  C1379   1.387   .     A
C1375  C1382   1.405   .     A
C1376  C1380   1.398   .     A
C1377  C1378   1.400   .     A
C1377  C440    1.419   1_556 S
C1377  C431    1.396   1_556 S
C1378  C1379   1.389   .     A
C1379  O1447   1.379   .     S
C1380  H1383   1.069   .     S
C1384  O1452   1.375   .     S
C1384  C1389   1.404   .     A
C1384  C1697   1.401   .     S
C1385  C1386   1.402   .     A
C1385  O1396   1.393   .     S
C1386  C1387   1.416   .     A
C1387  O1401   1.377   .     S
C1388  C1389   1.398   .     A
C1388  O1406   1.388   .     S
C1388  C1699   1.405   .     S
C1390  O1411   1.394   .     S
C1390  N1395   1.381   .     A
C1390  C1495   1.458   .     S
C1391  C1416   1.471   .     S
C1391  N1392   1.375   .     A
N1392  C1393   1.373   .     A
C1393  O1419   1.381   .     S
C1394  O1424   1.381   .     S
C1394  N1395   1.381   .     A
C1394  C1497   1.445   .     S
O1396  C1397   1.406   .     S
C1397  H1399   1.106   .     S
C1397  H1398   1.110   .     S
C1397  H1400   1.107   .     S
O1401  C1402   1.416   .     S
C1402  H1404   1.108   .     S
C1402  H1405   1.114   .     S
C1402  H1403   1.103   .     S
O1406  C1407   1.406   .     S
C1407  H1408   1.107   .     S
C1407  H1409   1.109   .     S
C1407  H1410   1.108   .     S
O1411  C1412   1.416   .     S
C1412  H1415   1.100   .     S
C1412  H1414   1.108   .     S
C1412  H1413   1.104   .     S
C1416  O1418   1.219   .     D
C1416  H1417   1.078   .     S
O1419  C1420   1.412   .     S
C1420  H1421   1.107   .     S
C1420  H1423   1.106   .     S
C1420  H1422   1.115   .     S
O1424  C1425   1.406   .     S
C1425  H1426   1.108   .     S
C1425  H1427   1.114   .     S
C1425  H1428   1.108   .     S
O1429  C1430   1.416   .     S
O1429  C431    1.383   1_556 S
C1430  H1432   1.116   .     S
C1430  H1431   1.107   .     S
C1430  H497    1.112   1_556 S
O1434  C1435   1.414   .     S
C1435  H1436   1.113   .     S
C1435  H1437   1.111   .     S
C1435  H1438   1.109   .     S
C1439  H1440   1.086   .     S
C1439  O1441   1.221   .     D
C1443  H1444   1.111   .     S
C1443  O506    1.412   1_556 S
C1443  H509    1.113   1_556 S
C1443  H406    1.109   1_556 S
O1447  C1448   1.418   .     S
C1448  H1451   1.111   .     S
C1448  H1450   1.114   .     S
C1448  H1449   1.107   .     S
O1452  C1453   1.416   .     S
C1453  H1454   1.106   .     S
C1453  H1455   1.110   .     S
C1453  H1456   1.113   .     S
O1457  C1459   1.315   .     A
O1457  Cu1463  1.963   .     S
O1458  Cu1464  1.977   .     S
O1458  C1459   1.313   .     A
C1459  C1493   1.469   .     S
O1460  Cu1463  1.976   .     S
O1460  C1462   1.309   .     A
O1461  Cu1464  1.985   .     S
O1461  C1462   1.334   .     A
C1462  C1486   1.505   .     S
Cu1463 Cu1464  2.740   .     S
Cu1463 O1467   1.985   .     S
Cu1463 N1496   2.059   .     S
Cu1463 O1465   1.977   .     S
Cu1464 N1499   2.059   .     S
Cu1464 O1468   1.976   .     S
Cu1464 O1466   1.963   .     S
O1465  C1469   1.310   .     A
O1466  C1469   1.318   .     A
O1467  C1470   1.308   .     A
O1468  C1470   1.320   .     A
C1469  C1490   1.470   .     S
C1470  C1474   1.467   .     S
C1471  C1485   1.398   .     A
H1472  C1485   1.073   .     S
H1473  C1482   1.079   .     S
C1474  C1484   1.404   .     A
C1474  C1485   1.394   .     A
C1475  C1476   1.411   .     A
C1475  O1538   1.381   .     S
C1475  C1486   1.416   .     A
C1476  C541    1.407   1_556 S
C1476  O610    1.378   1_556 S
C1477  C1543   1.480   .     S
C1478  C1479   1.407   .     A
C1478  C541    1.415   1_556 S
C1478  C544    1.427   1_556 S
C1479  C1483   1.387   .     A
C1479  C1486   1.405   .     A
C1480  C1484   1.398   .     A
C1481  C1482   1.400   .     A
C1481  C544    1.419   1_556 S
C1481  C535    1.396   1_556 S
C1482  C1483   1.389   .     A
C1483  O1551   1.379   .     S
C1484  H1487   1.069   .     S
C1488  O1556   1.375   .     S
C1488  C1493   1.404   .     A
C1488  C1801   1.401   .     S
C1489  C1490   1.402   .     A
C1489  O1500   1.393   .     S
C1490  C1491   1.416   .     A
C1491  O1505   1.377   .     S
C1492  C1493   1.398   .     A
C1492  O1510   1.388   .     S
C1492  C1803   1.405   .     S
C1494  O1515   1.394   .     S
C1494  N1499   1.381   .     A
C1494  C1287   1.458   1_655 S
C1495  C1520   1.471   .     S
C1495  N1496   1.375   .     A
N1496  C1497   1.373   .     A
C1497  O1523   1.381   .     S
C1498  O1528   1.381   .     S
C1498  N1499   1.381   .     A
C1498  C1289   1.445   1_655 S
O1500  C1501   1.406   .     S
C1501  H1503   1.106   .     S
C1501  H1502   1.110   .     S
C1501  H1504   1.107   .     S
O1505  C1506   1.416   .     S
C1506  H1508   1.108   .     S
C1506  H1509   1.114   .     S
C1506  H1507   1.103   .     S
O1510  C1511   1.406   .     S
C1511  H1512   1.107   .     S
C1511  H1513   1.109   .     S
C1511  H1514   1.108   .     S
O1515  C1516   1.416   .     S
C1516  H1519   1.100   .     S
C1516  H1518   1.108   .     S
C1516  H1517   1.104   .     S
C1520  O1522   1.219   .     D
C1520  H1521   1.078   .     S
O1523  C1524   1.412   .     S
C1524  H1525   1.107   .     S
C1524  H1527   1.106   .     S
C1524  H1526   1.115   .     S
O1528  C1529   1.406   .     S
C1529  H1530   1.108   .     S
C1529  H1531   1.114   .     S
C1529  H1532   1.108   .     S
O1533  C1534   1.416   .     S
O1533  C535    1.383   1_556 S
C1534  H1536   1.116   .     S
C1534  H1535   1.107   .     S
C1534  H601    1.112   1_556 S
O1538  C1539   1.414   .     S
C1539  H1540   1.113   .     S
C1539  H1541   1.111   .     S
C1539  H1542   1.109   .     S
C1543  H1544   1.086   .     S
C1543  O1545   1.221   .     D
C1547  H1548   1.111   .     S
C1547  O610    1.412   1_556 S
C1547  H613    1.113   1_556 S
C1547  H510    1.109   1_556 S
H1550  C403    1.109   1_655 S
O1551  C1552   1.418   .     S
C1552  H1555   1.111   .     S
C1552  H1554   1.114   .     S
C1552  H1553   1.107   .     S
O1556  C1557   1.416   .     S
C1557  H1558   1.106   .     S
C1557  H1559   1.110   .     S
C1557  H1560   1.113   .     S
O1561  C1563   1.315   .     A
O1561  Cu1567  1.963   .     S
O1562  Cu1568  1.977   .     S
O1562  C1563   1.313   .     A
C1563  C1597   1.469   .     S
O1564  Cu1567  1.976   .     S
O1564  C1566   1.309   .     A
O1565  Cu1568  1.985   .     S
O1565  C1566   1.334   .     A
C1566  C1590   1.505   .     S
Cu1567 Cu1568  2.740   .     S
Cu1567 O1571   1.985   .     S
Cu1567 N1600   2.059   .     S
Cu1567 O1569   1.977   .     S
Cu1568 N1603   2.059   .     S
Cu1568 O1572   1.976   .     S
Cu1568 O1570   1.963   .     S
O1569  C1573   1.310   .     A
O1570  C1573   1.318   .     A
O1571  C1574   1.308   .     A
O1572  C1574   1.320   .     A
C1573  C1594   1.470   .     S
C1574  C1578   1.467   .     S
C1575  C1589   1.398   .     A
H1576  C1589   1.073   .     S
H1577  C1586   1.079   .     S
C1578  C1588   1.404   .     A
C1578  C1589   1.394   .     A
C1579  C1580   1.411   .     A
C1579  O1642   1.381   .     S
C1579  C1590   1.416   .     A
C1580  C645    1.407   1_556 S
C1580  O714    1.378   1_556 S
C1581  C1647   1.480   .     S
C1582  C1583   1.407   .     A
C1582  C645    1.415   1_556 S
C1582  C648    1.427   1_556 S
C1583  C1587   1.387   .     A
C1583  C1590   1.405   .     A
C1584  C1588   1.398   .     A
C1585  C1586   1.400   .     A
C1585  C648    1.419   1_556 S
C1585  C639    1.396   1_556 S
C1586  C1587   1.389   .     A
C1587  O1655   1.379   .     S
C1588  H1591   1.069   .     S
C1592  O1660   1.375   .     S
C1592  C1597   1.404   .     A
C1592  C969    1.401   1_565 S
C1593  C1594   1.402   .     A
C1593  O1604   1.393   .     S
C1594  C1595   1.416   .     A
C1595  O1609   1.377   .     S
C1596  C1597   1.398   .     A
C1596  O1614   1.388   .     S
C1596  C971    1.405   1_565 S
C1598  O1619   1.394   .     S
C1598  N1603   1.381   .     A
C1598  C1703   1.458   .     S
C1599  C1624   1.471   .     S
C1599  N1600   1.375   .     A
C1599  C1806   1.458   1_455 S
N1600  C1601   1.373   .     A
C1601  O1627   1.381   .     S
C1601  C1810   1.445   1_455 S
C1602  O1632   1.381   .     S
C1602  N1603   1.381   .     A
C1602  C1705   1.445   .     S
O1604  C1605   1.406   .     S
C1605  H1607   1.106   .     S
C1605  H1606   1.110   .     S
C1605  H1608   1.107   .     S
O1609  C1610   1.416   .     S
C1610  H1612   1.108   .     S
C1610  H1613   1.114   .     S
C1610  H1611   1.103   .     S
O1614  C1615   1.406   .     S
C1615  H1616   1.107   .     S
C1615  H1617   1.109   .     S
C1615  H1618   1.108   .     S
O1619  C1620   1.416   .     S
C1620  H1623   1.100   .     S
C1620  H1622   1.108   .     S
C1620  H1621   1.104   .     S
C1624  O1626   1.219   .     D
C1624  H1625   1.078   .     S
O1627  C1628   1.412   .     S
C1628  H1629   1.107   .     S
C1628  H1631   1.106   .     S
C1628  H1630   1.115   .     S
O1632  C1633   1.406   .     S
C1633  H1634   1.108   .     S
C1633  H1635   1.114   .     S
C1633  H1636   1.108   .     S
O1637  C1638   1.416   .     S
O1637  C639    1.383   1_556 S
C1638  H1640   1.116   .     S
C1638  H1639   1.107   .     S
C1638  H705    1.112   1_556 S
O1642  C1643   1.414   .     S
C1643  H1644   1.113   .     S
C1643  H1645   1.111   .     S
C1643  H1646   1.109   .     S
C1647  H1648   1.086   .     S
C1647  O1649   1.221   .     D
C1651  H1652   1.111   .     S
C1651  O714    1.412   1_556 S
C1651  H717    1.113   1_556 S
C1651  H926    1.109   1_456 S
O1655  C1656   1.418   .     S
C1656  H1659   1.111   .     S
C1656  H1658   1.114   .     S
C1656  H1657   1.107   .     S
O1660  C1661   1.416   .     S
C1661  H1662   1.106   .     S
C1661  H1663   1.110   .     S
C1661  H1664   1.113   .     S
O1665  C1667   1.315   .     A
O1665  Cu1671  1.963   .     S
O1666  Cu1672  1.977   .     S
O1666  C1667   1.313   .     A
C1667  C1701   1.469   .     S
O1668  Cu1671  1.976   .     S
O1668  C1670   1.309   .     A
O1669  Cu1672  1.985   .     S
O1669  C1670   1.334   .     A
C1670  C1694   1.505   .     S
Cu1671 Cu1672  2.740   .     S
Cu1671 O1675   1.985   .     S
Cu1671 N1704   2.059   .     S
Cu1671 O1673   1.977   .     S
Cu1672 N1707   2.059   .     S
Cu1672 O1676   1.976   .     S
Cu1672 O1674   1.963   .     S
O1673  C1677   1.310   .     A
O1674  C1677   1.318   .     A
O1675  C1678   1.308   .     A
O1676  C1678   1.320   .     A
C1677  C1698   1.470   .     S
C1678  C1682   1.467   .     S
C1679  C1693   1.398   .     A
H1680  C1693   1.073   .     S
H1681  C1690   1.079   .     S
C1682  C1692   1.404   .     A
C1682  C1693   1.394   .     A
C1683  C1684   1.411   .     A
C1683  O1746   1.381   .     S
C1683  C1694   1.416   .     A
C1684  C749    1.407   1_556 S
C1684  O818    1.378   1_556 S
C1685  C1751   1.480   .     S
C1686  C1687   1.407   .     A
C1686  C749    1.415   1_556 S
C1686  C752    1.427   1_556 S
C1687  C1691   1.387   .     A
C1687  C1694   1.405   .     A
C1688  C1692   1.398   .     A
C1689  C1690   1.400   .     A
C1689  C752    1.419   1_556 S
C1689  C743    1.396   1_556 S
C1690  C1691   1.389   .     A
C1691  O1759   1.379   .     S
C1692  H1695   1.069   .     S
C1696  O1764   1.375   .     S
C1696  C1701   1.404   .     A
C1696  C1073   1.401   1_565 S
C1697  C1698   1.402   .     A
C1697  O1708   1.393   .     S
C1698  C1699   1.416   .     A
C1699  O1713   1.377   .     S
C1700  C1701   1.398   .     A
C1700  O1718   1.388   .     S
C1700  C1075   1.405   1_565 S
C1702  O1723   1.394   .     S
C1702  N1707   1.381   .     A
C1702  C1807   1.458   .     S
C1703  C1728   1.471   .     S
C1703  N1704   1.375   .     A
N1704  C1705   1.373   .     A
C1705  O1731   1.381   .     S
C1706  O1736   1.381   .     S
C1706  N1707   1.381   .     A
C1706  C1809   1.445   .     S
O1708  C1709   1.406   .     S
C1709  H1711   1.106   .     S
C1709  H1710   1.110   .     S
C1709  H1712   1.107   .     S
O1713  C1714   1.416   .     S
C1714  H1716   1.108   .     S
C1714  H1717   1.114   .     S
C1714  H1715   1.103   .     S
O1718  C1719   1.406   .     S
C1719  H1720   1.107   .     S
C1719  H1721   1.109   .     S
C1719  H1722   1.108   .     S
O1723  C1724   1.416   .     S
C1724  H1727   1.100   .     S
C1724  H1726   1.108   .     S
C1724  H1725   1.104   .     S
C1728  O1730   1.219   .     D
C1728  H1729   1.078   .     S
O1731  C1732   1.412   .     S
C1732  H1733   1.107   .     S
C1732  H1735   1.106   .     S
C1732  H1734   1.115   .     S
O1736  C1737   1.406   .     S
C1737  H1738   1.108   .     S
C1737  H1739   1.114   .     S
C1737  H1740   1.108   .     S
O1741  C1742   1.416   .     S
O1741  C743    1.383   1_556 S
C1742  H1744   1.116   .     S
C1742  H1743   1.107   .     S
C1742  H809    1.112   1_556 S
O1746  C1747   1.414   .     S
C1747  H1748   1.113   .     S
C1747  H1749   1.111   .     S
C1747  H1750   1.109   .     S
C1751  H1752   1.086   .     S
C1751  O1753   1.221   .     D
C1755  H1756   1.111   .     S
C1755  O818    1.412   1_556 S
C1755  H821    1.113   1_556 S
C1755  H718    1.109   1_556 S
O1759  C1760   1.418   .     S
C1760  H1763   1.111   .     S
C1760  H1762   1.114   .     S
C1760  H1761   1.107   .     S
O1764  C1765   1.416   .     S
C1765  H1766   1.106   .     S
C1765  H1767   1.110   .     S
C1765  H1768   1.113   .     S
O1769  C1771   1.315   .     A
O1769  Cu1775  1.963   .     S
O1770  Cu1776  1.977   .     S
O1770  C1771   1.313   .     A
C1771  C1805   1.469   .     S
O1772  Cu1775  1.976   .     S
O1772  C1774   1.309   .     A
O1773  Cu1776  1.985   .     S
O1773  C1774   1.334   .     A
C1774  C1798   1.505   .     S
Cu1775 Cu1776  2.740   .     S
Cu1775 O1779   1.985   .     S
Cu1775 N1808   2.059   .     S
Cu1775 O1777   1.977   .     S
Cu1776 N1811   2.059   .     S
Cu1776 O1780   1.976   .     S
Cu1776 O1778   1.963   .     S
O1777  C1781   1.310   .     A
O1778  C1781   1.318   .     A
O1779  C1782   1.308   .     A
O1780  C1782   1.320   .     A
C1781  C1802   1.470   .     S
C1782  C1786   1.467   .     S
C1783  C1797   1.398   .     A
H1784  C1797   1.073   .     S
H1785  C1794   1.079   .     S
C1786  C1796   1.404   .     A
C1786  C1797   1.394   .     A
C1787  C1788   1.411   .     A
C1787  O1850   1.381   .     S
C1787  C1798   1.416   .     A
C1788  C853    1.407   1_556 S
C1788  O922    1.378   1_556 S
C1789  C1855   1.480   .     S
C1790  C1791   1.407   .     A
C1790  C853    1.415   1_556 S
C1790  C856    1.427   1_556 S
C1791  C1795   1.387   .     A
C1791  C1798   1.405   .     A
C1792  C1796   1.398   .     A
C1793  C1794   1.400   .     A
C1793  C856    1.419   1_556 S
C1793  C847    1.396   1_556 S
C1794  C1795   1.389   .     A
C1795  O1863   1.379   .     S
C1796  H1799   1.069   .     S
C1800  O1868   1.375   .     S
C1800  C1805   1.404   .     A
C1800  C1177   1.401   1_565 S
C1801  C1802   1.402   .     A
C1801  O1812   1.393   .     S
C1802  C1803   1.416   .     A
C1803  O1817   1.377   .     S
C1804  C1805   1.398   .     A
C1804  O1822   1.388   .     S
C1804  C1179   1.405   1_565 S
C1806  O1827   1.394   .     S
C1806  N1811   1.381   .     A
C1806  C1599   1.458   1_655 S
C1807  C1832   1.471   .     S
C1807  N1808   1.375   .     A
N1808  C1809   1.373   .     A
C1809  O1835   1.381   .     S
C1810  O1840   1.381   .     S
C1810  N1811   1.381   .     A
C1810  C1601   1.445   1_655 S
O1812  C1813   1.406   .     S
C1813  H1815   1.106   .     S
C1813  H1814   1.110   .     S
C1813  H1816   1.107   .     S
O1817  C1818   1.416   .     S
C1818  H1820   1.108   .     S
C1818  H1821   1.114   .     S
C1818  H1819   1.103   .     S
O1822  C1823   1.406   .     S
C1823  H1824   1.107   .     S
C1823  H1825   1.109   .     S
C1823  H1826   1.108   .     S
O1827  C1828   1.416   .     S
C1828  H1831   1.100   .     S
C1828  H1830   1.108   .     S
C1828  H1829   1.104   .     S
C1832  O1834   1.219   .     D
C1832  H1833   1.078   .     S
O1835  C1836   1.412   .     S
C1836  H1837   1.107   .     S
C1836  H1839   1.106   .     S
C1836  H1838   1.115   .     S
O1840  C1841   1.406   .     S
C1841  H1842   1.108   .     S
C1841  H1843   1.114   .     S
C1841  H1844   1.108   .     S
O1845  C1846   1.416   .     S
O1845  C847    1.383   1_556 S
C1846  H1848   1.116   .     S
C1846  H1847   1.107   .     S
C1846  H913    1.112   1_556 S
O1850  C1851   1.414   .     S
C1851  H1852   1.113   .     S
C1851  H1853   1.111   .     S
C1851  H1854   1.109   .     S
C1855  H1856   1.086   .     S
C1855  O1857   1.221   .     D
C1859  H1860   1.111   .     S
C1859  O922    1.412   1_556 S
C1859  H925    1.113   1_556 S
C1859  H822    1.109   1_556 S
H1862  C715    1.109   1_655 S
O1863  C1864   1.418   .     S
C1864  H1867   1.111   .     S
C1864  H1866   1.114   .     S
C1864  H1865   1.107   .     S
O1868  C1869   1.416   .     S
C1869  H1870   1.106   .     S
C1869  H1871   1.110   .     S
C1869  H1872   1.113   .     S
