data_str_m1_o1_o17_pcu_sym.149
_audit_creation_date              2020-01-03
_audit_creation_method            'Materials Studio'
_symmetry_space_group_name_H-M    'P1'
_symmetry_Int_Tables_number       1
_symmetry_cell_setting            triclinic
loop_
_symmetry_equiv_pos_as_xyz
  x,y,z
_cell_length_a                    36.9730
_cell_length_b                    37.0264
_cell_length_c                    34.0595
_cell_angle_alpha                 90.0724
_cell_angle_beta                  89.9804
_cell_angle_gamma                 89.9273
loop_
_atom_site_label
_atom_site_type_symbol
_atom_site_fract_x
_atom_site_fract_y
_atom_site_fract_z
_atom_site_U_iso_or_equiv
_atom_site_adp_type
_atom_site_occupancy
C1     C     0.48616   0.27967   0.41745   0.00000  Uiso   1.00
C2     C     0.01384   0.22032   0.58255   0.00000  Uiso   1.00
C3     C     0.21934   0.01148   0.41738   0.00000  Uiso   1.00
C4     C     0.28091   0.48902   0.58255   0.00000  Uiso   1.00
C5     C     0.01405   0.22035   0.41732   0.00000  Uiso   1.00
C6     C     0.48597   0.27965   0.58267   0.00000  Uiso   1.00
C7     C     0.28064   0.48847   0.41748   0.00000  Uiso   1.00
C8     C     0.21902   0.01055   0.58257   0.00000  Uiso   1.00
C9     C     0.24580   0.03253   0.91753   0.00000  Uiso   1.00
C10    C     0.25477   0.46756   0.08250   0.00000  Uiso   1.00
C11    C     0.47040   0.23591   0.91756   0.00000  Uiso   1.00
C12    C     0.02971   0.26355   0.08250   0.00000  Uiso   1.00
C13    C     0.25423   0.46757   0.91747   0.00000  Uiso   1.00
C14    C     0.24539   0.03241   0.08241   0.00000  Uiso   1.00
C15    C     0.02937   0.26466   0.91743   0.00000  Uiso   1.00
C16    C     0.46991   0.23651   0.08258   0.00000  Uiso   1.00
C17    C     0.00003   0.24999   0.39779   0.00000  Uiso   1.00
C18    C     0.49998   0.25001   0.60220   0.00000  Uiso   1.00
C19    C     0.25004   0.00006   0.39769   0.00000  Uiso   1.00
C20    C     0.24998   0.49991   0.60224   0.00000  Uiso   1.00
C21    C     0.25000   0.00003   0.89794   0.00000  Uiso   1.00
C22    C     0.25002   0.49999   0.10214   0.00000  Uiso   1.00
C23    C     0.49991   0.25011   0.89778   0.00000  Uiso   1.00
C24    C     0.49989   0.24994   0.10224   0.00000  Uiso   1.00
C25    C     0.02594   0.18803   0.47942   0.00000  Uiso   1.00
C26    C     0.47408   0.31197   0.52057   0.00000  Uiso   1.00
C27    C     0.31353   0.47920   0.47896   0.00000  Uiso   1.00
C28    C     0.18616   0.02003   0.52059   0.00000  Uiso   1.00
C29    C     0.47417   0.31185   0.47941   0.00000  Uiso   1.00
C30    C     0.02584   0.18814   0.52059   0.00000  Uiso   1.00
C31    C     0.18605   0.02024   0.47979   0.00000  Uiso   1.00
C32    C     0.31368   0.47879   0.52054   0.00000  Uiso   1.00
C33    C     0.25607   0.43377   0.97921   0.00000  Uiso   1.00
C34    C     0.24385   0.06632   0.02061   0.00000  Uiso   1.00
C35    C     0.06118   0.27783   0.97983   0.00000  Uiso   1.00
C36    C     0.43805   0.22367   0.02019   0.00000  Uiso   1.00
C37    C     0.24418   0.06645   0.97976   0.00000  Uiso   1.00
C38    C     0.25629   0.43354   0.02018   0.00000  Uiso   1.00
C39    C     0.43807   0.22476   0.97908   0.00000  Uiso   1.00
C40    C     0.06084   0.27774   0.02090   0.00000  Uiso   1.00
C41    C     0.25005   0.00002   0.35560   0.00000  Uiso   1.00
C42    C     0.24996   0.49997   0.64437   0.00000  Uiso   1.00
C43    C     0.00000   0.25000   0.35559   0.00000  Uiso   1.00
C44    C    -0.00000   0.24999   0.64441   0.00000  Uiso   1.00
C45    C     0.49993   0.25001   0.85563   0.00000  Uiso   1.00
C46    C    -0.00000   0.24997   0.14440   0.00000  Uiso   1.00
C47    C     0.25000  -0.00000   0.85552   0.00000  Uiso   1.00
C48    C     0.25001   0.00002   0.14448   0.00000  Uiso   1.00
C49    C     0.17980   0.06988   0.25024   0.00000  Uiso   1.00
C50    C     0.31996   0.42978   0.75015   0.00000  Uiso   1.00
C51    C     0.42962   0.18040   0.24937   0.00000  Uiso   1.00
C52    C     0.07047   0.31966   0.75024   0.00000  Uiso   1.00
C53    C     0.32032   0.43015   0.25028   0.00000  Uiso   1.00
C54    C     0.17999   0.07001   0.75014   0.00000  Uiso   1.00
C55    C     0.07001   0.32012   0.25003   0.00000  Uiso   1.00
C56    C     0.42983   0.18010   0.75033   0.00000  Uiso   1.00
C57    C     0.17970   0.43023   0.74972   0.00000  Uiso   1.00
C58    C     0.31997   0.07031   0.24980   0.00000  Uiso   1.00
C59    C     0.42961   0.31965   0.75055   0.00000  Uiso   1.00
C60    C     0.06904   0.17888   0.25144   0.00000  Uiso   1.00
C61    C     0.32013   0.07006   0.74997   0.00000  Uiso   1.00
C62    C     0.17970   0.43013   0.25030   0.00000  Uiso   1.00
C63    C     0.07028   0.18012   0.75028   0.00000  Uiso   1.00
C64    C     0.42951   0.31956   0.24941   0.00000  Uiso   1.00
C65    C     0.12339   0.40286   0.22164   0.00000  Uiso   1.00
C66    C     0.37905   0.09453   0.77499   0.00000  Uiso   1.00
C67    C     0.09491   0.12094   0.22443   0.00000  Uiso   1.00
C68    C     0.40333   0.37648   0.77819   0.00000  Uiso   1.00
C69    C     0.37964   0.09447   0.22595   0.00000  Uiso   1.00
C70    C     0.11940   0.40662   0.77177   0.00000  Uiso   1.00
C71    C     0.40044   0.37369   0.21924   0.00000  Uiso   1.00
C72    C     0.09254   0.11927   0.77141   0.00000  Uiso   1.00
C73    C     0.11875   0.09245   0.77088   0.00000  Uiso   1.00
C74    C     0.37444   0.40066   0.21940   0.00000  Uiso   1.00
C75    C     0.09334   0.37975   0.77147   0.00000  Uiso   1.00
C76    C     0.40609   0.12099   0.22583   0.00000  Uiso   1.00
C77    C     0.37707   0.40328   0.77798   0.00000  Uiso   1.00
C78    C     0.12345   0.09679   0.22255   0.00000  Uiso   1.00
C79    C     0.40594   0.12054   0.77451   0.00000  Uiso   1.00
C80    C     0.09563   0.37774   0.22318   0.00000  Uiso   1.00
C81    C     0.36984   0.15683   0.72798   0.00000  Uiso   1.00
C82    C     0.12654   0.34696   0.27822   0.00000  Uiso   1.00
C83    C     0.34450   0.37055   0.72529   0.00000  Uiso   1.00
C84    C     0.14850   0.12145   0.28383   0.00000  Uiso   1.00
C85    C     0.13181   0.34260   0.72836   0.00000  Uiso   1.00
C86    C     0.36783   0.15937   0.26813   0.00000  Uiso   1.00
C87    C     0.15863   0.13171   0.73161   0.00000  Uiso   1.00
C88    C     0.34886   0.37527   0.28056   0.00000  Uiso   1.00
C89    C     0.37301   0.34661   0.27805   0.00000  Uiso   1.00
C90    C     0.13231   0.15848   0.73139   0.00000  Uiso   1.00
C91    C     0.34201   0.13228   0.27008   0.00000  Uiso   1.00
C92    C     0.15674   0.37056   0.72672   0.00000  Uiso   1.00
C93    C     0.12076   0.14690   0.28509   0.00000  Uiso   1.00
C94    C     0.37042   0.34351   0.72639   0.00000  Uiso   1.00
C95    C     0.15110   0.37518   0.28055   0.00000  Uiso   1.00
C96    C     0.34433   0.12949   0.72607   0.00000  Uiso   1.00
C97    C     0.01367   0.21910   0.45866   0.00000  Uiso   1.00
C98    C     0.48636   0.28090   0.54134   0.00000  Uiso   1.00
C99    C     0.28181   0.48945   0.45879   0.00000  Uiso   1.00
C100   C     0.21819   0.01061   0.54148   0.00000  Uiso   1.00
C101   C     0.48639   0.28075   0.45876   0.00000  Uiso   1.00
C102   C     0.01362   0.21925   0.54123   0.00000  Uiso   1.00
C103   C     0.21810   0.01093   0.45864   0.00000  Uiso   1.00
C104   C     0.28199   0.48908   0.54140   0.00000  Uiso   1.00
C105   C     0.25327   0.46686   0.95875   0.00000  Uiso   1.00
C106   C     0.24668   0.03323   0.04139   0.00000  Uiso   1.00
C107   C     0.03039   0.26493   0.95870   0.00000  Uiso   1.00
C108   C     0.46871   0.23681   0.04125   0.00000  Uiso   1.00
C109   C     0.24696   0.03338   0.95878   0.00000  Uiso   1.00
C110   C     0.25353   0.46665   0.04118   0.00000  Uiso   1.00
C111   C     0.46890   0.23758   0.95866   0.00000  Uiso   1.00
C112   C     0.03012   0.26454   0.04141   0.00000  Uiso   1.00
C113   C     0.09768   0.34848   0.25047   0.00000  Uiso   1.00
C114   C     0.40161   0.15225   0.75107   0.00000  Uiso   1.00
C115   C     0.15070   0.09677   0.25187   0.00000  Uiso   1.00
C116   C     0.34750   0.40104   0.75098   0.00000  Uiso   1.00
C117   C     0.40084   0.15332   0.24769   0.00000  Uiso   1.00
C118   C     0.09916   0.34730   0.75047   0.00000  Uiso   1.00
C119   C     0.34841   0.40208   0.25032   0.00000  Uiso   1.00
C120   C     0.15214   0.09822   0.75083   0.00000  Uiso   1.00
C121   C     0.09871   0.15238   0.75099   0.00000  Uiso   1.00
C122   C     0.40058   0.34668   0.24869   0.00000  Uiso   1.00
C123   C     0.15146   0.40232   0.74900   0.00000  Uiso   1.00
C124   C     0.34748   0.09919   0.24891   0.00000  Uiso   1.00
C125   C     0.40075   0.34681   0.75185   0.00000  Uiso   1.00
C126   C     0.09489   0.14854   0.25393   0.00000  Uiso   1.00
C127   C     0.34813   0.09822   0.75022   0.00000  Uiso   1.00
C128   C     0.15111   0.40257   0.25091   0.00000  Uiso   1.00
C129   C     0.49999   0.24995   0.47920   0.00000  Uiso   1.00
C130   C     0.00002   0.25004   0.52079   0.00000  Uiso   1.00
C131   C     0.25003   0.00024   0.47930   0.00000  Uiso   1.00
C132   C     0.25011   0.00006   0.52059   0.00000  Uiso   1.00
C133   C     0.25013   0.00008   0.97925   0.00000  Uiso   1.00
C134   C     0.25012   0.49998   0.02077   0.00000  Uiso   1.00
C135   C     0.49948   0.25138   0.97932   0.00000  Uiso   1.00
C136   C     0.49936   0.25107   0.02067   0.00000  Uiso   1.00
H137   H     0.47608   0.30150   0.39953   0.00000  Uiso   1.00
H138   H     0.02392   0.19849   0.60047   0.00000  Uiso   1.00
H139   H     0.19700   0.01985   0.39923   0.00000  Uiso   1.00
H140   H     0.30343   0.48115   0.60076   0.00000  Uiso   1.00
H141   H     0.02439   0.19881   0.39917   0.00000  Uiso   1.00
H142   H     0.47565   0.30120   0.60082   0.00000  Uiso   1.00
H143   H     0.30298   0.47918   0.39964   0.00000  Uiso   1.00
H144   H     0.19609   0.01801   0.60054   0.00000  Uiso   1.00
H145   H     0.24165   0.05665   0.90030   0.00000  Uiso   1.00
H146   H     0.25932   0.44360   0.09985   0.00000  Uiso   1.00
H147   H     0.44903   0.22383   0.90022   0.00000  Uiso   1.00
H148   H     0.05233   0.27254   0.10016   0.00000  Uiso   1.00
H149   H     0.25806   0.44324   0.90031   0.00000  Uiso   1.00
H150   H     0.24108   0.05658   0.09981   0.00000  Uiso   1.00
H151   H     0.05110   0.27461   0.89930   0.00000  Uiso   1.00
H152   H     0.44812   0.22664   0.10070   0.00000  Uiso   1.00
O153   O     0.25000   0.00000   0.25000   0.00000  Uiso   1.00
O154   O     0.25000   0.00000   0.75000   0.00000  Uiso   1.00
O155   O     0.00000   0.25000   0.25000   0.00000  Uiso   1.00
O156   O     0.00000   0.25000   0.75000   0.00000  Uiso   1.00
O157   O     0.25000   0.46964   0.33755   0.00000  Uiso   1.00
O158   O     0.25000   0.03037   0.66245   0.00000  Uiso   1.00
O159   O     0.03037   0.25000   0.33755   0.00000  Uiso   1.00
O160   O     0.46964   0.25000   0.66245   0.00000  Uiso   1.00
O161   O     0.25000   0.03037   0.33755   0.00000  Uiso   1.00
O162   O     0.25000   0.46964   0.66245   0.00000  Uiso   1.00
O163   O     0.46964   0.25000   0.33755   0.00000  Uiso   1.00
O164   O     0.03037   0.25000   0.66245   0.00000  Uiso   1.00
O165   O     0.00000   0.21964   0.83755   0.00000  Uiso   1.00
O166   O     0.00000   0.28037   0.16245   0.00000  Uiso   1.00
O167   O     0.28037   0.00000   0.83755   0.00000  Uiso   1.00
O168   O     0.21964   0.00000   0.16245   0.00000  Uiso   1.00
O169   O     0.00000   0.28037   0.83755   0.00000  Uiso   1.00
O170   O     0.00000   0.21964   0.16245   0.00000  Uiso   1.00
O171   O     0.21964   0.00000   0.83755   0.00000  Uiso   1.00
O172   O     0.28037   0.00000   0.16245   0.00000  Uiso   1.00
O173   O     0.20725   0.07308   0.27302   0.00000  Uiso   1.00
O174   O     0.29276   0.42693   0.72698   0.00000  Uiso   1.00
O175   O     0.42693   0.20725   0.27302   0.00000  Uiso   1.00
O176   O     0.07308   0.29276   0.72698   0.00000  Uiso   1.00
O177   O     0.29276   0.42693   0.27302   0.00000  Uiso   1.00
O178   O     0.20725   0.07308   0.72698   0.00000  Uiso   1.00
O179   O     0.07308   0.29276   0.27302   0.00000  Uiso   1.00
O180   O     0.42693   0.20725   0.72698   0.00000  Uiso   1.00
O181   O     0.20725   0.42693   0.72698   0.00000  Uiso   1.00
O182   O     0.29276   0.07308   0.27302   0.00000  Uiso   1.00
O183   O     0.42693   0.29276   0.72698   0.00000  Uiso   1.00
O184   O     0.07308   0.20725   0.27302   0.00000  Uiso   1.00
O185   O     0.29276   0.07308   0.72698   0.00000  Uiso   1.00
O186   O     0.20725   0.42693   0.27302   0.00000  Uiso   1.00
O187   O     0.07308   0.20725   0.72698   0.00000  Uiso   1.00
O188   O     0.42693   0.29276   0.27302   0.00000  Uiso   1.00
O189   O     0.45725   0.32308   0.77302   0.00000  Uiso   1.00
O190   O     0.04276   0.17693   0.22698   0.00000  Uiso   1.00
O191   O     0.17693   0.45725   0.77302   0.00000  Uiso   1.00
O192   O     0.32308   0.04276   0.22698   0.00000  Uiso   1.00
O193   O     0.04276   0.17693   0.77302   0.00000  Uiso   1.00
O194   O     0.45725   0.32308   0.22698   0.00000  Uiso   1.00
O195   O     0.32308   0.04276   0.77302   0.00000  Uiso   1.00
O196   O     0.17693   0.45725   0.22698   0.00000  Uiso   1.00
O197   O     0.45725   0.17693   0.22698   0.00000  Uiso   1.00
O198   O     0.04276   0.32308   0.77302   0.00000  Uiso   1.00
O199   O     0.17693   0.04276   0.22698   0.00000  Uiso   1.00
O200   O     0.32308   0.45725   0.77302   0.00000  Uiso   1.00
O201   O     0.04276   0.32308   0.22698   0.00000  Uiso   1.00
O202   O     0.45725   0.17693   0.77302   0.00000  Uiso   1.00
O203   O     0.32308   0.45725   0.22698   0.00000  Uiso   1.00
O204   O     0.17693   0.04276   0.77302   0.00000  Uiso   1.00
Zn205  Zn    0.20660   0.00000   0.21735   0.00000  Uiso   1.00
Zn206  Zn    0.29341   0.00000   0.78265   0.00000  Uiso   1.00
Zn207  Zn    0.00000   0.20660   0.21735   0.00000  Uiso   1.00
Zn208  Zn    0.00000   0.29341   0.78265   0.00000  Uiso   1.00
Zn209  Zn    0.29341   0.00000   0.21735   0.00000  Uiso   1.00
Zn210  Zn    0.20660   0.00000   0.78265   0.00000  Uiso   1.00
Zn211  Zn    0.00000   0.29341   0.21735   0.00000  Uiso   1.00
Zn212  Zn    0.00000   0.20660   0.78265   0.00000  Uiso   1.00
Zn213  Zn    0.45660   0.25000   0.71735   0.00000  Uiso   1.00
Zn214  Zn    0.04341   0.25000   0.28265   0.00000  Uiso   1.00
Zn215  Zn    0.25000   0.45660   0.71735   0.00000  Uiso   1.00
Zn216  Zn    0.25000   0.04341   0.28265   0.00000  Uiso   1.00
Zn217  Zn    0.04341   0.25000   0.71735   0.00000  Uiso   1.00
Zn218  Zn    0.45660   0.25000   0.28265   0.00000  Uiso   1.00
Zn219  Zn    0.25000   0.04341   0.71735   0.00000  Uiso   1.00
Zn220  Zn    0.25000   0.45660   0.28265   0.00000  Uiso   1.00
O221   O     0.03810   0.15613   0.46238   0.00000  Uiso   1.00
H222   H     0.04113   0.15817   0.43375   0.00000  Uiso   1.00
O223   O     0.46193   0.34388   0.53761   0.00000  Uiso   1.00
H224   H     0.45890   0.34184   0.56624   0.00000  Uiso   1.00
O225   O     0.34528   0.46812   0.46092   0.00000  Uiso   1.00
H226   H     0.34789   0.48062   0.43534   0.00000  Uiso   1.00
O227   O     0.15334   0.02780   0.53840   0.00000  Uiso   1.00
H228   H     0.15694   0.03814   0.56495   0.00000  Uiso   1.00
O229   O     0.46320   0.34389   0.46189   0.00000  Uiso   1.00
H230   H     0.45433   0.33984   0.43504   0.00000  Uiso   1.00
O231   O     0.03681   0.15610   0.53810   0.00000  Uiso   1.00
H232   H     0.04564   0.16013   0.56497   0.00000  Uiso   1.00
O233   O     0.15327   0.02974   0.46262   0.00000  Uiso   1.00
H234   H     0.15458   0.03108   0.43380   0.00000  Uiso   1.00
O235   O     0.34645   0.46910   0.53736   0.00000  Uiso   1.00
H236   H     0.34432   0.46536   0.56580   0.00000  Uiso   1.00
O237   O     0.25864   0.40080   0.96035   0.00000  Uiso   1.00
H238   H     0.24106   0.40059   0.93847   0.00000  Uiso   1.00
O239   O     0.24069   0.09941   0.03953   0.00000  Uiso   1.00
H240   H     0.25675   0.09965   0.06231   0.00000  Uiso   1.00
O241   O     0.09276   0.29101   0.96288   0.00000  Uiso   1.00
H242   H     0.09079   0.29341   0.93422   0.00000  Uiso   1.00
O243   O     0.40669   0.20998   0.03701   0.00000  Uiso   1.00
H244   H     0.40896   0.20691   0.06556   0.00000  Uiso   1.00
O245   O     0.24159   0.09975   0.96137   0.00000  Uiso   1.00
H246   H     0.25665   0.09936   0.93739   0.00000  Uiso   1.00
O247   O     0.25912   0.40009   0.03814   0.00000  Uiso   1.00
H248   H     0.24619   0.40041   0.06342   0.00000  Uiso   1.00
O249   O     0.40733   0.21168   0.96054   0.00000  Uiso   1.00
H250   H     0.40304   0.22541   0.93608   0.00000  Uiso   1.00
O251   O     0.09213   0.28983   0.03920   0.00000  Uiso   1.00
H252   H     0.08603   0.30269   0.06388   0.00000  Uiso   1.00
O253   O     0.12394   0.42513   0.18900   0.00000  Uiso   1.00
H254   H     0.12286   0.45099   0.19812   0.00000  Uiso   1.00
O255   O     0.38371   0.06674   0.80185   0.00000  Uiso   1.00
H256   H     0.38157   0.04337   0.78735   0.00000  Uiso   1.00
O257   O     0.06869   0.11733   0.19556   0.00000  Uiso   1.00
H258   H     0.04441   0.11945   0.20836   0.00000  Uiso   1.00
O259   O     0.42986   0.37900   0.80690   0.00000  Uiso   1.00
H260   H     0.45344   0.38240   0.79324   0.00000  Uiso   1.00
O261   O     0.38626   0.06490   0.20179   0.00000  Uiso   1.00
H262   H     0.38281   0.04259   0.21761   0.00000  Uiso   1.00
O263   O     0.11221   0.43663   0.79524   0.00000  Uiso   1.00
H264   H     0.11586   0.45851   0.77888   0.00000  Uiso   1.00
O265   O     0.42259   0.37213   0.18647   0.00000  Uiso   1.00
H266   H     0.44780   0.37614   0.19543   0.00000  Uiso   1.00
O267   O     0.05965   0.10990   0.78810   0.00000  Uiso   1.00
H268   H     0.05335   0.12763   0.80919   0.00000  Uiso   1.00
O269   O     0.11038   0.06151   0.79237   0.00000  Uiso   1.00
H270   H     0.11730   0.03991   0.77669   0.00000  Uiso   1.00
O271   O     0.37709   0.42609   0.18970   0.00000  Uiso   1.00
H272   H     0.35285   0.43015   0.17787   0.00000  Uiso   1.00
O273   O     0.06243   0.38630   0.79371   0.00000  Uiso   1.00
H274   H     0.04162   0.38581   0.77498   0.00000  Uiso   1.00
O275   O     0.43650   0.11451   0.20281   0.00000  Uiso   1.00
H276   H     0.45803   0.11503   0.22076   0.00000  Uiso   1.00
O277   O     0.38041   0.42975   0.80683   0.00000  Uiso   1.00
H278   H     0.38010   0.45384   0.79389   0.00000  Uiso   1.00
O279   O     0.12528   0.07493   0.18955   0.00000  Uiso   1.00
H280   H     0.11968   0.04990   0.19872   0.00000  Uiso   1.00
O281   O     0.43515   0.11420   0.79945   0.00000  Uiso   1.00
H282   H     0.45795   0.11846   0.78470   0.00000  Uiso   1.00
O283   O     0.06849   0.38149   0.19523   0.00000  Uiso   1.00
H284   H     0.04472   0.38135   0.20932   0.00000  Uiso   1.00
O285   O     0.36302   0.18716   0.70523   0.00000  Uiso   1.00
H286   H     0.36601   0.20887   0.72221   0.00000  Uiso   1.00
O287   O     0.13061   0.31952   0.30545   0.00000  Uiso   1.00
H288   H     0.13242   0.29627   0.29046   0.00000  Uiso   1.00
O289   O     0.31813   0.36688   0.69624   0.00000  Uiso   1.00
H290   H     0.29393   0.36923   0.70863   0.00000  Uiso   1.00
O291   O     0.17156   0.11984   0.31570   0.00000  Uiso   1.00
H292   H     0.19622   0.12618   0.30633   0.00000  Uiso   1.00
O293   O     0.14049   0.31201   0.70604   0.00000  Uiso   1.00
H294   H     0.13197   0.29014   0.71966   0.00000  Uiso   1.00
O295   O     0.35945   0.19138   0.28749   0.00000  Uiso   1.00
H296   H     0.36588   0.21189   0.26970   0.00000  Uiso   1.00
O297   O     0.18998   0.13943   0.71078   0.00000  Uiso   1.00
H298   H     0.21107   0.13391   0.72798   0.00000  Uiso   1.00
O299   O     0.32535   0.37475   0.31220   0.00000  Uiso   1.00
H300   H     0.32200   0.39957   0.32248   0.00000  Uiso   1.00
O301   O     0.36980   0.32032   0.30676   0.00000  Uiso   1.00
H302   H     0.36963   0.29629   0.29353   0.00000  Uiso   1.00
O303   O     0.14270   0.19158   0.71616   0.00000  Uiso   1.00
H304   H     0.12525   0.19949   0.69561   0.00000  Uiso   1.00
O305   O     0.31227   0.13974   0.29438   0.00000  Uiso   1.00
H306   H     0.28980   0.13236   0.28052   0.00000  Uiso   1.00
O307   O     0.18505   0.36666   0.70020   0.00000  Uiso   1.00
H308   H     0.20760   0.36449   0.71618   0.00000  Uiso   1.00
O309   O     0.11744   0.16658   0.31924   0.00000  Uiso   1.00
H310   H     0.11884   0.19264   0.31248   0.00000  Uiso   1.00
O311   O     0.36569   0.31490   0.70043   0.00000  Uiso   1.00
H312   H     0.36578   0.29221   0.71636   0.00000  Uiso   1.00
O313   O     0.17257   0.37633   0.31394   0.00000  Uiso   1.00
H314   H     0.19853   0.37548   0.30596   0.00000  Uiso   1.00
O315   O     0.31718   0.13394   0.69834   0.00000  Uiso   1.00
H316   H     0.29346   0.13125   0.71194   0.00000  Uiso   1.00
C317   C     0.98616   0.27967   0.41745   0.00000  Uiso   1.00
C318   C     0.51384   0.22032   0.58255   0.00000  Uiso   1.00
C319   C     0.71934   0.01148   0.41738   0.00000  Uiso   1.00
C320   C     0.78091   0.48902   0.58255   0.00000  Uiso   1.00
C321   C     0.51405   0.22035   0.41732   0.00000  Uiso   1.00
C322   C     0.98597   0.27965   0.58267   0.00000  Uiso   1.00
C323   C     0.78064   0.48847   0.41748   0.00000  Uiso   1.00
C324   C     0.71902   0.01055   0.58257   0.00000  Uiso   1.00
C325   C     0.74580   0.03253   0.91753   0.00000  Uiso   1.00
C326   C     0.75477   0.46756   0.08250   0.00000  Uiso   1.00
C327   C     0.97040   0.23591   0.91756   0.00000  Uiso   1.00
C328   C     0.52971   0.26355   0.08250   0.00000  Uiso   1.00
C329   C     0.75423   0.46757   0.91747   0.00000  Uiso   1.00
C330   C     0.74539   0.03241   0.08241   0.00000  Uiso   1.00
C331   C     0.52937   0.26466   0.91743   0.00000  Uiso   1.00
C332   C     0.96991   0.23651   0.08258   0.00000  Uiso   1.00
C333   C     0.50003   0.24999   0.39779   0.00000  Uiso   1.00
C334   C     0.99998   0.25001   0.60220   0.00000  Uiso   1.00
C335   C     0.75004   0.00006   0.39769   0.00000  Uiso   1.00
C336   C     0.74998   0.49991   0.60224   0.00000  Uiso   1.00
C337   C     0.75000   0.00003   0.89794   0.00000  Uiso   1.00
C338   C     0.75002   0.49999   0.10214   0.00000  Uiso   1.00
C339   C     0.99991   0.25011   0.89778   0.00000  Uiso   1.00
C340   C     0.99989   0.24994   0.10224   0.00000  Uiso   1.00
C341   C     0.52594   0.18803   0.47942   0.00000  Uiso   1.00
C342   C     0.97408   0.31197   0.52057   0.00000  Uiso   1.00
C343   C     0.81353   0.47920   0.47896   0.00000  Uiso   1.00
C344   C     0.68616   0.02003   0.52059   0.00000  Uiso   1.00
C345   C     0.97417   0.31185   0.47941   0.00000  Uiso   1.00
C346   C     0.52584   0.18814   0.52059   0.00000  Uiso   1.00
C347   C     0.68605   0.02024   0.47979   0.00000  Uiso   1.00
C348   C     0.81368   0.47879   0.52054   0.00000  Uiso   1.00
C349   C     0.75607   0.43377   0.97921   0.00000  Uiso   1.00
C350   C     0.74385   0.06632   0.02061   0.00000  Uiso   1.00
C351   C     0.56118   0.27783   0.97983   0.00000  Uiso   1.00
C352   C     0.93805   0.22367   0.02019   0.00000  Uiso   1.00
C353   C     0.74418   0.06645   0.97976   0.00000  Uiso   1.00
C354   C     0.75629   0.43354   0.02018   0.00000  Uiso   1.00
C355   C     0.93807   0.22476   0.97908   0.00000  Uiso   1.00
C356   C     0.56084   0.27774   0.02090   0.00000  Uiso   1.00
C357   C     0.75005   0.00002   0.35560   0.00000  Uiso   1.00
C358   C     0.74996   0.49997   0.64437   0.00000  Uiso   1.00
C359   C     0.50000   0.25000   0.35559   0.00000  Uiso   1.00
C360   C     0.50000   0.24999   0.64441   0.00000  Uiso   1.00
C361   C     0.99993   0.25001   0.85563   0.00000  Uiso   1.00
C362   C     0.50000   0.24997   0.14440   0.00000  Uiso   1.00
C363   C     0.75000  -0.00000   0.85552   0.00000  Uiso   1.00
C364   C     0.75001   0.00002   0.14448   0.00000  Uiso   1.00
C365   C     0.67980   0.06988   0.25024   0.00000  Uiso   1.00
C366   C     0.81996   0.42978   0.75015   0.00000  Uiso   1.00
C367   C     0.92962   0.18040   0.24937   0.00000  Uiso   1.00
C368   C     0.57047   0.31966   0.75024   0.00000  Uiso   1.00
C369   C     0.82032   0.43015   0.25028   0.00000  Uiso   1.00
C370   C     0.67999   0.07001   0.75014   0.00000  Uiso   1.00
C371   C     0.57001   0.32012   0.25003   0.00000  Uiso   1.00
C372   C     0.92983   0.18010   0.75033   0.00000  Uiso   1.00
C373   C     0.67970   0.43023   0.74972   0.00000  Uiso   1.00
C374   C     0.81997   0.07031   0.24980   0.00000  Uiso   1.00
C375   C     0.92961   0.31965   0.75055   0.00000  Uiso   1.00
C376   C     0.56904   0.17888   0.25144   0.00000  Uiso   1.00
C377   C     0.82013   0.07006   0.74997   0.00000  Uiso   1.00
C378   C     0.67970   0.43013   0.25030   0.00000  Uiso   1.00
C379   C     0.57028   0.18012   0.75028   0.00000  Uiso   1.00
C380   C     0.92951   0.31956   0.24941   0.00000  Uiso   1.00
C381   C     0.62339   0.40286   0.22164   0.00000  Uiso   1.00
C382   C     0.87905   0.09453   0.77499   0.00000  Uiso   1.00
C383   C     0.59491   0.12094   0.22443   0.00000  Uiso   1.00
C384   C     0.90333   0.37648   0.77819   0.00000  Uiso   1.00
C385   C     0.87964   0.09447   0.22595   0.00000  Uiso   1.00
C386   C     0.61940   0.40662   0.77177   0.00000  Uiso   1.00
C387   C     0.90044   0.37369   0.21924   0.00000  Uiso   1.00
C388   C     0.59254   0.11927   0.77141   0.00000  Uiso   1.00
C389   C     0.61875   0.09245   0.77088   0.00000  Uiso   1.00
C390   C     0.87444   0.40066   0.21940   0.00000  Uiso   1.00
C391   C     0.59334   0.37975   0.77147   0.00000  Uiso   1.00
C392   C     0.90609   0.12099   0.22583   0.00000  Uiso   1.00
C393   C     0.87707   0.40328   0.77798   0.00000  Uiso   1.00
C394   C     0.62345   0.09679   0.22255   0.00000  Uiso   1.00
C395   C     0.90594   0.12054   0.77451   0.00000  Uiso   1.00
C396   C     0.59563   0.37774   0.22318   0.00000  Uiso   1.00
C397   C     0.86984   0.15683   0.72798   0.00000  Uiso   1.00
C398   C     0.62654   0.34696   0.27822   0.00000  Uiso   1.00
C399   C     0.84450   0.37055   0.72529   0.00000  Uiso   1.00
C400   C     0.64850   0.12145   0.28383   0.00000  Uiso   1.00
C401   C     0.63181   0.34260   0.72836   0.00000  Uiso   1.00
C402   C     0.86783   0.15937   0.26813   0.00000  Uiso   1.00
C403   C     0.65863   0.13171   0.73161   0.00000  Uiso   1.00
C404   C     0.84886   0.37527   0.28056   0.00000  Uiso   1.00
C405   C     0.87301   0.34661   0.27805   0.00000  Uiso   1.00
C406   C     0.63231   0.15848   0.73139   0.00000  Uiso   1.00
C407   C     0.84201   0.13228   0.27008   0.00000  Uiso   1.00
C408   C     0.65674   0.37056   0.72672   0.00000  Uiso   1.00
C409   C     0.62076   0.14690   0.28509   0.00000  Uiso   1.00
C410   C     0.87042   0.34351   0.72639   0.00000  Uiso   1.00
C411   C     0.65110   0.37518   0.28055   0.00000  Uiso   1.00
C412   C     0.84433   0.12949   0.72607   0.00000  Uiso   1.00
C413   C     0.51367   0.21910   0.45866   0.00000  Uiso   1.00
C414   C     0.98636   0.28090   0.54134   0.00000  Uiso   1.00
C415   C     0.78181   0.48945   0.45879   0.00000  Uiso   1.00
C416   C     0.71819   0.01061   0.54148   0.00000  Uiso   1.00
C417   C     0.98639   0.28075   0.45876   0.00000  Uiso   1.00
C418   C     0.51362   0.21925   0.54123   0.00000  Uiso   1.00
C419   C     0.71810   0.01093   0.45864   0.00000  Uiso   1.00
C420   C     0.78199   0.48908   0.54140   0.00000  Uiso   1.00
C421   C     0.75327   0.46686   0.95875   0.00000  Uiso   1.00
C422   C     0.74668   0.03323   0.04139   0.00000  Uiso   1.00
C423   C     0.53039   0.26493   0.95870   0.00000  Uiso   1.00
C424   C     0.96871   0.23681   0.04125   0.00000  Uiso   1.00
C425   C     0.74696   0.03338   0.95878   0.00000  Uiso   1.00
C426   C     0.75353   0.46665   0.04118   0.00000  Uiso   1.00
C427   C     0.96890   0.23758   0.95866   0.00000  Uiso   1.00
C428   C     0.53012   0.26454   0.04141   0.00000  Uiso   1.00
C429   C     0.59768   0.34848   0.25047   0.00000  Uiso   1.00
C430   C     0.90161   0.15225   0.75107   0.00000  Uiso   1.00
C431   C     0.65070   0.09677   0.25187   0.00000  Uiso   1.00
C432   C     0.84750   0.40104   0.75098   0.00000  Uiso   1.00
C433   C     0.90084   0.15332   0.24769   0.00000  Uiso   1.00
C434   C     0.59916   0.34730   0.75047   0.00000  Uiso   1.00
C435   C     0.84841   0.40208   0.25032   0.00000  Uiso   1.00
C436   C     0.65214   0.09822   0.75083   0.00000  Uiso   1.00
C437   C     0.59871   0.15238   0.75099   0.00000  Uiso   1.00
C438   C     0.90058   0.34668   0.24869   0.00000  Uiso   1.00
C439   C     0.65146   0.40232   0.74900   0.00000  Uiso   1.00
C440   C     0.84748   0.09919   0.24891   0.00000  Uiso   1.00
C441   C     0.90075   0.34681   0.75185   0.00000  Uiso   1.00
C442   C     0.59489   0.14854   0.25393   0.00000  Uiso   1.00
C443   C     0.84813   0.09822   0.75022   0.00000  Uiso   1.00
C444   C     0.65111   0.40257   0.25091   0.00000  Uiso   1.00
C445   C     0.99999   0.24995   0.47920   0.00000  Uiso   1.00
C446   C     0.50002   0.25004   0.52079   0.00000  Uiso   1.00
C447   C     0.75003   0.00024   0.47930   0.00000  Uiso   1.00
C448   C     0.75011   0.00006   0.52059   0.00000  Uiso   1.00
C449   C     0.75013   0.00008   0.97925   0.00000  Uiso   1.00
C450   C     0.75012   0.49998   0.02077   0.00000  Uiso   1.00
C451   C     0.99948   0.25138   0.97932   0.00000  Uiso   1.00
C452   C     0.99936   0.25107   0.02067   0.00000  Uiso   1.00
H453   H     0.97608   0.30150   0.39953   0.00000  Uiso   1.00
H454   H     0.52392   0.19849   0.60047   0.00000  Uiso   1.00
H455   H     0.69700   0.01985   0.39923   0.00000  Uiso   1.00
H456   H     0.80343   0.48115   0.60076   0.00000  Uiso   1.00
H457   H     0.52439   0.19881   0.39917   0.00000  Uiso   1.00
H458   H     0.97565   0.30120   0.60082   0.00000  Uiso   1.00
H459   H     0.80298   0.47918   0.39964   0.00000  Uiso   1.00
H460   H     0.69609   0.01801   0.60054   0.00000  Uiso   1.00
H461   H     0.74165   0.05665   0.90030   0.00000  Uiso   1.00
H462   H     0.75932   0.44360   0.09985   0.00000  Uiso   1.00
H463   H     0.94903   0.22383   0.90022   0.00000  Uiso   1.00
H464   H     0.55233   0.27254   0.10016   0.00000  Uiso   1.00
H465   H     0.75806   0.44324   0.90031   0.00000  Uiso   1.00
H466   H     0.74108   0.05658   0.09981   0.00000  Uiso   1.00
H467   H     0.55110   0.27461   0.89930   0.00000  Uiso   1.00
H468   H     0.94812   0.22664   0.10070   0.00000  Uiso   1.00
O469   O     0.75000   0.00000   0.25000   0.00000  Uiso   1.00
O470   O     0.75000   0.00000   0.75000   0.00000  Uiso   1.00
O471   O     0.50000   0.25000   0.25000   0.00000  Uiso   1.00
O472   O     0.50000   0.25000   0.75000   0.00000  Uiso   1.00
O473   O     0.75000   0.46964   0.33755   0.00000  Uiso   1.00
O474   O     0.75000   0.03037   0.66245   0.00000  Uiso   1.00
O475   O     0.53037   0.25000   0.33755   0.00000  Uiso   1.00
O476   O     0.96964   0.25000   0.66245   0.00000  Uiso   1.00
O477   O     0.75000   0.03037   0.33755   0.00000  Uiso   1.00
O478   O     0.75000   0.46964   0.66245   0.00000  Uiso   1.00
O479   O     0.96964   0.25000   0.33755   0.00000  Uiso   1.00
O480   O     0.53037   0.25000   0.66245   0.00000  Uiso   1.00
O481   O     0.50000   0.21964   0.83755   0.00000  Uiso   1.00
O482   O     0.50000   0.28037   0.16245   0.00000  Uiso   1.00
O483   O     0.78037   0.00000   0.83755   0.00000  Uiso   1.00
O484   O     0.71964   0.00000   0.16245   0.00000  Uiso   1.00
O485   O     0.50000   0.28037   0.83755   0.00000  Uiso   1.00
O486   O     0.50000   0.21964   0.16245   0.00000  Uiso   1.00
O487   O     0.71964   0.00000   0.83755   0.00000  Uiso   1.00
O488   O     0.78037   0.00000   0.16245   0.00000  Uiso   1.00
O489   O     0.70725   0.07308   0.27302   0.00000  Uiso   1.00
O490   O     0.79276   0.42693   0.72698   0.00000  Uiso   1.00
O491   O     0.92693   0.20725   0.27302   0.00000  Uiso   1.00
O492   O     0.57308   0.29276   0.72698   0.00000  Uiso   1.00
O493   O     0.79276   0.42693   0.27302   0.00000  Uiso   1.00
O494   O     0.70725   0.07308   0.72698   0.00000  Uiso   1.00
O495   O     0.57308   0.29276   0.27302   0.00000  Uiso   1.00
O496   O     0.92693   0.20725   0.72698   0.00000  Uiso   1.00
O497   O     0.70725   0.42693   0.72698   0.00000  Uiso   1.00
O498   O     0.79276   0.07308   0.27302   0.00000  Uiso   1.00
O499   O     0.92693   0.29276   0.72698   0.00000  Uiso   1.00
O500   O     0.57308   0.20725   0.27302   0.00000  Uiso   1.00
O501   O     0.79276   0.07308   0.72698   0.00000  Uiso   1.00
O502   O     0.70725   0.42693   0.27302   0.00000  Uiso   1.00
O503   O     0.57308   0.20725   0.72698   0.00000  Uiso   1.00
O504   O     0.92693   0.29276   0.27302   0.00000  Uiso   1.00
O505   O     0.95725   0.32308   0.77302   0.00000  Uiso   1.00
O506   O     0.54276   0.17693   0.22698   0.00000  Uiso   1.00
O507   O     0.67693   0.45725   0.77302   0.00000  Uiso   1.00
O508   O     0.82308   0.04276   0.22698   0.00000  Uiso   1.00
O509   O     0.54276   0.17693   0.77302   0.00000  Uiso   1.00
O510   O     0.95725   0.32308   0.22698   0.00000  Uiso   1.00
O511   O     0.82308   0.04276   0.77302   0.00000  Uiso   1.00
O512   O     0.67693   0.45725   0.22698   0.00000  Uiso   1.00
O513   O     0.95725   0.17693   0.22698   0.00000  Uiso   1.00
O514   O     0.54276   0.32308   0.77302   0.00000  Uiso   1.00
O515   O     0.67693   0.04276   0.22698   0.00000  Uiso   1.00
O516   O     0.82308   0.45725   0.77302   0.00000  Uiso   1.00
O517   O     0.54276   0.32308   0.22698   0.00000  Uiso   1.00
O518   O     0.95725   0.17693   0.77302   0.00000  Uiso   1.00
O519   O     0.82308   0.45725   0.22698   0.00000  Uiso   1.00
O520   O     0.67693   0.04276   0.77302   0.00000  Uiso   1.00
Zn521  Zn    0.70660   0.00000   0.21735   0.00000  Uiso   1.00
Zn522  Zn    0.79341   0.00000   0.78265   0.00000  Uiso   1.00
Zn523  Zn    0.50000   0.20660   0.21735   0.00000  Uiso   1.00
Zn524  Zn    0.50000   0.29341   0.78265   0.00000  Uiso   1.00
Zn525  Zn    0.79341   0.00000   0.21735   0.00000  Uiso   1.00
Zn526  Zn    0.70660   0.00000   0.78265   0.00000  Uiso   1.00
Zn527  Zn    0.50000   0.29341   0.21735   0.00000  Uiso   1.00
Zn528  Zn    0.50000   0.20660   0.78265   0.00000  Uiso   1.00
Zn529  Zn    0.95660   0.25000   0.71735   0.00000  Uiso   1.00
Zn530  Zn    0.54341   0.25000   0.28265   0.00000  Uiso   1.00
Zn531  Zn    0.75000   0.45660   0.71735   0.00000  Uiso   1.00
Zn532  Zn    0.75000   0.04341   0.28265   0.00000  Uiso   1.00
Zn533  Zn    0.54341   0.25000   0.71735   0.00000  Uiso   1.00
Zn534  Zn    0.95660   0.25000   0.28265   0.00000  Uiso   1.00
Zn535  Zn    0.75000   0.04341   0.71735   0.00000  Uiso   1.00
Zn536  Zn    0.75000   0.45660   0.28265   0.00000  Uiso   1.00
O537   O     0.53810   0.15613   0.46238   0.00000  Uiso   1.00
H538   H     0.54113   0.15817   0.43375   0.00000  Uiso   1.00
O539   O     0.96193   0.34388   0.53761   0.00000  Uiso   1.00
H540   H     0.95890   0.34184   0.56624   0.00000  Uiso   1.00
O541   O     0.84528   0.46812   0.46092   0.00000  Uiso   1.00
H542   H     0.84789   0.48062   0.43534   0.00000  Uiso   1.00
O543   O     0.65334   0.02780   0.53840   0.00000  Uiso   1.00
H544   H     0.65694   0.03814   0.56495   0.00000  Uiso   1.00
O545   O     0.96320   0.34389   0.46189   0.00000  Uiso   1.00
H546   H     0.95433   0.33984   0.43504   0.00000  Uiso   1.00
O547   O     0.53681   0.15610   0.53810   0.00000  Uiso   1.00
H548   H     0.54564   0.16013   0.56497   0.00000  Uiso   1.00
O549   O     0.65327   0.02974   0.46262   0.00000  Uiso   1.00
H550   H     0.65458   0.03108   0.43380   0.00000  Uiso   1.00
O551   O     0.84645   0.46910   0.53736   0.00000  Uiso   1.00
H552   H     0.84432   0.46536   0.56580   0.00000  Uiso   1.00
O553   O     0.75864   0.40080   0.96035   0.00000  Uiso   1.00
H554   H     0.74106   0.40059   0.93847   0.00000  Uiso   1.00
O555   O     0.74069   0.09941   0.03953   0.00000  Uiso   1.00
H556   H     0.75675   0.09965   0.06231   0.00000  Uiso   1.00
O557   O     0.59276   0.29101   0.96288   0.00000  Uiso   1.00
H558   H     0.59079   0.29341   0.93422   0.00000  Uiso   1.00
O559   O     0.90669   0.20998   0.03701   0.00000  Uiso   1.00
H560   H     0.90896   0.20691   0.06556   0.00000  Uiso   1.00
O561   O     0.74159   0.09975   0.96137   0.00000  Uiso   1.00
H562   H     0.75665   0.09936   0.93739   0.00000  Uiso   1.00
O563   O     0.75912   0.40009   0.03814   0.00000  Uiso   1.00
H564   H     0.74619   0.40041   0.06342   0.00000  Uiso   1.00
O565   O     0.90733   0.21168   0.96054   0.00000  Uiso   1.00
H566   H     0.90304   0.22541   0.93608   0.00000  Uiso   1.00
O567   O     0.59213   0.28983   0.03920   0.00000  Uiso   1.00
H568   H     0.58603   0.30269   0.06388   0.00000  Uiso   1.00
O569   O     0.62394   0.42513   0.18900   0.00000  Uiso   1.00
H570   H     0.62286   0.45099   0.19812   0.00000  Uiso   1.00
O571   O     0.88371   0.06674   0.80185   0.00000  Uiso   1.00
H572   H     0.88157   0.04337   0.78735   0.00000  Uiso   1.00
O573   O     0.56869   0.11733   0.19556   0.00000  Uiso   1.00
H574   H     0.54441   0.11945   0.20836   0.00000  Uiso   1.00
O575   O     0.92986   0.37900   0.80690   0.00000  Uiso   1.00
H576   H     0.95344   0.38240   0.79324   0.00000  Uiso   1.00
O577   O     0.88626   0.06490   0.20179   0.00000  Uiso   1.00
H578   H     0.88281   0.04259   0.21761   0.00000  Uiso   1.00
O579   O     0.61221   0.43663   0.79524   0.00000  Uiso   1.00
H580   H     0.61586   0.45851   0.77888   0.00000  Uiso   1.00
O581   O     0.92259   0.37213   0.18647   0.00000  Uiso   1.00
H582   H     0.94780   0.37614   0.19543   0.00000  Uiso   1.00
O583   O     0.55965   0.10990   0.78810   0.00000  Uiso   1.00
H584   H     0.55335   0.12763   0.80919   0.00000  Uiso   1.00
O585   O     0.61038   0.06151   0.79237   0.00000  Uiso   1.00
H586   H     0.61730   0.03991   0.77669   0.00000  Uiso   1.00
O587   O     0.87709   0.42609   0.18970   0.00000  Uiso   1.00
H588   H     0.85285   0.43015   0.17787   0.00000  Uiso   1.00
O589   O     0.56243   0.38630   0.79371   0.00000  Uiso   1.00
H590   H     0.54162   0.38581   0.77498   0.00000  Uiso   1.00
O591   O     0.93650   0.11451   0.20281   0.00000  Uiso   1.00
H592   H     0.95803   0.11503   0.22076   0.00000  Uiso   1.00
O593   O     0.88041   0.42975   0.80683   0.00000  Uiso   1.00
H594   H     0.88010   0.45384   0.79389   0.00000  Uiso   1.00
O595   O     0.62528   0.07493   0.18955   0.00000  Uiso   1.00
H596   H     0.61968   0.04990   0.19872   0.00000  Uiso   1.00
O597   O     0.93515   0.11420   0.79945   0.00000  Uiso   1.00
H598   H     0.95795   0.11846   0.78470   0.00000  Uiso   1.00
O599   O     0.56849   0.38149   0.19523   0.00000  Uiso   1.00
H600   H     0.54472   0.38135   0.20932   0.00000  Uiso   1.00
O601   O     0.86302   0.18716   0.70523   0.00000  Uiso   1.00
H602   H     0.86601   0.20887   0.72221   0.00000  Uiso   1.00
O603   O     0.63061   0.31952   0.30545   0.00000  Uiso   1.00
H604   H     0.63242   0.29627   0.29046   0.00000  Uiso   1.00
O605   O     0.81813   0.36688   0.69624   0.00000  Uiso   1.00
H606   H     0.79393   0.36923   0.70863   0.00000  Uiso   1.00
O607   O     0.67156   0.11984   0.31570   0.00000  Uiso   1.00
H608   H     0.69622   0.12618   0.30633   0.00000  Uiso   1.00
O609   O     0.64049   0.31201   0.70604   0.00000  Uiso   1.00
H610   H     0.63197   0.29014   0.71966   0.00000  Uiso   1.00
O611   O     0.85945   0.19138   0.28749   0.00000  Uiso   1.00
H612   H     0.86588   0.21189   0.26970   0.00000  Uiso   1.00
O613   O     0.68998   0.13943   0.71078   0.00000  Uiso   1.00
H614   H     0.71107   0.13391   0.72798   0.00000  Uiso   1.00
O615   O     0.82535   0.37475   0.31220   0.00000  Uiso   1.00
H616   H     0.82200   0.39957   0.32248   0.00000  Uiso   1.00
O617   O     0.86980   0.32032   0.30676   0.00000  Uiso   1.00
H618   H     0.86963   0.29629   0.29353   0.00000  Uiso   1.00
O619   O     0.64270   0.19158   0.71616   0.00000  Uiso   1.00
H620   H     0.62525   0.19949   0.69561   0.00000  Uiso   1.00
O621   O     0.81227   0.13974   0.29438   0.00000  Uiso   1.00
H622   H     0.78980   0.13236   0.28052   0.00000  Uiso   1.00
O623   O     0.68505   0.36666   0.70020   0.00000  Uiso   1.00
H624   H     0.70760   0.36449   0.71618   0.00000  Uiso   1.00
O625   O     0.61744   0.16658   0.31924   0.00000  Uiso   1.00
H626   H     0.61884   0.19264   0.31248   0.00000  Uiso   1.00
O627   O     0.86569   0.31490   0.70043   0.00000  Uiso   1.00
H628   H     0.86578   0.29221   0.71636   0.00000  Uiso   1.00
O629   O     0.67257   0.37633   0.31394   0.00000  Uiso   1.00
H630   H     0.69853   0.37548   0.30596   0.00000  Uiso   1.00
O631   O     0.81718   0.13394   0.69834   0.00000  Uiso   1.00
H632   H     0.79346   0.13125   0.71194   0.00000  Uiso   1.00
C633   C     0.48616   0.77967   0.41745   0.00000  Uiso   1.00
C634   C     0.01384   0.72032   0.58255   0.00000  Uiso   1.00
C635   C     0.21934   0.51148   0.41738   0.00000  Uiso   1.00
C636   C     0.28091   0.98902   0.58255   0.00000  Uiso   1.00
C637   C     0.01405   0.72035   0.41732   0.00000  Uiso   1.00
C638   C     0.48597   0.77965   0.58267   0.00000  Uiso   1.00
C639   C     0.28064   0.98847   0.41748   0.00000  Uiso   1.00
C640   C     0.21902   0.51055   0.58257   0.00000  Uiso   1.00
C641   C     0.24580   0.53253   0.91753   0.00000  Uiso   1.00
C642   C     0.25477   0.96756   0.08250   0.00000  Uiso   1.00
C643   C     0.47040   0.73591   0.91756   0.00000  Uiso   1.00
C644   C     0.02971   0.76355   0.08250   0.00000  Uiso   1.00
C645   C     0.25423   0.96757   0.91747   0.00000  Uiso   1.00
C646   C     0.24539   0.53241   0.08241   0.00000  Uiso   1.00
C647   C     0.02937   0.76466   0.91743   0.00000  Uiso   1.00
C648   C     0.46991   0.73651   0.08258   0.00000  Uiso   1.00
C649   C     0.00003   0.74999   0.39779   0.00000  Uiso   1.00
C650   C     0.49998   0.75001   0.60220   0.00000  Uiso   1.00
C651   C     0.25004   0.50006   0.39769   0.00000  Uiso   1.00
C652   C     0.24998   0.99991   0.60224   0.00000  Uiso   1.00
C653   C     0.25000   0.50003   0.89794   0.00000  Uiso   1.00
C654   C     0.25002   0.99999   0.10214   0.00000  Uiso   1.00
C655   C     0.49991   0.75011   0.89778   0.00000  Uiso   1.00
C656   C     0.49989   0.74994   0.10224   0.00000  Uiso   1.00
C657   C     0.02594   0.68803   0.47942   0.00000  Uiso   1.00
C658   C     0.47408   0.81197   0.52057   0.00000  Uiso   1.00
C659   C     0.31353   0.97920   0.47896   0.00000  Uiso   1.00
C660   C     0.18616   0.52003   0.52059   0.00000  Uiso   1.00
C661   C     0.47417   0.81185   0.47941   0.00000  Uiso   1.00
C662   C     0.02584   0.68814   0.52059   0.00000  Uiso   1.00
C663   C     0.18605   0.52024   0.47979   0.00000  Uiso   1.00
C664   C     0.31368   0.97879   0.52054   0.00000  Uiso   1.00
C665   C     0.25607   0.93377   0.97921   0.00000  Uiso   1.00
C666   C     0.24385   0.56632   0.02061   0.00000  Uiso   1.00
C667   C     0.06118   0.77783   0.97983   0.00000  Uiso   1.00
C668   C     0.43805   0.72367   0.02019   0.00000  Uiso   1.00
C669   C     0.24418   0.56645   0.97976   0.00000  Uiso   1.00
C670   C     0.25629   0.93354   0.02018   0.00000  Uiso   1.00
C671   C     0.43807   0.72476   0.97908   0.00000  Uiso   1.00
C672   C     0.06084   0.77774   0.02090   0.00000  Uiso   1.00
C673   C     0.25005   0.50002   0.35560   0.00000  Uiso   1.00
C674   C     0.24996   0.99997   0.64437   0.00000  Uiso   1.00
C675   C     0.00000   0.75000   0.35559   0.00000  Uiso   1.00
C676   C    -0.00000   0.74999   0.64441   0.00000  Uiso   1.00
C677   C     0.49993   0.75001   0.85563   0.00000  Uiso   1.00
C678   C    -0.00000   0.74997   0.14440   0.00000  Uiso   1.00
C679   C     0.25000   0.50000   0.85552   0.00000  Uiso   1.00
C680   C     0.25001   0.50002   0.14448   0.00000  Uiso   1.00
C681   C     0.17980   0.56988   0.25024   0.00000  Uiso   1.00
C682   C     0.31996   0.92978   0.75015   0.00000  Uiso   1.00
C683   C     0.42962   0.68040   0.24937   0.00000  Uiso   1.00
C684   C     0.07047   0.81966   0.75024   0.00000  Uiso   1.00
C685   C     0.32032   0.93015   0.25028   0.00000  Uiso   1.00
C686   C     0.17999   0.57001   0.75014   0.00000  Uiso   1.00
C687   C     0.07001   0.82012   0.25003   0.00000  Uiso   1.00
C688   C     0.42983   0.68010   0.75033   0.00000  Uiso   1.00
C689   C     0.17970   0.93023   0.74972   0.00000  Uiso   1.00
C690   C     0.31997   0.57031   0.24980   0.00000  Uiso   1.00
C691   C     0.42961   0.81965   0.75055   0.00000  Uiso   1.00
C692   C     0.06904   0.67888   0.25144   0.00000  Uiso   1.00
C693   C     0.32013   0.57006   0.74997   0.00000  Uiso   1.00
C694   C     0.17970   0.93013   0.25030   0.00000  Uiso   1.00
C695   C     0.07028   0.68012   0.75028   0.00000  Uiso   1.00
C696   C     0.42951   0.81956   0.24941   0.00000  Uiso   1.00
C697   C     0.12339   0.90286   0.22164   0.00000  Uiso   1.00
C698   C     0.37905   0.59453   0.77499   0.00000  Uiso   1.00
C699   C     0.09491   0.62094   0.22443   0.00000  Uiso   1.00
C700   C     0.40333   0.87648   0.77819   0.00000  Uiso   1.00
C701   C     0.37964   0.59447   0.22595   0.00000  Uiso   1.00
C702   C     0.11940   0.90662   0.77177   0.00000  Uiso   1.00
C703   C     0.40044   0.87369   0.21924   0.00000  Uiso   1.00
C704   C     0.09254   0.61927   0.77141   0.00000  Uiso   1.00
C705   C     0.11875   0.59245   0.77088   0.00000  Uiso   1.00
C706   C     0.37444   0.90066   0.21940   0.00000  Uiso   1.00
C707   C     0.09334   0.87975   0.77147   0.00000  Uiso   1.00
C708   C     0.40609   0.62099   0.22583   0.00000  Uiso   1.00
C709   C     0.37707   0.90328   0.77798   0.00000  Uiso   1.00
C710   C     0.12345   0.59679   0.22255   0.00000  Uiso   1.00
C711   C     0.40594   0.62054   0.77451   0.00000  Uiso   1.00
C712   C     0.09563   0.87774   0.22318   0.00000  Uiso   1.00
C713   C     0.36984   0.65683   0.72798   0.00000  Uiso   1.00
C714   C     0.12654   0.84696   0.27822   0.00000  Uiso   1.00
C715   C     0.34450   0.87055   0.72529   0.00000  Uiso   1.00
C716   C     0.14850   0.62145   0.28383   0.00000  Uiso   1.00
C717   C     0.13181   0.84260   0.72836   0.00000  Uiso   1.00
C718   C     0.36783   0.65937   0.26813   0.00000  Uiso   1.00
C719   C     0.15863   0.63171   0.73161   0.00000  Uiso   1.00
C720   C     0.34886   0.87527   0.28056   0.00000  Uiso   1.00
C721   C     0.37301   0.84661   0.27805   0.00000  Uiso   1.00
C722   C     0.13231   0.65848   0.73139   0.00000  Uiso   1.00
C723   C     0.34201   0.63228   0.27008   0.00000  Uiso   1.00
C724   C     0.15674   0.87056   0.72672   0.00000  Uiso   1.00
C725   C     0.12076   0.64690   0.28509   0.00000  Uiso   1.00
C726   C     0.37042   0.84351   0.72639   0.00000  Uiso   1.00
C727   C     0.15110   0.87518   0.28055   0.00000  Uiso   1.00
C728   C     0.34433   0.62949   0.72607   0.00000  Uiso   1.00
C729   C     0.01367   0.71910   0.45866   0.00000  Uiso   1.00
C730   C     0.48636   0.78090   0.54134   0.00000  Uiso   1.00
C731   C     0.28181   0.98945   0.45879   0.00000  Uiso   1.00
C732   C     0.21819   0.51061   0.54148   0.00000  Uiso   1.00
C733   C     0.48639   0.78075   0.45876   0.00000  Uiso   1.00
C734   C     0.01362   0.71925   0.54123   0.00000  Uiso   1.00
C735   C     0.21810   0.51093   0.45864   0.00000  Uiso   1.00
C736   C     0.28199   0.98908   0.54140   0.00000  Uiso   1.00
C737   C     0.25327   0.96686   0.95875   0.00000  Uiso   1.00
C738   C     0.24668   0.53323   0.04139   0.00000  Uiso   1.00
C739   C     0.03039   0.76493   0.95870   0.00000  Uiso   1.00
C740   C     0.46871   0.73681   0.04125   0.00000  Uiso   1.00
C741   C     0.24696   0.53338   0.95878   0.00000  Uiso   1.00
C742   C     0.25353   0.96665   0.04118   0.00000  Uiso   1.00
C743   C     0.46890   0.73758   0.95866   0.00000  Uiso   1.00
C744   C     0.03012   0.76454   0.04141   0.00000  Uiso   1.00
C745   C     0.09768   0.84848   0.25047   0.00000  Uiso   1.00
C746   C     0.40161   0.65225   0.75107   0.00000  Uiso   1.00
C747   C     0.15070   0.59677   0.25187   0.00000  Uiso   1.00
C748   C     0.34750   0.90104   0.75098   0.00000  Uiso   1.00
C749   C     0.40084   0.65332   0.24769   0.00000  Uiso   1.00
C750   C     0.09916   0.84730   0.75047   0.00000  Uiso   1.00
C751   C     0.34841   0.90208   0.25032   0.00000  Uiso   1.00
C752   C     0.15214   0.59822   0.75083   0.00000  Uiso   1.00
C753   C     0.09871   0.65238   0.75099   0.00000  Uiso   1.00
C754   C     0.40058   0.84668   0.24869   0.00000  Uiso   1.00
C755   C     0.15146   0.90232   0.74900   0.00000  Uiso   1.00
C756   C     0.34748   0.59919   0.24891   0.00000  Uiso   1.00
C757   C     0.40075   0.84681   0.75185   0.00000  Uiso   1.00
C758   C     0.09489   0.64854   0.25393   0.00000  Uiso   1.00
C759   C     0.34813   0.59822   0.75022   0.00000  Uiso   1.00
C760   C     0.15111   0.90257   0.25091   0.00000  Uiso   1.00
C761   C     0.49999   0.74995   0.47920   0.00000  Uiso   1.00
C762   C     0.00002   0.75004   0.52079   0.00000  Uiso   1.00
C763   C     0.25003   0.50024   0.47930   0.00000  Uiso   1.00
C764   C     0.25011   0.50006   0.52059   0.00000  Uiso   1.00
C765   C     0.25013   0.50008   0.97925   0.00000  Uiso   1.00
C766   C     0.25012   0.99998   0.02077   0.00000  Uiso   1.00
C767   C     0.49948   0.75138   0.97932   0.00000  Uiso   1.00
C768   C     0.49936   0.75107   0.02067   0.00000  Uiso   1.00
H769   H     0.47608   0.80150   0.39953   0.00000  Uiso   1.00
H770   H     0.02392   0.69849   0.60047   0.00000  Uiso   1.00
H771   H     0.19700   0.51985   0.39923   0.00000  Uiso   1.00
H772   H     0.30343   0.98115   0.60076   0.00000  Uiso   1.00
H773   H     0.02439   0.69881   0.39917   0.00000  Uiso   1.00
H774   H     0.47565   0.80120   0.60082   0.00000  Uiso   1.00
H775   H     0.30298   0.97918   0.39964   0.00000  Uiso   1.00
H776   H     0.19609   0.51801   0.60054   0.00000  Uiso   1.00
H777   H     0.24165   0.55665   0.90030   0.00000  Uiso   1.00
H778   H     0.25932   0.94360   0.09985   0.00000  Uiso   1.00
H779   H     0.44903   0.72383   0.90022   0.00000  Uiso   1.00
H780   H     0.05233   0.77254   0.10016   0.00000  Uiso   1.00
H781   H     0.25806   0.94324   0.90031   0.00000  Uiso   1.00
H782   H     0.24108   0.55658   0.09981   0.00000  Uiso   1.00
H783   H     0.05110   0.77461   0.89930   0.00000  Uiso   1.00
H784   H     0.44812   0.72664   0.10070   0.00000  Uiso   1.00
O785   O     0.25000   0.50000   0.25000   0.00000  Uiso   1.00
O786   O     0.25000   0.50000   0.75000   0.00000  Uiso   1.00
O787   O     0.00000   0.75000   0.25000   0.00000  Uiso   1.00
O788   O     0.00000   0.75000   0.75000   0.00000  Uiso   1.00
O789   O     0.25000   0.96964   0.33755   0.00000  Uiso   1.00
O790   O     0.25000   0.53037   0.66245   0.00000  Uiso   1.00
O791   O     0.03037   0.75000   0.33755   0.00000  Uiso   1.00
O792   O     0.46964   0.75000   0.66245   0.00000  Uiso   1.00
O793   O     0.25000   0.53037   0.33755   0.00000  Uiso   1.00
O794   O     0.25000   0.96964   0.66245   0.00000  Uiso   1.00
O795   O     0.46964   0.75000   0.33755   0.00000  Uiso   1.00
O796   O     0.03037   0.75000   0.66245   0.00000  Uiso   1.00
O797   O     0.00000   0.71964   0.83755   0.00000  Uiso   1.00
O798   O     0.00000   0.78037   0.16245   0.00000  Uiso   1.00
O799   O     0.28037   0.50000   0.83755   0.00000  Uiso   1.00
O800   O     0.21964   0.50000   0.16245   0.00000  Uiso   1.00
O801   O     0.00000   0.78037   0.83755   0.00000  Uiso   1.00
O802   O     0.00000   0.71964   0.16245   0.00000  Uiso   1.00
O803   O     0.21964   0.50000   0.83755   0.00000  Uiso   1.00
O804   O     0.28037   0.50000   0.16245   0.00000  Uiso   1.00
O805   O     0.20725   0.57308   0.27302   0.00000  Uiso   1.00
O806   O     0.29276   0.92693   0.72698   0.00000  Uiso   1.00
O807   O     0.42693   0.70725   0.27302   0.00000  Uiso   1.00
O808   O     0.07308   0.79276   0.72698   0.00000  Uiso   1.00
O809   O     0.29276   0.92693   0.27302   0.00000  Uiso   1.00
O810   O     0.20725   0.57308   0.72698   0.00000  Uiso   1.00
O811   O     0.07308   0.79276   0.27302   0.00000  Uiso   1.00
O812   O     0.42693   0.70725   0.72698   0.00000  Uiso   1.00
O813   O     0.20725   0.92693   0.72698   0.00000  Uiso   1.00
O814   O     0.29276   0.57308   0.27302   0.00000  Uiso   1.00
O815   O     0.42693   0.79276   0.72698   0.00000  Uiso   1.00
O816   O     0.07308   0.70725   0.27302   0.00000  Uiso   1.00
O817   O     0.29276   0.57308   0.72698   0.00000  Uiso   1.00
O818   O     0.20725   0.92693   0.27302   0.00000  Uiso   1.00
O819   O     0.07308   0.70725   0.72698   0.00000  Uiso   1.00
O820   O     0.42693   0.79276   0.27302   0.00000  Uiso   1.00
O821   O     0.45725   0.82308   0.77302   0.00000  Uiso   1.00
O822   O     0.04276   0.67693   0.22698   0.00000  Uiso   1.00
O823   O     0.17693   0.95725   0.77302   0.00000  Uiso   1.00
O824   O     0.32308   0.54276   0.22698   0.00000  Uiso   1.00
O825   O     0.04276   0.67693   0.77302   0.00000  Uiso   1.00
O826   O     0.45725   0.82308   0.22698   0.00000  Uiso   1.00
O827   O     0.32308   0.54276   0.77302   0.00000  Uiso   1.00
O828   O     0.17693   0.95725   0.22698   0.00000  Uiso   1.00
O829   O     0.45725   0.67693   0.22698   0.00000  Uiso   1.00
O830   O     0.04276   0.82308   0.77302   0.00000  Uiso   1.00
O831   O     0.17693   0.54276   0.22698   0.00000  Uiso   1.00
O832   O     0.32308   0.95725   0.77302   0.00000  Uiso   1.00
O833   O     0.04276   0.82308   0.22698   0.00000  Uiso   1.00
O834   O     0.45725   0.67693   0.77302   0.00000  Uiso   1.00
O835   O     0.32308   0.95725   0.22698   0.00000  Uiso   1.00
O836   O     0.17693   0.54276   0.77302   0.00000  Uiso   1.00
Zn837  Zn    0.20660   0.50000   0.21735   0.00000  Uiso   1.00
Zn838  Zn    0.29341   0.50000   0.78265   0.00000  Uiso   1.00
Zn839  Zn    0.00000   0.70660   0.21735   0.00000  Uiso   1.00
Zn840  Zn    0.00000   0.79341   0.78265   0.00000  Uiso   1.00
Zn841  Zn    0.29341   0.50000   0.21735   0.00000  Uiso   1.00
Zn842  Zn    0.20660   0.50000   0.78265   0.00000  Uiso   1.00
Zn843  Zn    0.00000   0.79341   0.21735   0.00000  Uiso   1.00
Zn844  Zn    0.00000   0.70660   0.78265   0.00000  Uiso   1.00
Zn845  Zn    0.45660   0.75000   0.71735   0.00000  Uiso   1.00
Zn846  Zn    0.04341   0.75000   0.28265   0.00000  Uiso   1.00
Zn847  Zn    0.25000   0.95660   0.71735   0.00000  Uiso   1.00
Zn848  Zn    0.25000   0.54341   0.28265   0.00000  Uiso   1.00
Zn849  Zn    0.04341   0.75000   0.71735   0.00000  Uiso   1.00
Zn850  Zn    0.45660   0.75000   0.28265   0.00000  Uiso   1.00
Zn851  Zn    0.25000   0.54341   0.71735   0.00000  Uiso   1.00
Zn852  Zn    0.25000   0.95660   0.28265   0.00000  Uiso   1.00
O853   O     0.03810   0.65613   0.46238   0.00000  Uiso   1.00
H854   H     0.04113   0.65817   0.43375   0.00000  Uiso   1.00
O855   O     0.46193   0.84388   0.53761   0.00000  Uiso   1.00
H856   H     0.45890   0.84184   0.56624   0.00000  Uiso   1.00
O857   O     0.34528   0.96812   0.46092   0.00000  Uiso   1.00
H858   H     0.34789   0.98062   0.43534   0.00000  Uiso   1.00
O859   O     0.15334   0.52780   0.53840   0.00000  Uiso   1.00
H860   H     0.15694   0.53814   0.56495   0.00000  Uiso   1.00
O861   O     0.46320   0.84389   0.46189   0.00000  Uiso   1.00
H862   H     0.45433   0.83984   0.43504   0.00000  Uiso   1.00
O863   O     0.03681   0.65610   0.53810   0.00000  Uiso   1.00
H864   H     0.04564   0.66013   0.56497   0.00000  Uiso   1.00
O865   O     0.15327   0.52974   0.46262   0.00000  Uiso   1.00
H866   H     0.15458   0.53108   0.43380   0.00000  Uiso   1.00
O867   O     0.34645   0.96910   0.53736   0.00000  Uiso   1.00
H868   H     0.34432   0.96536   0.56580   0.00000  Uiso   1.00
O869   O     0.25864   0.90080   0.96035   0.00000  Uiso   1.00
H870   H     0.24106   0.90059   0.93847   0.00000  Uiso   1.00
O871   O     0.24069   0.59941   0.03953   0.00000  Uiso   1.00
H872   H     0.25675   0.59965   0.06231   0.00000  Uiso   1.00
O873   O     0.09276   0.79101   0.96288   0.00000  Uiso   1.00
H874   H     0.09079   0.79341   0.93422   0.00000  Uiso   1.00
O875   O     0.40669   0.70998   0.03701   0.00000  Uiso   1.00
H876   H     0.40896   0.70691   0.06556   0.00000  Uiso   1.00
O877   O     0.24159   0.59975   0.96137   0.00000  Uiso   1.00
H878   H     0.25665   0.59936   0.93739   0.00000  Uiso   1.00
O879   O     0.25912   0.90009   0.03814   0.00000  Uiso   1.00
H880   H     0.24619   0.90041   0.06342   0.00000  Uiso   1.00
O881   O     0.40733   0.71168   0.96054   0.00000  Uiso   1.00
H882   H     0.40304   0.72541   0.93608   0.00000  Uiso   1.00
O883   O     0.09213   0.78983   0.03920   0.00000  Uiso   1.00
H884   H     0.08603   0.80269   0.06388   0.00000  Uiso   1.00
O885   O     0.12394   0.92513   0.18900   0.00000  Uiso   1.00
H886   H     0.12286   0.95099   0.19812   0.00000  Uiso   1.00
O887   O     0.38371   0.56674   0.80185   0.00000  Uiso   1.00
H888   H     0.38157   0.54337   0.78735   0.00000  Uiso   1.00
O889   O     0.06869   0.61733   0.19556   0.00000  Uiso   1.00
H890   H     0.04441   0.61945   0.20836   0.00000  Uiso   1.00
O891   O     0.42986   0.87900   0.80690   0.00000  Uiso   1.00
H892   H     0.45344   0.88240   0.79324   0.00000  Uiso   1.00
O893   O     0.38626   0.56490   0.20179   0.00000  Uiso   1.00
H894   H     0.38281   0.54259   0.21761   0.00000  Uiso   1.00
O895   O     0.11221   0.93663   0.79524   0.00000  Uiso   1.00
H896   H     0.11586   0.95851   0.77888   0.00000  Uiso   1.00
O897   O     0.42259   0.87213   0.18647   0.00000  Uiso   1.00
H898   H     0.44780   0.87614   0.19543   0.00000  Uiso   1.00
O899   O     0.05965   0.60990   0.78810   0.00000  Uiso   1.00
H900   H     0.05335   0.62763   0.80919   0.00000  Uiso   1.00
O901   O     0.11038   0.56151   0.79237   0.00000  Uiso   1.00
H902   H     0.11730   0.53991   0.77669   0.00000  Uiso   1.00
O903   O     0.37709   0.92609   0.18970   0.00000  Uiso   1.00
H904   H     0.35285   0.93015   0.17787   0.00000  Uiso   1.00
O905   O     0.06243   0.88630   0.79371   0.00000  Uiso   1.00
H906   H     0.04162   0.88581   0.77498   0.00000  Uiso   1.00
O907   O     0.43650   0.61451   0.20281   0.00000  Uiso   1.00
H908   H     0.45803   0.61503   0.22076   0.00000  Uiso   1.00
O909   O     0.38041   0.92975   0.80683   0.00000  Uiso   1.00
H910   H     0.38010   0.95384   0.79389   0.00000  Uiso   1.00
O911   O     0.12528   0.57493   0.18955   0.00000  Uiso   1.00
H912   H     0.11968   0.54990   0.19872   0.00000  Uiso   1.00
O913   O     0.43515   0.61420   0.79945   0.00000  Uiso   1.00
H914   H     0.45795   0.61846   0.78470   0.00000  Uiso   1.00
O915   O     0.06849   0.88149   0.19523   0.00000  Uiso   1.00
H916   H     0.04472   0.88135   0.20932   0.00000  Uiso   1.00
O917   O     0.36302   0.68716   0.70523   0.00000  Uiso   1.00
H918   H     0.36601   0.70887   0.72221   0.00000  Uiso   1.00
O919   O     0.13061   0.81952   0.30545   0.00000  Uiso   1.00
H920   H     0.13242   0.79627   0.29046   0.00000  Uiso   1.00
O921   O     0.31813   0.86688   0.69624   0.00000  Uiso   1.00
H922   H     0.29393   0.86923   0.70863   0.00000  Uiso   1.00
O923   O     0.17156   0.61984   0.31570   0.00000  Uiso   1.00
H924   H     0.19622   0.62618   0.30633   0.00000  Uiso   1.00
O925   O     0.14049   0.81201   0.70604   0.00000  Uiso   1.00
H926   H     0.13197   0.79014   0.71966   0.00000  Uiso   1.00
O927   O     0.35945   0.69138   0.28749   0.00000  Uiso   1.00
H928   H     0.36588   0.71189   0.26970   0.00000  Uiso   1.00
O929   O     0.18998   0.63943   0.71078   0.00000  Uiso   1.00
H930   H     0.21107   0.63391   0.72798   0.00000  Uiso   1.00
O931   O     0.32535   0.87475   0.31220   0.00000  Uiso   1.00
H932   H     0.32200   0.89957   0.32248   0.00000  Uiso   1.00
O933   O     0.36980   0.82032   0.30676   0.00000  Uiso   1.00
H934   H     0.36963   0.79629   0.29353   0.00000  Uiso   1.00
O935   O     0.14270   0.69158   0.71616   0.00000  Uiso   1.00
H936   H     0.12525   0.69949   0.69561   0.00000  Uiso   1.00
O937   O     0.31227   0.63974   0.29438   0.00000  Uiso   1.00
H938   H     0.28980   0.63236   0.28052   0.00000  Uiso   1.00
O939   O     0.18505   0.86666   0.70020   0.00000  Uiso   1.00
H940   H     0.20760   0.86449   0.71618   0.00000  Uiso   1.00
O941   O     0.11744   0.66658   0.31924   0.00000  Uiso   1.00
H942   H     0.11884   0.69264   0.31248   0.00000  Uiso   1.00
O943   O     0.36569   0.81490   0.70043   0.00000  Uiso   1.00
H944   H     0.36578   0.79221   0.71636   0.00000  Uiso   1.00
O945   O     0.17257   0.87633   0.31394   0.00000  Uiso   1.00
H946   H     0.19853   0.87548   0.30596   0.00000  Uiso   1.00
O947   O     0.31718   0.63394   0.69834   0.00000  Uiso   1.00
H948   H     0.29346   0.63125   0.71194   0.00000  Uiso   1.00
C949   C     0.98616   0.77967   0.41745   0.00000  Uiso   1.00
C950   C     0.51384   0.72032   0.58255   0.00000  Uiso   1.00
C951   C     0.71934   0.51148   0.41738   0.00000  Uiso   1.00
C952   C     0.78091   0.98902   0.58255   0.00000  Uiso   1.00
C953   C     0.51405   0.72035   0.41732   0.00000  Uiso   1.00
C954   C     0.98597   0.77965   0.58267   0.00000  Uiso   1.00
C955   C     0.78064   0.98847   0.41748   0.00000  Uiso   1.00
C956   C     0.71902   0.51055   0.58257   0.00000  Uiso   1.00
C957   C     0.74580   0.53253   0.91753   0.00000  Uiso   1.00
C958   C     0.75477   0.96756   0.08250   0.00000  Uiso   1.00
C959   C     0.97040   0.73591   0.91756   0.00000  Uiso   1.00
C960   C     0.52971   0.76355   0.08250   0.00000  Uiso   1.00
C961   C     0.75423   0.96757   0.91747   0.00000  Uiso   1.00
C962   C     0.74539   0.53241   0.08241   0.00000  Uiso   1.00
C963   C     0.52937   0.76466   0.91743   0.00000  Uiso   1.00
C964   C     0.96991   0.73651   0.08258   0.00000  Uiso   1.00
C965   C     0.50003   0.74999   0.39779   0.00000  Uiso   1.00
C966   C     0.99998   0.75001   0.60220   0.00000  Uiso   1.00
C967   C     0.75004   0.50006   0.39769   0.00000  Uiso   1.00
C968   C     0.74998   0.99991   0.60224   0.00000  Uiso   1.00
C969   C     0.75000   0.50003   0.89794   0.00000  Uiso   1.00
C970   C     0.75002   0.99999   0.10214   0.00000  Uiso   1.00
C971   C     0.99991   0.75011   0.89778   0.00000  Uiso   1.00
C972   C     0.99989   0.74994   0.10224   0.00000  Uiso   1.00
C973   C     0.52594   0.68803   0.47942   0.00000  Uiso   1.00
C974   C     0.97408   0.81197   0.52057   0.00000  Uiso   1.00
C975   C     0.81353   0.97920   0.47896   0.00000  Uiso   1.00
C976   C     0.68616   0.52003   0.52059   0.00000  Uiso   1.00
C977   C     0.97417   0.81185   0.47941   0.00000  Uiso   1.00
C978   C     0.52584   0.68814   0.52059   0.00000  Uiso   1.00
C979   C     0.68605   0.52024   0.47979   0.00000  Uiso   1.00
C980   C     0.81368   0.97879   0.52054   0.00000  Uiso   1.00
C981   C     0.75607   0.93377   0.97921   0.00000  Uiso   1.00
C982   C     0.74385   0.56632   0.02061   0.00000  Uiso   1.00
C983   C     0.56118   0.77783   0.97983   0.00000  Uiso   1.00
C984   C     0.93805   0.72367   0.02019   0.00000  Uiso   1.00
C985   C     0.74418   0.56645   0.97976   0.00000  Uiso   1.00
C986   C     0.75629   0.93354   0.02018   0.00000  Uiso   1.00
C987   C     0.93807   0.72476   0.97908   0.00000  Uiso   1.00
C988   C     0.56084   0.77774   0.02090   0.00000  Uiso   1.00
C989   C     0.75005   0.50002   0.35560   0.00000  Uiso   1.00
C990   C     0.74996   0.99997   0.64437   0.00000  Uiso   1.00
C991   C     0.50000   0.75000   0.35559   0.00000  Uiso   1.00
C992   C     0.50000   0.74999   0.64441   0.00000  Uiso   1.00
C993   C     0.99993   0.75001   0.85563   0.00000  Uiso   1.00
C994   C     0.50000   0.74997   0.14440   0.00000  Uiso   1.00
C995   C     0.75000   0.50000   0.85552   0.00000  Uiso   1.00
C996   C     0.75001   0.50002   0.14448   0.00000  Uiso   1.00
C997   C     0.67980   0.56988   0.25024   0.00000  Uiso   1.00
C998   C     0.81996   0.92978   0.75015   0.00000  Uiso   1.00
C999   C     0.92962   0.68040   0.24937   0.00000  Uiso   1.00
C1000  C     0.57047   0.81966   0.75024   0.00000  Uiso   1.00
C1001  C     0.82032   0.93015   0.25028   0.00000  Uiso   1.00
C1002  C     0.67999   0.57001   0.75014   0.00000  Uiso   1.00
C1003  C     0.57001   0.82012   0.25003   0.00000  Uiso   1.00
C1004  C     0.92983   0.68010   0.75033   0.00000  Uiso   1.00
C1005  C     0.67970   0.93023   0.74972   0.00000  Uiso   1.00
C1006  C     0.81997   0.57031   0.24980   0.00000  Uiso   1.00
C1007  C     0.92961   0.81965   0.75055   0.00000  Uiso   1.00
C1008  C     0.56904   0.67888   0.25144   0.00000  Uiso   1.00
C1009  C     0.82013   0.57006   0.74997   0.00000  Uiso   1.00
C1010  C     0.67970   0.93013   0.25030   0.00000  Uiso   1.00
C1011  C     0.57028   0.68012   0.75028   0.00000  Uiso   1.00
C1012  C     0.92951   0.81956   0.24941   0.00000  Uiso   1.00
C1013  C     0.62339   0.90286   0.22164   0.00000  Uiso   1.00
C1014  C     0.87905   0.59453   0.77499   0.00000  Uiso   1.00
C1015  C     0.59491   0.62094   0.22443   0.00000  Uiso   1.00
C1016  C     0.90333   0.87648   0.77819   0.00000  Uiso   1.00
C1017  C     0.87964   0.59447   0.22595   0.00000  Uiso   1.00
C1018  C     0.61940   0.90662   0.77177   0.00000  Uiso   1.00
C1019  C     0.90044   0.87369   0.21924   0.00000  Uiso   1.00
C1020  C     0.59254   0.61927   0.77141   0.00000  Uiso   1.00
C1021  C     0.61875   0.59245   0.77088   0.00000  Uiso   1.00
C1022  C     0.87444   0.90066   0.21940   0.00000  Uiso   1.00
C1023  C     0.59334   0.87975   0.77147   0.00000  Uiso   1.00
C1024  C     0.90609   0.62099   0.22583   0.00000  Uiso   1.00
C1025  C     0.87707   0.90328   0.77798   0.00000  Uiso   1.00
C1026  C     0.62345   0.59679   0.22255   0.00000  Uiso   1.00
C1027  C     0.90594   0.62054   0.77451   0.00000  Uiso   1.00
C1028  C     0.59563   0.87774   0.22318   0.00000  Uiso   1.00
C1029  C     0.86984   0.65683   0.72798   0.00000  Uiso   1.00
C1030  C     0.62654   0.84696   0.27822   0.00000  Uiso   1.00
C1031  C     0.84450   0.87055   0.72529   0.00000  Uiso   1.00
C1032  C     0.64850   0.62145   0.28383   0.00000  Uiso   1.00
C1033  C     0.63181   0.84260   0.72836   0.00000  Uiso   1.00
C1034  C     0.86783   0.65937   0.26813   0.00000  Uiso   1.00
C1035  C     0.65863   0.63171   0.73161   0.00000  Uiso   1.00
C1036  C     0.84886   0.87527   0.28056   0.00000  Uiso   1.00
C1037  C     0.87301   0.84661   0.27805   0.00000  Uiso   1.00
C1038  C     0.63231   0.65848   0.73139   0.00000  Uiso   1.00
C1039  C     0.84201   0.63228   0.27008   0.00000  Uiso   1.00
C1040  C     0.65674   0.87056   0.72672   0.00000  Uiso   1.00
C1041  C     0.62076   0.64690   0.28509   0.00000  Uiso   1.00
C1042  C     0.87042   0.84351   0.72639   0.00000  Uiso   1.00
C1043  C     0.65110   0.87518   0.28055   0.00000  Uiso   1.00
C1044  C     0.84433   0.62949   0.72607   0.00000  Uiso   1.00
C1045  C     0.51367   0.71910   0.45866   0.00000  Uiso   1.00
C1046  C     0.98636   0.78090   0.54134   0.00000  Uiso   1.00
C1047  C     0.78181   0.98945   0.45879   0.00000  Uiso   1.00
C1048  C     0.71819   0.51061   0.54148   0.00000  Uiso   1.00
C1049  C     0.98639   0.78075   0.45876   0.00000  Uiso   1.00
C1050  C     0.51362   0.71925   0.54123   0.00000  Uiso   1.00
C1051  C     0.71810   0.51093   0.45864   0.00000  Uiso   1.00
C1052  C     0.78199   0.98908   0.54140   0.00000  Uiso   1.00
C1053  C     0.75327   0.96686   0.95875   0.00000  Uiso   1.00
C1054  C     0.74668   0.53323   0.04139   0.00000  Uiso   1.00
C1055  C     0.53039   0.76493   0.95870   0.00000  Uiso   1.00
C1056  C     0.96871   0.73681   0.04125   0.00000  Uiso   1.00
C1057  C     0.74696   0.53338   0.95878   0.00000  Uiso   1.00
C1058  C     0.75353   0.96665   0.04118   0.00000  Uiso   1.00
C1059  C     0.96890   0.73758   0.95866   0.00000  Uiso   1.00
C1060  C     0.53012   0.76454   0.04141   0.00000  Uiso   1.00
C1061  C     0.59768   0.84848   0.25047   0.00000  Uiso   1.00
C1062  C     0.90161   0.65225   0.75107   0.00000  Uiso   1.00
C1063  C     0.65070   0.59677   0.25187   0.00000  Uiso   1.00
C1064  C     0.84750   0.90104   0.75098   0.00000  Uiso   1.00
C1065  C     0.90084   0.65332   0.24769   0.00000  Uiso   1.00
C1066  C     0.59916   0.84730   0.75047   0.00000  Uiso   1.00
C1067  C     0.84841   0.90208   0.25032   0.00000  Uiso   1.00
C1068  C     0.65214   0.59822   0.75083   0.00000  Uiso   1.00
C1069  C     0.59871   0.65238   0.75099   0.00000  Uiso   1.00
C1070  C     0.90058   0.84668   0.24869   0.00000  Uiso   1.00
C1071  C     0.65146   0.90232   0.74900   0.00000  Uiso   1.00
C1072  C     0.84748   0.59919   0.24891   0.00000  Uiso   1.00
C1073  C     0.90075   0.84681   0.75185   0.00000  Uiso   1.00
C1074  C     0.59489   0.64854   0.25393   0.00000  Uiso   1.00
C1075  C     0.84813   0.59822   0.75022   0.00000  Uiso   1.00
C1076  C     0.65111   0.90257   0.25091   0.00000  Uiso   1.00
C1077  C     0.99999   0.74995   0.47920   0.00000  Uiso   1.00
C1078  C     0.50002   0.75004   0.52079   0.00000  Uiso   1.00
C1079  C     0.75003   0.50024   0.47930   0.00000  Uiso   1.00
C1080  C     0.75011   0.50006   0.52059   0.00000  Uiso   1.00
C1081  C     0.75013   0.50008   0.97925   0.00000  Uiso   1.00
C1082  C     0.75012   0.99998   0.02077   0.00000  Uiso   1.00
C1083  C     0.99948   0.75138   0.97932   0.00000  Uiso   1.00
C1084  C     0.99936   0.75107   0.02067   0.00000  Uiso   1.00
H1085  H     0.97608   0.80150   0.39953   0.00000  Uiso   1.00
H1086  H     0.52392   0.69849   0.60047   0.00000  Uiso   1.00
H1087  H     0.69700   0.51985   0.39923   0.00000  Uiso   1.00
H1088  H     0.80343   0.98115   0.60076   0.00000  Uiso   1.00
H1089  H     0.52439   0.69881   0.39917   0.00000  Uiso   1.00
H1090  H     0.97565   0.80120   0.60082   0.00000  Uiso   1.00
H1091  H     0.80298   0.97918   0.39964   0.00000  Uiso   1.00
H1092  H     0.69609   0.51801   0.60054   0.00000  Uiso   1.00
H1093  H     0.74165   0.55665   0.90030   0.00000  Uiso   1.00
H1094  H     0.75932   0.94360   0.09985   0.00000  Uiso   1.00
H1095  H     0.94903   0.72383   0.90022   0.00000  Uiso   1.00
H1096  H     0.55233   0.77254   0.10016   0.00000  Uiso   1.00
H1097  H     0.75806   0.94324   0.90031   0.00000  Uiso   1.00
H1098  H     0.74108   0.55658   0.09981   0.00000  Uiso   1.00
H1099  H     0.55110   0.77461   0.89930   0.00000  Uiso   1.00
H1100  H     0.94812   0.72664   0.10070   0.00000  Uiso   1.00
O1101  O     0.75000   0.50000   0.25000   0.00000  Uiso   1.00
O1102  O     0.75000   0.50000   0.75000   0.00000  Uiso   1.00
O1103  O     0.50000   0.75000   0.25000   0.00000  Uiso   1.00
O1104  O     0.50000   0.75000   0.75000   0.00000  Uiso   1.00
O1105  O     0.75000   0.96964   0.33755   0.00000  Uiso   1.00
O1106  O     0.75000   0.53037   0.66245   0.00000  Uiso   1.00
O1107  O     0.53037   0.75000   0.33755   0.00000  Uiso   1.00
O1108  O     0.96964   0.75000   0.66245   0.00000  Uiso   1.00
O1109  O     0.75000   0.53037   0.33755   0.00000  Uiso   1.00
O1110  O     0.75000   0.96964   0.66245   0.00000  Uiso   1.00
O1111  O     0.96964   0.75000   0.33755   0.00000  Uiso   1.00
O1112  O     0.53037   0.75000   0.66245   0.00000  Uiso   1.00
O1113  O     0.50000   0.71964   0.83755   0.00000  Uiso   1.00
O1114  O     0.50000   0.78037   0.16245   0.00000  Uiso   1.00
O1115  O     0.78037   0.50000   0.83755   0.00000  Uiso   1.00
O1116  O     0.71964   0.50000   0.16245   0.00000  Uiso   1.00
O1117  O     0.50000   0.78037   0.83755   0.00000  Uiso   1.00
O1118  O     0.50000   0.71964   0.16245   0.00000  Uiso   1.00
O1119  O     0.71964   0.50000   0.83755   0.00000  Uiso   1.00
O1120  O     0.78037   0.50000   0.16245   0.00000  Uiso   1.00
O1121  O     0.70725   0.57308   0.27302   0.00000  Uiso   1.00
O1122  O     0.79276   0.92693   0.72698   0.00000  Uiso   1.00
O1123  O     0.92693   0.70725   0.27302   0.00000  Uiso   1.00
O1124  O     0.57308   0.79276   0.72698   0.00000  Uiso   1.00
O1125  O     0.79276   0.92693   0.27302   0.00000  Uiso   1.00
O1126  O     0.70725   0.57308   0.72698   0.00000  Uiso   1.00
O1127  O     0.57308   0.79276   0.27302   0.00000  Uiso   1.00
O1128  O     0.92693   0.70725   0.72698   0.00000  Uiso   1.00
O1129  O     0.70725   0.92693   0.72698   0.00000  Uiso   1.00
O1130  O     0.79276   0.57308   0.27302   0.00000  Uiso   1.00
O1131  O     0.92693   0.79276   0.72698   0.00000  Uiso   1.00
O1132  O     0.57308   0.70725   0.27302   0.00000  Uiso   1.00
O1133  O     0.79276   0.57308   0.72698   0.00000  Uiso   1.00
O1134  O     0.70725   0.92693   0.27302   0.00000  Uiso   1.00
O1135  O     0.57308   0.70725   0.72698   0.00000  Uiso   1.00
O1136  O     0.92693   0.79276   0.27302   0.00000  Uiso   1.00
O1137  O     0.95725   0.82308   0.77302   0.00000  Uiso   1.00
O1138  O     0.54276   0.67693   0.22698   0.00000  Uiso   1.00
O1139  O     0.67693   0.95725   0.77302   0.00000  Uiso   1.00
O1140  O     0.82308   0.54276   0.22698   0.00000  Uiso   1.00
O1141  O     0.54276   0.67693   0.77302   0.00000  Uiso   1.00
O1142  O     0.95725   0.82308   0.22698   0.00000  Uiso   1.00
O1143  O     0.82308   0.54276   0.77302   0.00000  Uiso   1.00
O1144  O     0.67693   0.95725   0.22698   0.00000  Uiso   1.00
O1145  O     0.95725   0.67693   0.22698   0.00000  Uiso   1.00
O1146  O     0.54276   0.82308   0.77302   0.00000  Uiso   1.00
O1147  O     0.67693   0.54276   0.22698   0.00000  Uiso   1.00
O1148  O     0.82308   0.95725   0.77302   0.00000  Uiso   1.00
O1149  O     0.54276   0.82308   0.22698   0.00000  Uiso   1.00
O1150  O     0.95725   0.67693   0.77302   0.00000  Uiso   1.00
O1151  O     0.82308   0.95725   0.22698   0.00000  Uiso   1.00
O1152  O     0.67693   0.54276   0.77302   0.00000  Uiso   1.00
Zn1153 Zn    0.70660   0.50000   0.21735   0.00000  Uiso   1.00
Zn1154 Zn    0.79341   0.50000   0.78265   0.00000  Uiso   1.00
Zn1155 Zn    0.50000   0.70660   0.21735   0.00000  Uiso   1.00
Zn1156 Zn    0.50000   0.79341   0.78265   0.00000  Uiso   1.00
Zn1157 Zn    0.79341   0.50000   0.21735   0.00000  Uiso   1.00
Zn1158 Zn    0.70660   0.50000   0.78265   0.00000  Uiso   1.00
Zn1159 Zn    0.50000   0.79341   0.21735   0.00000  Uiso   1.00
Zn1160 Zn    0.50000   0.70660   0.78265   0.00000  Uiso   1.00
Zn1161 Zn    0.95660   0.75000   0.71735   0.00000  Uiso   1.00
Zn1162 Zn    0.54341   0.75000   0.28265   0.00000  Uiso   1.00
Zn1163 Zn    0.75000   0.95660   0.71735   0.00000  Uiso   1.00
Zn1164 Zn    0.75000   0.54341   0.28265   0.00000  Uiso   1.00
Zn1165 Zn    0.54341   0.75000   0.71735   0.00000  Uiso   1.00
Zn1166 Zn    0.95660   0.75000   0.28265   0.00000  Uiso   1.00
Zn1167 Zn    0.75000   0.54341   0.71735   0.00000  Uiso   1.00
Zn1168 Zn    0.75000   0.95660   0.28265   0.00000  Uiso   1.00
O1169  O     0.53810   0.65613   0.46238   0.00000  Uiso   1.00
H1170  H     0.54113   0.65817   0.43375   0.00000  Uiso   1.00
O1171  O     0.96193   0.84388   0.53761   0.00000  Uiso   1.00
H1172  H     0.95890   0.84184   0.56624   0.00000  Uiso   1.00
O1173  O     0.84528   0.96812   0.46092   0.00000  Uiso   1.00
H1174  H     0.84789   0.98062   0.43534   0.00000  Uiso   1.00
O1175  O     0.65334   0.52780   0.53840   0.00000  Uiso   1.00
H1176  H     0.65694   0.53814   0.56495   0.00000  Uiso   1.00
O1177  O     0.96320   0.84389   0.46189   0.00000  Uiso   1.00
H1178  H     0.95433   0.83984   0.43504   0.00000  Uiso   1.00
O1179  O     0.53681   0.65610   0.53810   0.00000  Uiso   1.00
H1180  H     0.54564   0.66013   0.56497   0.00000  Uiso   1.00
O1181  O     0.65327   0.52974   0.46262   0.00000  Uiso   1.00
H1182  H     0.65458   0.53108   0.43380   0.00000  Uiso   1.00
O1183  O     0.84645   0.96910   0.53736   0.00000  Uiso   1.00
H1184  H     0.84432   0.96536   0.56580   0.00000  Uiso   1.00
O1185  O     0.75864   0.90080   0.96035   0.00000  Uiso   1.00
H1186  H     0.74106   0.90059   0.93847   0.00000  Uiso   1.00
O1187  O     0.74069   0.59941   0.03953   0.00000  Uiso   1.00
H1188  H     0.75675   0.59965   0.06231   0.00000  Uiso   1.00
O1189  O     0.59276   0.79101   0.96288   0.00000  Uiso   1.00
H1190  H     0.59079   0.79341   0.93422   0.00000  Uiso   1.00
O1191  O     0.90669   0.70998   0.03701   0.00000  Uiso   1.00
H1192  H     0.90896   0.70691   0.06556   0.00000  Uiso   1.00
O1193  O     0.74159   0.59975   0.96137   0.00000  Uiso   1.00
H1194  H     0.75665   0.59936   0.93739   0.00000  Uiso   1.00
O1195  O     0.75912   0.90009   0.03814   0.00000  Uiso   1.00
H1196  H     0.74619   0.90041   0.06342   0.00000  Uiso   1.00
O1197  O     0.90733   0.71168   0.96054   0.00000  Uiso   1.00
H1198  H     0.90304   0.72541   0.93608   0.00000  Uiso   1.00
O1199  O     0.59213   0.78983   0.03920   0.00000  Uiso   1.00
H1200  H     0.58603   0.80269   0.06388   0.00000  Uiso   1.00
O1201  O     0.62394   0.92513   0.18900   0.00000  Uiso   1.00
H1202  H     0.62286   0.95099   0.19812   0.00000  Uiso   1.00
O1203  O     0.88371   0.56674   0.80185   0.00000  Uiso   1.00
H1204  H     0.88157   0.54337   0.78735   0.00000  Uiso   1.00
O1205  O     0.56869   0.61733   0.19556   0.00000  Uiso   1.00
H1206  H     0.54441   0.61945   0.20836   0.00000  Uiso   1.00
O1207  O     0.92986   0.87900   0.80690   0.00000  Uiso   1.00
H1208  H     0.95344   0.88240   0.79324   0.00000  Uiso   1.00
O1209  O     0.88626   0.56490   0.20179   0.00000  Uiso   1.00
H1210  H     0.88281   0.54259   0.21761   0.00000  Uiso   1.00
O1211  O     0.61221   0.93663   0.79524   0.00000  Uiso   1.00
H1212  H     0.61586   0.95851   0.77888   0.00000  Uiso   1.00
O1213  O     0.92259   0.87213   0.18647   0.00000  Uiso   1.00
H1214  H     0.94780   0.87614   0.19543   0.00000  Uiso   1.00
O1215  O     0.55965   0.60990   0.78810   0.00000  Uiso   1.00
H1216  H     0.55335   0.62763   0.80919   0.00000  Uiso   1.00
O1217  O     0.61038   0.56151   0.79237   0.00000  Uiso   1.00
H1218  H     0.61730   0.53991   0.77669   0.00000  Uiso   1.00
O1219  O     0.87709   0.92609   0.18970   0.00000  Uiso   1.00
H1220  H     0.85285   0.93015   0.17787   0.00000  Uiso   1.00
O1221  O     0.56243   0.88630   0.79371   0.00000  Uiso   1.00
H1222  H     0.54162   0.88581   0.77498   0.00000  Uiso   1.00
O1223  O     0.93650   0.61451   0.20281   0.00000  Uiso   1.00
H1224  H     0.95803   0.61503   0.22076   0.00000  Uiso   1.00
O1225  O     0.88041   0.92975   0.80683   0.00000  Uiso   1.00
H1226  H     0.88010   0.95384   0.79389   0.00000  Uiso   1.00
O1227  O     0.62528   0.57493   0.18955   0.00000  Uiso   1.00
H1228  H     0.61968   0.54990   0.19872   0.00000  Uiso   1.00
O1229  O     0.93515   0.61420   0.79945   0.00000  Uiso   1.00
H1230  H     0.95795   0.61846   0.78470   0.00000  Uiso   1.00
O1231  O     0.56849   0.88149   0.19523   0.00000  Uiso   1.00
H1232  H     0.54472   0.88135   0.20932   0.00000  Uiso   1.00
O1233  O     0.86302   0.68716   0.70523   0.00000  Uiso   1.00
H1234  H     0.86601   0.70887   0.72221   0.00000  Uiso   1.00
O1235  O     0.63061   0.81952   0.30545   0.00000  Uiso   1.00
H1236  H     0.63242   0.79627   0.29046   0.00000  Uiso   1.00
O1237  O     0.81813   0.86688   0.69624   0.00000  Uiso   1.00
H1238  H     0.79393   0.86923   0.70863   0.00000  Uiso   1.00
O1239  O     0.67156   0.61984   0.31570   0.00000  Uiso   1.00
H1240  H     0.69622   0.62618   0.30633   0.00000  Uiso   1.00
O1241  O     0.64049   0.81201   0.70604   0.00000  Uiso   1.00
H1242  H     0.63197   0.79014   0.71966   0.00000  Uiso   1.00
O1243  O     0.85945   0.69138   0.28749   0.00000  Uiso   1.00
H1244  H     0.86588   0.71189   0.26970   0.00000  Uiso   1.00
O1245  O     0.68998   0.63943   0.71078   0.00000  Uiso   1.00
H1246  H     0.71107   0.63391   0.72798   0.00000  Uiso   1.00
O1247  O     0.82535   0.87475   0.31220   0.00000  Uiso   1.00
H1248  H     0.82200   0.89957   0.32248   0.00000  Uiso   1.00
O1249  O     0.86980   0.82032   0.30676   0.00000  Uiso   1.00
H1250  H     0.86963   0.79629   0.29353   0.00000  Uiso   1.00
O1251  O     0.64270   0.69158   0.71616   0.00000  Uiso   1.00
H1252  H     0.62525   0.69949   0.69561   0.00000  Uiso   1.00
O1253  O     0.81227   0.63974   0.29438   0.00000  Uiso   1.00
H1254  H     0.78980   0.63236   0.28052   0.00000  Uiso   1.00
O1255  O     0.68505   0.86666   0.70020   0.00000  Uiso   1.00
H1256  H     0.70760   0.86449   0.71618   0.00000  Uiso   1.00
O1257  O     0.61744   0.66658   0.31924   0.00000  Uiso   1.00
H1258  H     0.61884   0.69264   0.31248   0.00000  Uiso   1.00
O1259  O     0.86569   0.81490   0.70043   0.00000  Uiso   1.00
H1260  H     0.86578   0.79221   0.71636   0.00000  Uiso   1.00
O1261  O     0.67257   0.87633   0.31394   0.00000  Uiso   1.00
H1262  H     0.69853   0.87548   0.30596   0.00000  Uiso   1.00
O1263  O     0.81718   0.63394   0.69834   0.00000  Uiso   1.00
H1264  H     0.79346   0.63125   0.71194   0.00000  Uiso   1.00
loop_
_geom_bond_atom_site_label_1
_geom_bond_atom_site_label_2
_geom_bond_distance
_geom_bond_site_symmetry_2
_ccdc_geom_bond_type
C1     C101    1.408   .     A
C1     H137    1.080   .     S
C1     C333    1.384   .     S
C2     H138    1.080   .     S
C2     C102    1.408   .     A
C2     C334    1.384   1_455 S
C3     C19     1.384   .     A
C3     C103    1.406   .     A
C3     H139    1.077   .     S
C4     C104    1.402   .     A
C4     C20     1.385   .     A
C4     H140    1.078   .     S
C5     C97     1.409   .     A
C5     C17     1.384   .     A
C5     H141    1.078   .     S
C6     H142    1.078   .     S
C6     C98     1.409   .     A
C6     C18     1.384   .     A
C7     C99     1.408   .     A
C7     H143    1.081   .     S
C7     C651    1.385   .     S
C8     C100    1.400   .     A
C8     H144    1.081   .     S
C8     C652    1.383   1_545 S
C9     C21     1.384   .     A
C9     C109    1.406   .     A
C9     H145    1.080   .     S
C10    H146    1.079   .     S
C10    C22     1.385   .     A
C10    C110    1.408   .     A
C11    C23     1.386   .     A
C11    H147    1.084   .     S
C11    C111    1.402   .     A
C12    C112    1.400   .     A
C12    H148    1.083   .     S
C12    C340    1.387   1_455 S
C13    C105    1.407   .     A
C13    H149    1.082   .     S
C13    C653    1.383   .     S
C14    C106    1.398   .     A
C14    H150    1.084   .     S
C14    C654    1.387   1_545 S
C15    H151    1.079   .     S
C15    C107    1.406   .     A
C15    C339    1.388   1_455 S
C16    C24     1.387   .     A
C16    H152    1.079   .     S
C16    C108    1.408   .     A
C17    C43     1.437   .     S
C17    C317    1.384   1_455 S
C18    C360    1.438   .     S
C18    C318    1.384   .     S
C19    C41     1.433   .     S
C19    C639    1.385   1_545 S
C20    C42     1.435   .     S
C20    C640    1.383   .     S
C21    C645    1.383   1_545 S
C21    C47     1.445   .     S
C22    C646    1.387   .     S
C22    C680    1.442   .     S
C23    C45     1.436   .     S
C23    C331    1.388   .     S
C24    C362    1.436   .     S
C24    C328    1.387   .     S
C25    C97     1.425   .     A
C25    C30     1.402   .     A
C25    O221    1.390   .     S
C26    O223    1.390   .     S
C26    C98     1.425   .     A
C26    C29     1.402   .     A
C27    C99     1.411   .     A
C27    O225    1.386   .     S
C27    C32     1.416   .     A
C28    O227    1.386   .     S
C28    C31     1.390   .     A
C28    C100    1.425   .     A
C29    O229    1.389   .     S
C29    C101    1.422   .     A
C30    C102    1.422   .     A
C30    O231    1.389   .     S
C31    O233    1.391   .     S
C31    C103    1.428   .     A
C32    C104    1.421   .     A
C32    O235    1.387   .     S
C33    C105    1.414   .     A
C33    O237    1.382   .     S
C33    C38     1.396   1_556 S
C34    C106    1.419   .     A
C34    O239    1.389   .     S
C34    C37     1.391   1_554 S
C35    C107    1.429   .     A
C35    O241    1.392   .     S
C35    C40     1.399   1_556 S
C36    O243    1.390   .     S
C36    C108    1.427   .     A
C36    C39     1.401   1_554 S
C37    O245    1.387   .     S
C37    C109    1.421   .     A
C37    C34     1.391   1_556 S
C38    C110    1.422   .     A
C38    O247    1.386   .     S
C38    C33     1.396   1_554 S
C39    C111    1.418   .     A
C39    O249    1.388   .     S
C39    C36     1.401   1_556 S
C40    O251    1.389   .     S
C40    C112    1.421   .     A
C40    C35     1.399   1_554 S
C41    O161    1.282   .     A
C41    O789    1.281   1_545 S
C42    O162    1.282   .     A
C42    O790    1.282   .     S
C43    O159    1.280   .     A
C43    O479    1.280   1_455 S
C44    C334    1.438   1_455 S
C44    O476    1.280   1_455 A
C44    O164    1.280   .     S
C45    O481    1.282   .     S
C45    O485    1.282   .     S
C46    C340    1.436   1_455 S
C46    O166    1.282   .     A
C46    O170    1.281   .     S
C47    O167    1.279   .     S
C47    O171    1.279   .     S
C48    O168    1.279   .     A
C48    O172    1.279   .     A
C48    C654    1.442   1_545 S
C49    O173    1.283   .     A
C49    C115    1.466   .     S
C49    O199    1.283   .     A
C50    O200    1.286   .     A
C50    O174    1.283   .     A
C50    C116    1.472   .     S
C51    O197    1.281   .     A
C51    C117    1.464   .     S
C51    O175    1.282   .     A
C52    O198    1.291   .     A
C52    O176    1.275   .     A
C52    C118    1.475   .     S
C53    O177    1.286   .     A
C53    O203    1.284   .     A
C53    C119    1.468   .     S
C54    O178    1.285   .     A
C54    O204    1.281   .     A
C54    C120    1.466   .     S
C55    O201    1.282   .     A
C55    O179    1.286   .     A
C55    C113    1.467   .     S
C56    O180    1.287   .     A
C56    O202    1.280   .     A
C56    C114    1.468   .     S
C57    O191    1.280   .     A
C57    O181    1.285   .     A
C57    C123    1.470   .     S
C58    O192    1.287   .     A
C58    O182    1.283   .     A
C58    C124    1.477   .     S
C59    O189    1.283   .     A
C59    O183    1.282   .     A
C59    C125    1.466   .     S
C60    O184    1.290   .     A
C60    O190    1.282   .     A
C60    C126    1.477   .     S
C61    C127    1.471   .     S
C61    O185    1.285   .     A
C61    O195    1.285   .     A
C62    O196    1.285   .     A
C62    O186    1.285   .     A
C62    C128    1.470   .     S
C63    O187    1.285   .     A
C63    O193    1.284   .     A
C63    C121    1.469   .     S
C64    O194    1.285   .     A
C64    O188    1.282   .     A
C64    C122    1.467   .     S
C65    O253    1.385   .     S
C65    C128    1.430   .     A
C65    C80     1.387   .     A
C66    C79     1.385   .     A
C66    C127    1.428   .     A
C66    O255    1.388   .     S
C67    C126    1.432   .     A
C67    O257    1.387   .     S
C67    C78     1.384   .     A
C68    C77     1.387   .     A
C68    O259    1.388   .     S
C68    C125    1.421   .     A
C69    O261    1.390   .     S
C69    C124    1.434   .     A
C69    C76     1.386   .     A
C70    C123    1.425   .     A
C70    O263    1.393   .     S
C70    C75     1.386   .     A
C71    C122    1.417   .     A
C71    C74     1.385   .     A
C71    O265    1.385   .     S
C72    C73     1.387   .     A
C72    C121    1.429   .     A
C72    O267    1.387   .     S
C73    C120    1.427   .     A
C73    O269    1.395   .     S
C74    O271    1.386   .     S
C74    C119    1.427   .     A
C75    O273    1.392   .     S
C75    C118    1.414   .     A
C76    O275    1.391   .     S
C76    C117    1.422   .     A
C77    O277    1.393   .     S
C77    C116    1.431   .     A
C78    C115    1.419   .     A
C78    O279    1.386   .     S
C79    O281    1.394   .     S
C79    C114    1.430   .     A
C80    O283    1.390   .     S
C80    C113    1.430   .     A
C81    C114    1.424   .     A
C81    O285    1.388   .     S
C81    C96     1.386   .     A
C82    O287    1.384   .     S
C82    C95     1.388   .     A
C82    C113    1.427   .     A
C83    O289    1.396   .     S
C83    C94     1.385   .     A
C83    C116    1.432   .     A
C84    C93     1.393   .     A
C84    C115    1.423   .     A
C84    O291    1.382   .     S
C85    C92     1.388   .     A
C85    O293    1.400   .     S
C85    C118    1.433   .     A
C86    O295    1.390   .     S
C86    C117    1.422   .     A
C86    C91     1.387   .     A
C87    O297    1.389   .     S
C87    C90     1.388   .     A
C87    C120    1.423   .     A
C88    O299    1.384   .     S
C88    C119    1.432   .     A
C88    C89     1.388   .     A
C89    C122    1.428   .     A
C89    O301    1.386   .     S
C90    O303    1.386   .     S
C90    C121    1.429   .     A
C91    O305    1.403   .     S
C91    C124    1.435   .     A
C92    C123    1.412   .     A
C92    O307    1.390   .     S
C93    C126    1.430   .     A
C93    O309    1.377   .     S
C94    O311    1.390   .     S
C94    C125    1.423   .     A
C95    C128    1.432   .     A
C95    O313    1.388   .     S
C96    C127    1.428   .     A
C96    O315    1.388   .     S
C97    C445    1.430   1_455 S
C98    C446    1.430   .     S
C99    C763    1.423   .     S
C100   C132    1.432   .     A
C101   C129    1.428   .     A
C102   C130    1.428   .     A
C103   C131    1.430   .     A
C104   C764    1.434   .     S
C105   C765    1.418   .     S
C106   C766    1.422   1_545 S
C107   C451    1.433   1_455 S
C108   C136    1.434   .     A
C109   C133    1.422   .     A
C110   C134    1.423   .     A
C111   C135    1.427   .     A
C112   C452    1.429   1_455 S
C129   C413    1.430   .     S
C129   C446    1.417   .     S
C130   C414    1.430   1_455 S
C130   C445    1.417   1_455 S
C131   C132    1.406   .     A
C131   C731    1.423   1_545 S
C132   C736    1.434   1_545 S
C133   C737    1.418   1_545 S
C133   C766    1.414   1_546 S
C134   C738    1.422   .     S
C134   C765    1.414   1_554 S
C135   C423    1.433   .     S
C135   C136    1.408   1_556 S
C136   C428    1.429   .     S
C136   C135    1.408   1_554 S
O153   Zn205   1.953   .     S
O153   Zn209   1.952   .     S
O153   Zn216   1.953   .     S
O153   Zn852   1.956   1_545 S
O154   Zn210   1.952   .     S
O154   Zn219   1.956   .     S
O154   Zn206   1.953   .     S
O154   Zn847   1.953   1_545 S
O155   Zn207   1.953   .     S
O155   Zn211   1.956   .     S
O155   Zn214   1.953   .     S
O155   Zn534   1.952   1_455 S
O156   Zn217   1.952   .     S
O156   Zn212   1.956   .     S
O156   Zn208   1.953   .     S
O156   Zn529   1.953   1_455 S
O157   Zn220   1.931   .     S
O157   C673    1.281   .     S
O158   Zn219   1.931   .     S
O158   C674    1.282   1_545 S
O159   Zn214   1.931   .     S
O160   C360    1.280   .     A
O160   Zn213   1.931   .     S
O161   Zn216   1.932   .     S
O162   Zn215   1.932   .     S
O163   Zn218   1.931   .     S
O163   C359    1.280   .     S
O164   Zn217   1.931   .     S
O165   Zn212   1.931   .     S
O165   C361    1.282   1_455 S
O166   Zn211   1.931   .     S
O167   Zn206   1.931   .     S
O168   Zn205   1.931   .     S
O169   C361    1.282   1_455 S
O169   Zn208   1.932   .     S
O170   Zn207   1.932   .     S
O171   Zn210   1.931   .     S
O172   Zn209   1.931   .     S
O173   Zn216   1.952   .     S
O174   Zn215   1.952   .     S
O175   Zn218   1.955   .     S
O176   Zn217   1.955   .     S
O177   Zn220   1.951   .     S
O178   Zn219   1.951   .     S
O179   Zn214   1.955   .     S
O180   Zn213   1.955   .     S
O181   Zn215   1.954   .     S
O182   Zn216   1.954   .     S
O183   Zn213   1.952   .     S
O184   Zn214   1.952   .     S
O185   Zn219   1.954   .     S
O186   Zn220   1.954   .     S
O187   Zn217   1.953   .     S
O188   Zn218   1.953   .     S
O189   Zn524   1.952   .     S
O190   Zn207   1.952   .     S
O191   Zn842   1.955   .     S
O192   Zn209   1.955   .     S
O193   Zn212   1.951   .     S
O194   Zn527   1.951   .     S
O195   Zn206   1.955   .     S
O196   Zn837   1.955   .     S
O197   Zn523   1.954   .     S
O198   Zn208   1.954   .     S
O199   Zn205   1.952   .     S
O200   Zn838   1.952   .     S
O201   Zn211   1.954   .     S
O202   Zn528   1.954   .     S
O203   Zn841   1.953   .     S
O204   Zn210   1.953   .     S
Zn205  O828    1.955   1_545 S
Zn206  O832    1.952   1_545 S
Zn207  O513    1.954   1_455 S
Zn208  O505    1.952   1_455 S
Zn209  O835    1.953   1_545 S
Zn210  O823    1.955   1_545 S
Zn211  O510    1.951   1_455 S
Zn212  O518    1.954   1_455 S
Zn213  O472    1.953   .     S
Zn215  O786    1.953   .     S
Zn218  O471    1.952   .     S
Zn220  O785    1.956   .     S
O221   H222    0.984   .     S
O223   H224    0.984   .     S
O225   H226    0.991   .     S
O227   H228    0.991   .     S
O229   H230    0.983   .     S
O231   H232    0.983   .     S
O233   H234    0.984   .     S
O235   H236    0.982   .     S
O237   H238    0.989   .     S
O239   H240    0.977   .     S
O241   H242    0.983   .     S
O243   H244    0.983   .     S
O245   H246    0.988   .     S
O247   H248    0.985   .     S
O249   H250    0.989   .     S
O251   H252    0.991   .     S
O253   H254    1.007   .     S
O255   H256    0.999   .     S
O257   H258    1.001   .     S
O259   H260    0.996   .     S
O261   H262    0.995   .     S
O263   H264    0.993   .     S
O265   H266    0.992   .     S
O267   H268    1.000   .     S
O269   H270    0.994   .     S
O271   H272    0.994   .     S
O273   H274    1.000   .     S
O275   H276    1.004   .     S
O277   H278    0.995   .     S
O279   H280    1.000   .     S
O281   H282    0.994   .     S
O283   H284    1.001   .     S
O285   H286    0.996   .     S
O287   H288    1.003   .     S
O289   H290    0.993   .     S
O291   H292    0.994   .     S
O293   H294    0.986   .     S
O295   H296    1.001   .     S
O297   H298    0.997   .     S
O299   H300    0.991   .     S
O301   H302    0.997   .     S
O303   H304    0.996   .     S
O305   H306    0.994   .     S
O307   H308    0.999   .     S
O309   H310    0.994   .     S
O311   H312    1.000   .     S
O313   H314    0.998   .     S
O315   H316    0.997   .     S
C317   C417    1.408   .     A
C317   H453    1.080   .     S
C317   C17     1.384   1_655 S
C318   H454    1.080   .     S
C318   C418    1.408   .     A
C319   C335    1.384   .     A
C319   C419    1.406   .     A
C319   H455    1.077   .     S
C320   C420    1.402   .     A
C320   C336    1.385   .     A
C320   H456    1.078   .     S
C321   C413    1.409   .     A
C321   C333    1.384   .     A
C321   H457    1.078   .     S
C322   H458    1.078   .     S
C322   C414    1.409   .     A
C322   C334    1.384   .     A
C323   C415    1.408   .     A
C323   H459    1.081   .     S
C323   C967    1.385   .     S
C324   C416    1.400   .     A
C324   H460    1.081   .     S
C324   C968    1.383   1_545 S
C325   C337    1.384   .     A
C325   C425    1.406   .     A
C325   H461    1.080   .     S
C326   H462    1.079   .     S
C326   C338    1.385   .     A
C326   C426    1.408   .     A
C327   C339    1.386   .     A
C327   H463    1.084   .     S
C327   C427    1.402   .     A
C328   C428    1.400   .     A
C328   H464    1.083   .     S
C329   C421    1.407   .     A
C329   H465    1.082   .     S
C329   C969    1.383   .     S
C330   C422    1.398   .     A
C330   H466    1.084   .     S
C330   C970    1.387   1_545 S
C331   H467    1.079   .     S
C331   C423    1.406   .     A
C332   C340    1.387   .     A
C332   H468    1.079   .     S
C332   C424    1.408   .     A
C333   C359    1.437   .     S
C334   C44     1.438   1_655 S
C334   C2      1.384   1_655 S
C335   C357    1.433   .     S
C335   C955    1.385   1_545 S
C336   C358    1.435   .     S
C336   C956    1.383   .     S
C337   C961    1.383   1_545 S
C337   C363    1.445   .     S
C338   C962    1.387   .     S
C338   C996    1.442   .     S
C339   C361    1.436   .     S
C339   C15     1.388   1_655 S
C340   C46     1.436   1_655 S
C340   C12     1.387   1_655 S
C341   C413    1.425   .     A
C341   C346    1.402   .     A
C341   O537    1.390   .     S
C342   O539    1.390   .     S
C342   C414    1.425   .     A
C342   C345    1.402   .     A
C343   C415    1.411   .     A
C343   O541    1.386   .     S
C343   C348    1.416   .     A
C344   O543    1.386   .     S
C344   C347    1.390   .     A
C344   C416    1.425   .     A
C345   O545    1.389   .     S
C345   C417    1.422   .     A
C346   C418    1.422   .     A
C346   O547    1.389   .     S
C347   O549    1.391   .     S
C347   C419    1.428   .     A
C348   C420    1.421   .     A
C348   O551    1.387   .     S
C349   C421    1.414   .     A
C349   O553    1.382   .     S
C349   C354    1.396   1_556 S
C350   C422    1.419   .     A
C350   O555    1.389   .     S
C350   C353    1.391   1_554 S
C351   C423    1.429   .     A
C351   O557    1.392   .     S
C351   C356    1.399   1_556 S
C352   O559    1.390   .     S
C352   C424    1.427   .     A
C352   C355    1.401   1_554 S
C353   O561    1.387   .     S
C353   C425    1.421   .     A
C353   C350    1.391   1_556 S
C354   C426    1.422   .     A
C354   O563    1.386   .     S
C354   C349    1.396   1_554 S
C355   C427    1.418   .     A
C355   O565    1.388   .     S
C355   C352    1.401   1_556 S
C356   O567    1.389   .     S
C356   C428    1.421   .     A
C356   C351    1.399   1_554 S
C357   O477    1.282   .     A
C357   O1105   1.281   1_545 S
C358   O478    1.282   .     A
C358   O1106   1.282   .     S
C359   O475    1.280   .     A
C360   O480    1.280   .     S
C361   O165    1.282   1_655 S
C361   O169    1.282   1_655 S
C362   O482    1.282   .     A
C362   O486    1.281   .     S
C363   O483    1.279   .     S
C363   O487    1.279   .     S
C364   O484    1.279   .     A
C364   O488    1.279   .     A
C364   C970    1.442   1_545 S
C365   O489    1.283   .     A
C365   C431    1.466   .     S
C365   O515    1.283   .     A
C366   O516    1.286   .     A
C366   O490    1.283   .     A
C366   C432    1.472   .     S
C367   O513    1.281   .     A
C367   C433    1.464   .     S
C367   O491    1.282   .     A
C368   O514    1.291   .     A
C368   O492    1.275   .     A
C368   C434    1.475   .     S
C369   O493    1.286   .     A
C369   O519    1.284   .     A
C369   C435    1.468   .     S
C370   O494    1.285   .     A
C370   O520    1.281   .     A
C370   C436    1.466   .     S
C371   O517    1.282   .     A
C371   O495    1.286   .     A
C371   C429    1.467   .     S
C372   O496    1.287   .     A
C372   O518    1.280   .     A
C372   C430    1.468   .     S
C373   O507    1.280   .     A
C373   O497    1.285   .     A
C373   C439    1.470   .     S
C374   O508    1.287   .     A
C374   O498    1.283   .     A
C374   C440    1.477   .     S
C375   O505    1.283   .     A
C375   O499    1.282   .     A
C375   C441    1.466   .     S
C376   O500    1.290   .     A
C376   O506    1.282   .     A
C376   C442    1.477   .     S
C377   C443    1.471   .     S
C377   O501    1.285   .     A
C377   O511    1.285   .     A
C378   O512    1.285   .     A
C378   O502    1.285   .     A
C378   C444    1.470   .     S
C379   O503    1.285   .     A
C379   O509    1.284   .     A
C379   C437    1.469   .     S
C380   O510    1.285   .     A
C380   O504    1.282   .     A
C380   C438    1.467   .     S
C381   O569    1.385   .     S
C381   C444    1.430   .     A
C381   C396    1.387   .     A
C382   C395    1.385   .     A
C382   C443    1.428   .     A
C382   O571    1.388   .     S
C383   C442    1.432   .     A
C383   O573    1.387   .     S
C383   C394    1.384   .     A
C384   C393    1.387   .     A
C384   O575    1.388   .     S
C384   C441    1.421   .     A
C385   O577    1.390   .     S
C385   C440    1.434   .     A
C385   C392    1.386   .     A
C386   C439    1.425   .     A
C386   O579    1.393   .     S
C386   C391    1.386   .     A
C387   C438    1.417   .     A
C387   C390    1.385   .     A
C387   O581    1.385   .     S
C388   C389    1.387   .     A
C388   C437    1.429   .     A
C388   O583    1.387   .     S
C389   C436    1.427   .     A
C389   O585    1.395   .     S
C390   O587    1.386   .     S
C390   C435    1.427   .     A
C391   O589    1.392   .     S
C391   C434    1.414   .     A
C392   O591    1.391   .     S
C392   C433    1.422   .     A
C393   O593    1.393   .     S
C393   C432    1.431   .     A
C394   C431    1.419   .     A
C394   O595    1.386   .     S
C395   O597    1.394   .     S
C395   C430    1.430   .     A
C396   O599    1.390   .     S
C396   C429    1.430   .     A
C397   C430    1.424   .     A
C397   O601    1.388   .     S
C397   C412    1.386   .     A
C398   O603    1.384   .     S
C398   C411    1.388   .     A
C398   C429    1.427   .     A
C399   O605    1.396   .     S
C399   C410    1.385   .     A
C399   C432    1.432   .     A
C400   C409    1.393   .     A
C400   C431    1.423   .     A
C400   O607    1.382   .     S
C401   C408    1.388   .     A
C401   O609    1.400   .     S
C401   C434    1.433   .     A
C402   O611    1.390   .     S
C402   C433    1.422   .     A
C402   C407    1.387   .     A
C403   O613    1.389   .     S
C403   C406    1.388   .     A
C403   C436    1.423   .     A
C404   O615    1.384   .     S
C404   C435    1.432   .     A
C404   C405    1.388   .     A
C405   C438    1.428   .     A
C405   O617    1.386   .     S
C406   O619    1.386   .     S
C406   C437    1.429   .     A
C407   O621    1.403   .     S
C407   C440    1.435   .     A
C408   C439    1.412   .     A
C408   O623    1.390   .     S
C409   C442    1.430   .     A
C409   O625    1.377   .     S
C410   O627    1.390   .     S
C410   C441    1.423   .     A
C411   C444    1.432   .     A
C411   O629    1.388   .     S
C412   C443    1.428   .     A
C412   O631    1.388   .     S
C414   C130    1.430   1_655 S
C415   C1079   1.423   .     S
C416   C448    1.432   .     A
C417   C445    1.428   .     A
C418   C446    1.428   .     A
C419   C447    1.430   .     A
C420   C1080   1.434   .     S
C421   C1081   1.418   .     S
C422   C1082   1.422   1_545 S
C424   C452    1.434   .     A
C425   C449    1.422   .     A
C426   C450    1.423   .     A
C427   C451    1.427   .     A
C445   C97     1.430   1_655 S
C445   C130    1.417   1_655 S
C447   C448    1.406   .     A
C447   C1047   1.423   1_545 S
C448   C1052   1.434   1_545 S
C449   C1053   1.418   1_545 S
C449   C1082   1.414   1_546 S
C450   C1054   1.422   .     S
C450   C1081   1.414   1_554 S
C451   C107    1.433   1_655 S
C451   C452    1.408   1_556 S
C452   C112    1.429   1_655 S
C452   C451    1.408   1_554 S
O469   Zn521   1.953   .     S
O469   Zn525   1.952   .     S
O469   Zn532   1.953   .     S
O469   Zn1168  1.956   1_545 S
O470   Zn526   1.952   .     S
O470   Zn535   1.956   .     S
O470   Zn522   1.953   .     S
O470   Zn1163  1.953   1_545 S
O471   Zn523   1.953   .     S
O471   Zn527   1.956   .     S
O471   Zn530   1.953   .     S
O472   Zn533   1.952   .     S
O472   Zn528   1.956   .     S
O472   Zn524   1.953   .     S
O473   Zn536   1.931   .     S
O473   C989    1.281   .     S
O474   Zn535   1.931   .     S
O474   C990    1.282   1_545 S
O475   Zn530   1.931   .     S
O476   C44     1.280   1_655 A
O476   Zn529   1.931   .     S
O477   Zn532   1.932   .     S
O478   Zn531   1.932   .     S
O479   Zn534   1.931   .     S
O479   C43     1.280   1_655 S
O480   Zn533   1.931   .     S
O481   Zn528   1.931   .     S
O482   Zn527   1.931   .     S
O483   Zn522   1.931   .     S
O484   Zn521   1.931   .     S
O485   Zn524   1.932   .     S
O486   Zn523   1.932   .     S
O487   Zn526   1.931   .     S
O488   Zn525   1.931   .     S
O489   Zn532   1.952   .     S
O490   Zn531   1.952   .     S
O491   Zn534   1.955   .     S
O492   Zn533   1.955   .     S
O493   Zn536   1.951   .     S
O494   Zn535   1.951   .     S
O495   Zn530   1.955   .     S
O496   Zn529   1.955   .     S
O497   Zn531   1.954   .     S
O498   Zn532   1.954   .     S
O499   Zn529   1.952   .     S
O500   Zn530   1.952   .     S
O501   Zn535   1.954   .     S
O502   Zn536   1.954   .     S
O503   Zn533   1.953   .     S
O504   Zn534   1.953   .     S
O505   Zn208   1.952   1_655 S
O506   Zn523   1.952   .     S
O507   Zn1158  1.955   .     S
O508   Zn525   1.955   .     S
O509   Zn528   1.951   .     S
O510   Zn211   1.951   1_655 S
O511   Zn522   1.955   .     S
O512   Zn1153  1.955   .     S
O513   Zn207   1.954   1_655 S
O514   Zn524   1.954   .     S
O515   Zn521   1.952   .     S
O516   Zn1154  1.952   .     S
O517   Zn527   1.954   .     S
O518   Zn212   1.954   1_655 S
O519   Zn1157  1.953   .     S
O520   Zn526   1.953   .     S
Zn521  O1144   1.955   1_545 S
Zn522  O1148   1.952   1_545 S
Zn525  O1151   1.953   1_545 S
Zn526  O1139   1.955   1_545 S
Zn529  O156    1.953   1_655 S
Zn531  O1102   1.953   .     S
Zn534  O155    1.952   1_655 S
Zn536  O1101   1.956   .     S
O537   H538    0.984   .     S
O539   H540    0.984   .     S
O541   H542    0.991   .     S
O543   H544    0.991   .     S
O545   H546    0.983   .     S
O547   H548    0.983   .     S
O549   H550    0.984   .     S
O551   H552    0.982   .     S
O553   H554    0.989   .     S
O555   H556    0.977   .     S
O557   H558    0.983   .     S
O559   H560    0.983   .     S
O561   H562    0.988   .     S
O563   H564    0.985   .     S
O565   H566    0.989   .     S
O567   H568    0.991   .     S
O569   H570    1.007   .     S
O571   H572    0.999   .     S
O573   H574    1.001   .     S
O575   H576    0.996   .     S
O577   H578    0.995   .     S
O579   H580    0.993   .     S
O581   H582    0.992   .     S
O583   H584    1.000   .     S
O585   H586    0.994   .     S
O587   H588    0.994   .     S
O589   H590    1.000   .     S
O591   H592    1.004   .     S
O593   H594    0.995   .     S
O595   H596    1.000   .     S
O597   H598    0.994   .     S
O599   H600    1.001   .     S
O601   H602    0.996   .     S
O603   H604    1.003   .     S
O605   H606    0.993   .     S
O607   H608    0.994   .     S
O609   H610    0.986   .     S
O611   H612    1.001   .     S
O613   H614    0.997   .     S
O615   H616    0.991   .     S
O617   H618    0.997   .     S
O619   H620    0.996   .     S
O621   H622    0.994   .     S
O623   H624    0.999   .     S
O625   H626    0.994   .     S
O627   H628    1.000   .     S
O629   H630    0.998   .     S
O631   H632    0.997   .     S
C633   C733    1.408   .     A
C633   H769    1.080   .     S
C633   C965    1.384   .     S
C634   H770    1.080   .     S
C634   C734    1.408   .     A
C634   C966    1.384   1_455 S
C635   C651    1.384   .     A
C635   C735    1.406   .     A
C635   H771    1.077   .     S
C636   C736    1.402   .     A
C636   C652    1.385   .     A
C636   H772    1.078   .     S
C637   C729    1.409   .     A
C637   C649    1.384   .     A
C637   H773    1.078   .     S
C638   H774    1.078   .     S
C638   C730    1.409   .     A
C638   C650    1.384   .     A
C639   C731    1.408   .     A
C639   H775    1.081   .     S
C639   C19     1.385   1_565 S
C640   C732    1.400   .     A
C640   H776    1.081   .     S
C641   C653    1.384   .     A
C641   C741    1.406   .     A
C641   H777    1.080   .     S
C642   H778    1.079   .     S
C642   C654    1.385   .     A
C642   C742    1.408   .     A
C643   C655    1.386   .     A
C643   H779    1.084   .     S
C643   C743    1.402   .     A
C644   C744    1.400   .     A
C644   H780    1.083   .     S
C644   C972    1.387   1_455 S
C645   C737    1.407   .     A
C645   H781    1.082   .     S
C645   C21     1.383   1_565 S
C646   C738    1.398   .     A
C646   H782    1.084   .     S
C647   H783    1.079   .     S
C647   C739    1.406   .     A
C647   C971    1.388   1_455 S
C648   C656    1.387   .     A
C648   H784    1.079   .     S
C648   C740    1.408   .     A
C649   C675    1.437   .     S
C649   C949    1.384   1_455 S
C650   C992    1.438   .     S
C650   C950    1.384   .     S
C651   C673    1.433   .     S
C652   C674    1.435   .     S
C652   C8      1.383   1_565 S
C653   C679    1.445   .     S
C654   C14     1.387   1_565 S
C654   C48     1.442   1_565 S
C655   C677    1.436   .     S
C655   C963    1.388   .     S
C656   C994    1.436   .     S
C656   C960    1.387   .     S
C657   C729    1.425   .     A
C657   C662    1.402   .     A
C657   O853    1.390   .     S
C658   O855    1.390   .     S
C658   C730    1.425   .     A
C658   C661    1.402   .     A
C659   C731    1.411   .     A
C659   O857    1.386   .     S
C659   C664    1.416   .     A
C660   O859    1.386   .     S
C660   C663    1.390   .     A
C660   C732    1.425   .     A
C661   O861    1.389   .     S
C661   C733    1.422   .     A
C662   C734    1.422   .     A
C662   O863    1.389   .     S
C663   O865    1.391   .     S
C663   C735    1.428   .     A
C664   C736    1.421   .     A
C664   O867    1.387   .     S
C665   C737    1.414   .     A
C665   O869    1.382   .     S
C665   C670    1.396   1_556 S
C666   C738    1.419   .     A
C666   O871    1.389   .     S
C666   C669    1.391   1_554 S
C667   C739    1.429   .     A
C667   O873    1.392   .     S
C667   C672    1.399   1_556 S
C668   O875    1.390   .     S
C668   C740    1.427   .     A
C668   C671    1.401   1_554 S
C669   O877    1.387   .     S
C669   C741    1.421   .     A
C669   C666    1.391   1_556 S
C670   C742    1.422   .     A
C670   O879    1.386   .     S
C670   C665    1.396   1_554 S
C671   C743    1.418   .     A
C671   O881    1.388   .     S
C671   C668    1.401   1_556 S
C672   O883    1.389   .     S
C672   C744    1.421   .     A
C672   C667    1.399   1_554 S
C673   O793    1.282   .     A
C674   O794    1.282   .     A
C674   O158    1.282   1_565 S
C675   O791    1.280   .     A
C675   O1111   1.280   1_455 S
C676   C966    1.438   1_455 S
C676   O1108   1.280   1_455 A
C676   O796    1.280   .     S
C677   O1113   1.282   .     S
C677   O1117   1.282   .     S
C678   C972    1.436   1_455 S
C678   O798    1.282   .     A
C678   O802    1.281   .     S
C679   O799    1.279   .     S
C679   O803    1.279   .     S
C680   O800    1.279   .     A
C680   O804    1.279   .     A
C681   O805    1.283   .     A
C681   C747    1.466   .     S
C681   O831    1.283   .     A
C682   O832    1.286   .     A
C682   O806    1.283   .     A
C682   C748    1.472   .     S
C683   O829    1.281   .     A
C683   C749    1.464   .     S
C683   O807    1.282   .     A
C684   O830    1.291   .     A
C684   O808    1.275   .     A
C684   C750    1.475   .     S
C685   O809    1.286   .     A
C685   O835    1.284   .     A
C685   C751    1.468   .     S
C686   O810    1.285   .     A
C686   O836    1.281   .     A
C686   C752    1.466   .     S
C687   O833    1.282   .     A
C687   O811    1.286   .     A
C687   C745    1.467   .     S
C688   O812    1.287   .     A
C688   O834    1.280   .     A
C688   C746    1.468   .     S
C689   O823    1.280   .     A
C689   O813    1.285   .     A
C689   C755    1.470   .     S
C690   O824    1.287   .     A
C690   O814    1.283   .     A
C690   C756    1.477   .     S
C691   O821    1.283   .     A
C691   O815    1.282   .     A
C691   C757    1.466   .     S
C692   O816    1.290   .     A
C692   O822    1.282   .     A
C692   C758    1.477   .     S
C693   C759    1.471   .     S
C693   O817    1.285   .     A
C693   O827    1.285   .     A
C694   O828    1.285   .     A
C694   O818    1.285   .     A
C694   C760    1.470   .     S
C695   O819    1.285   .     A
C695   O825    1.284   .     A
C695   C753    1.469   .     S
C696   O826    1.285   .     A
C696   O820    1.282   .     A
C696   C754    1.467   .     S
C697   O885    1.385   .     S
C697   C760    1.430   .     A
C697   C712    1.387   .     A
C698   C711    1.385   .     A
C698   C759    1.428   .     A
C698   O887    1.388   .     S
C699   C758    1.432   .     A
C699   O889    1.387   .     S
C699   C710    1.384   .     A
C700   C709    1.387   .     A
C700   O891    1.388   .     S
C700   C757    1.421   .     A
C701   O893    1.390   .     S
C701   C756    1.434   .     A
C701   C708    1.386   .     A
C702   C755    1.425   .     A
C702   O895    1.393   .     S
C702   C707    1.386   .     A
C703   C754    1.417   .     A
C703   C706    1.385   .     A
C703   O897    1.385   .     S
C704   C705    1.387   .     A
C704   C753    1.429   .     A
C704   O899    1.387   .     S
C705   C752    1.427   .     A
C705   O901    1.395   .     S
C706   O903    1.386   .     S
C706   C751    1.427   .     A
C707   O905    1.392   .     S
C707   C750    1.414   .     A
C708   O907    1.391   .     S
C708   C749    1.422   .     A
C709   O909    1.393   .     S
C709   C748    1.431   .     A
C710   C747    1.419   .     A
C710   O911    1.386   .     S
C711   O913    1.394   .     S
C711   C746    1.430   .     A
C712   O915    1.390   .     S
C712   C745    1.430   .     A
C713   C746    1.424   .     A
C713   O917    1.388   .     S
C713   C728    1.386   .     A
C714   O919    1.384   .     S
C714   C727    1.388   .     A
C714   C745    1.427   .     A
C715   O921    1.396   .     S
C715   C726    1.385   .     A
C715   C748    1.432   .     A
C716   C725    1.393   .     A
C716   C747    1.423   .     A
C716   O923    1.382   .     S
C717   C724    1.388   .     A
C717   O925    1.400   .     S
C717   C750    1.433   .     A
C718   O927    1.390   .     S
C718   C749    1.422   .     A
C718   C723    1.387   .     A
C719   O929    1.389   .     S
C719   C722    1.388   .     A
C719   C752    1.423   .     A
C720   O931    1.384   .     S
C720   C751    1.432   .     A
C720   C721    1.388   .     A
C721   C754    1.428   .     A
C721   O933    1.386   .     S
C722   O935    1.386   .     S
C722   C753    1.429   .     A
C723   O937    1.403   .     S
C723   C756    1.435   .     A
C724   C755    1.412   .     A
C724   O939    1.390   .     S
C725   C758    1.430   .     A
C725   O941    1.377   .     S
C726   O943    1.390   .     S
C726   C757    1.423   .     A
C727   C760    1.432   .     A
C727   O945    1.388   .     S
C728   C759    1.428   .     A
C728   O947    1.388   .     S
C729   C1077   1.430   1_455 S
C730   C1078   1.430   .     S
C731   C131    1.423   1_565 S
C732   C764    1.432   .     A
C733   C761    1.428   .     A
C734   C762    1.428   .     A
C735   C763    1.430   .     A
C736   C132    1.434   1_565 S
C737   C133    1.418   1_565 S
C739   C1083   1.433   1_455 S
C740   C768    1.434   .     A
C741   C765    1.422   .     A
C742   C766    1.423   .     A
C743   C767    1.427   .     A
C744   C1084   1.429   1_455 S
C761   C1045   1.430   .     S
C761   C1078   1.417   .     S
C762   C1046   1.430   1_455 S
C762   C1077   1.417   1_455 S
C763   C764    1.406   .     A
C765   C134    1.414   1_556 S
C766   C106    1.422   1_565 S
C766   C133    1.414   1_564 S
C767   C1055   1.433   .     S
C767   C768    1.408   1_556 S
C768   C1060   1.429   .     S
C768   C767    1.408   1_554 S
O785   Zn837   1.953   .     S
O785   Zn841   1.952   .     S
O785   Zn848   1.953   .     S
O786   Zn842   1.952   .     S
O786   Zn851   1.956   .     S
O786   Zn838   1.953   .     S
O787   Zn839   1.953   .     S
O787   Zn843   1.956   .     S
O787   Zn846   1.953   .     S
O787   Zn1166  1.952   1_455 S
O788   Zn849   1.952   .     S
O788   Zn844   1.956   .     S
O788   Zn840   1.953   .     S
O788   Zn1161  1.953   1_455 S
O789   Zn852   1.931   .     S
O789   C41     1.281   1_565 S
O790   Zn851   1.931   .     S
O791   Zn846   1.931   .     S
O792   C992    1.280   .     A
O792   Zn845   1.931   .     S
O793   Zn848   1.932   .     S
O794   Zn847   1.932   .     S
O795   Zn850   1.931   .     S
O795   C991    1.280   .     S
O796   Zn849   1.931   .     S
O797   Zn844   1.931   .     S
O797   C993    1.282   1_455 S
O798   Zn843   1.931   .     S
O799   Zn838   1.931   .     S
O800   Zn837   1.931   .     S
O801   C993    1.282   1_455 S
O801   Zn840   1.932   .     S
O802   Zn839   1.932   .     S
O803   Zn842   1.931   .     S
O804   Zn841   1.931   .     S
O805   Zn848   1.952   .     S
O806   Zn847   1.952   .     S
O807   Zn850   1.955   .     S
O808   Zn849   1.955   .     S
O809   Zn852   1.951   .     S
O810   Zn851   1.951   .     S
O811   Zn846   1.955   .     S
O812   Zn845   1.955   .     S
O813   Zn847   1.954   .     S
O814   Zn848   1.954   .     S
O815   Zn845   1.952   .     S
O816   Zn846   1.952   .     S
O817   Zn851   1.954   .     S
O818   Zn852   1.954   .     S
O819   Zn849   1.953   .     S
O820   Zn850   1.953   .     S
O821   Zn1156  1.952   .     S
O822   Zn839   1.952   .     S
O823   Zn210   1.955   1_565 S
O824   Zn841   1.955   .     S
O825   Zn844   1.951   .     S
O826   Zn1159  1.951   .     S
O827   Zn838   1.955   .     S
O828   Zn205   1.955   1_565 S
O829   Zn1155  1.954   .     S
O830   Zn840   1.954   .     S
O831   Zn837   1.952   .     S
O832   Zn206   1.952   1_565 S
O833   Zn843   1.954   .     S
O834   Zn1160  1.954   .     S
O835   Zn209   1.953   1_565 S
O836   Zn842   1.953   .     S
Zn839  O1145   1.954   1_455 S
Zn840  O1137   1.952   1_455 S
Zn843  O1142   1.951   1_455 S
Zn844  O1150   1.954   1_455 S
Zn845  O1104   1.953   .     S
Zn847  O154    1.953   1_565 S
Zn850  O1103   1.952   .     S
Zn852  O153    1.956   1_565 S
O853   H854    0.984   .     S
O855   H856    0.984   .     S
O857   H858    0.991   .     S
O859   H860    0.991   .     S
O861   H862    0.983   .     S
O863   H864    0.983   .     S
O865   H866    0.984   .     S
O867   H868    0.982   .     S
O869   H870    0.989   .     S
O871   H872    0.977   .     S
O873   H874    0.983   .     S
O875   H876    0.983   .     S
O877   H878    0.988   .     S
O879   H880    0.985   .     S
O881   H882    0.989   .     S
O883   H884    0.991   .     S
O885   H886    1.007   .     S
O887   H888    0.999   .     S
O889   H890    1.001   .     S
O891   H892    0.996   .     S
O893   H894    0.995   .     S
O895   H896    0.993   .     S
O897   H898    0.992   .     S
O899   H900    1.000   .     S
O901   H902    0.994   .     S
O903   H904    0.994   .     S
O905   H906    1.000   .     S
O907   H908    1.004   .     S
O909   H910    0.995   .     S
O911   H912    1.000   .     S
O913   H914    0.994   .     S
O915   H916    1.001   .     S
O917   H918    0.996   .     S
O919   H920    1.003   .     S
O921   H922    0.993   .     S
O923   H924    0.994   .     S
O925   H926    0.986   .     S
O927   H928    1.001   .     S
O929   H930    0.997   .     S
O931   H932    0.991   .     S
O933   H934    0.997   .     S
O935   H936    0.996   .     S
O937   H938    0.994   .     S
O939   H940    0.999   .     S
O941   H942    0.994   .     S
O943   H944    1.000   .     S
O945   H946    0.998   .     S
O947   H948    0.997   .     S
C949   C1049   1.408   .     A
C949   H1085   1.080   .     S
C949   C649    1.384   1_655 S
C950   H1086   1.080   .     S
C950   C1050   1.408   .     A
C951   C967    1.384   .     A
C951   C1051   1.406   .     A
C951   H1087   1.077   .     S
C952   C1052   1.402   .     A
C952   C968    1.385   .     A
C952   H1088   1.078   .     S
C953   C1045   1.409   .     A
C953   C965    1.384   .     A
C953   H1089   1.078   .     S
C954   H1090   1.078   .     S
C954   C1046   1.409   .     A
C954   C966    1.384   .     A
C955   C1047   1.408   .     A
C955   H1091   1.081   .     S
C955   C335    1.385   1_565 S
C956   C1048   1.400   .     A
C956   H1092   1.081   .     S
C957   C969    1.384   .     A
C957   C1057   1.406   .     A
C957   H1093   1.080   .     S
C958   H1094   1.079   .     S
C958   C970    1.385   .     A
C958   C1058   1.408   .     A
C959   C971    1.386   .     A
C959   H1095   1.084   .     S
C959   C1059   1.402   .     A
C960   C1060   1.400   .     A
C960   H1096   1.083   .     S
C961   C1053   1.407   .     A
C961   H1097   1.082   .     S
C961   C337    1.383   1_565 S
C962   C1054   1.398   .     A
C962   H1098   1.084   .     S
C963   H1099   1.079   .     S
C963   C1055   1.406   .     A
C964   C972    1.387   .     A
C964   H1100   1.079   .     S
C964   C1056   1.408   .     A
C965   C991    1.437   .     S
C966   C676    1.438   1_655 S
C966   C634    1.384   1_655 S
C967   C989    1.433   .     S
C968   C990    1.435   .     S
C968   C324    1.383   1_565 S
C969   C995    1.445   .     S
C970   C330    1.387   1_565 S
C970   C364    1.442   1_565 S
C971   C993    1.436   .     S
C971   C647    1.388   1_655 S
C972   C678    1.436   1_655 S
C972   C644    1.387   1_655 S
C973   C1045   1.425   .     A
C973   C978    1.402   .     A
C973   O1169   1.390   .     S
C974   O1171   1.390   .     S
C974   C1046   1.425   .     A
C974   C977    1.402   .     A
C975   C1047   1.411   .     A
C975   O1173   1.386   .     S
C975   C980    1.416   .     A
C976   O1175   1.386   .     S
C976   C979    1.390   .     A
C976   C1048   1.425   .     A
C977   O1177   1.389   .     S
C977   C1049   1.422   .     A
C978   C1050   1.422   .     A
C978   O1179   1.389   .     S
C979   O1181   1.391   .     S
C979   C1051   1.428   .     A
C980   C1052   1.421   .     A
C980   O1183   1.387   .     S
C981   C1053   1.414   .     A
C981   O1185   1.382   .     S
C981   C986    1.396   1_556 S
C982   C1054   1.419   .     A
C982   O1187   1.389   .     S
C982   C985    1.391   1_554 S
C983   C1055   1.429   .     A
C983   O1189   1.392   .     S
C983   C988    1.399   1_556 S
C984   O1191   1.390   .     S
C984   C1056   1.427   .     A
C984   C987    1.401   1_554 S
C985   O1193   1.387   .     S
C985   C1057   1.421   .     A
C985   C982    1.391   1_556 S
C986   C1058   1.422   .     A
C986   O1195   1.386   .     S
C986   C981    1.396   1_554 S
C987   C1059   1.418   .     A
C987   O1197   1.388   .     S
C987   C984    1.401   1_556 S
C988   O1199   1.389   .     S
C988   C1060   1.421   .     A
C988   C983    1.399   1_554 S
C989   O1109   1.282   .     A
C990   O1110   1.282   .     A
C990   O474    1.282   1_565 S
C991   O1107   1.280   .     A
C992   O1112   1.280   .     S
C993   O797    1.282   1_655 S
C993   O801    1.282   1_655 S
C994   O1114   1.282   .     A
C994   O1118   1.281   .     S
C995   O1115   1.279   .     S
C995   O1119   1.279   .     S
C996   O1116   1.279   .     A
C996   O1120   1.279   .     A
C997   O1121   1.283   .     A
C997   C1063   1.466   .     S
C997   O1147   1.283   .     A
C998   O1148   1.286   .     A
C998   O1122   1.283   .     A
C998   C1064   1.472   .     S
C999   O1145   1.281   .     A
C999   C1065   1.464   .     S
C999   O1123   1.282   .     A
C1000  O1146   1.291   .     A
C1000  O1124   1.275   .     A
C1000  C1066   1.475   .     S
C1001  O1125   1.286   .     A
C1001  O1151   1.284   .     A
C1001  C1067   1.468   .     S
C1002  O1126   1.285   .     A
C1002  O1152   1.281   .     A
C1002  C1068   1.466   .     S
C1003  O1149   1.282   .     A
C1003  O1127   1.286   .     A
C1003  C1061   1.467   .     S
C1004  O1128   1.287   .     A
C1004  O1150   1.280   .     A
C1004  C1062   1.468   .     S
C1005  O1139   1.280   .     A
C1005  O1129   1.285   .     A
C1005  C1071   1.470   .     S
C1006  O1140   1.287   .     A
C1006  O1130   1.283   .     A
C1006  C1072   1.477   .     S
C1007  O1137   1.283   .     A
C1007  O1131   1.282   .     A
C1007  C1073   1.466   .     S
C1008  O1132   1.290   .     A
C1008  O1138   1.282   .     A
C1008  C1074   1.477   .     S
C1009  C1075   1.471   .     S
C1009  O1133   1.285   .     A
C1009  O1143   1.285   .     A
C1010  O1144   1.285   .     A
C1010  O1134   1.285   .     A
C1010  C1076   1.470   .     S
C1011  O1135   1.285   .     A
C1011  O1141   1.284   .     A
C1011  C1069   1.469   .     S
C1012  O1142   1.285   .     A
C1012  O1136   1.282   .     A
C1012  C1070   1.467   .     S
C1013  O1201   1.385   .     S
C1013  C1076   1.430   .     A
C1013  C1028   1.387   .     A
C1014  C1027   1.385   .     A
C1014  C1075   1.428   .     A
C1014  O1203   1.388   .     S
C1015  C1074   1.432   .     A
C1015  O1205   1.387   .     S
C1015  C1026   1.384   .     A
C1016  C1025   1.387   .     A
C1016  O1207   1.388   .     S
C1016  C1073   1.421   .     A
C1017  O1209   1.390   .     S
C1017  C1072   1.434   .     A
C1017  C1024   1.386   .     A
C1018  C1071   1.425   .     A
C1018  O1211   1.393   .     S
C1018  C1023   1.386   .     A
C1019  C1070   1.417   .     A
C1019  C1022   1.385   .     A
C1019  O1213   1.385   .     S
C1020  C1021   1.387   .     A
C1020  C1069   1.429   .     A
C1020  O1215   1.387   .     S
C1021  C1068   1.427   .     A
C1021  O1217   1.395   .     S
C1022  O1219   1.386   .     S
C1022  C1067   1.427   .     A
C1023  O1221   1.392   .     S
C1023  C1066   1.414   .     A
C1024  O1223   1.391   .     S
C1024  C1065   1.422   .     A
C1025  O1225   1.393   .     S
C1025  C1064   1.431   .     A
C1026  C1063   1.419   .     A
C1026  O1227   1.386   .     S
C1027  O1229   1.394   .     S
C1027  C1062   1.430   .     A
C1028  O1231   1.390   .     S
C1028  C1061   1.430   .     A
C1029  C1062   1.424   .     A
C1029  O1233   1.388   .     S
C1029  C1044   1.386   .     A
C1030  O1235   1.384   .     S
C1030  C1043   1.388   .     A
C1030  C1061   1.427   .     A
C1031  O1237   1.396   .     S
C1031  C1042   1.385   .     A
C1031  C1064   1.432   .     A
C1032  C1041   1.393   .     A
C1032  C1063   1.423   .     A
C1032  O1239   1.382   .     S
C1033  C1040   1.388   .     A
C1033  O1241   1.400   .     S
C1033  C1066   1.433   .     A
C1034  O1243   1.390   .     S
C1034  C1065   1.422   .     A
C1034  C1039   1.387   .     A
C1035  O1245   1.389   .     S
C1035  C1038   1.388   .     A
C1035  C1068   1.423   .     A
C1036  O1247   1.384   .     S
C1036  C1067   1.432   .     A
C1036  C1037   1.388   .     A
C1037  C1070   1.428   .     A
C1037  O1249   1.386   .     S
C1038  O1251   1.386   .     S
C1038  C1069   1.429   .     A
C1039  O1253   1.403   .     S
C1039  C1072   1.435   .     A
C1040  C1071   1.412   .     A
C1040  O1255   1.390   .     S
C1041  C1074   1.430   .     A
C1041  O1257   1.377   .     S
C1042  O1259   1.390   .     S
C1042  C1073   1.423   .     A
C1043  C1076   1.432   .     A
C1043  O1261   1.388   .     S
C1044  C1075   1.428   .     A
C1044  O1263   1.388   .     S
C1046  C762    1.430   1_655 S
C1047  C447    1.423   1_565 S
C1048  C1080   1.432   .     A
C1049  C1077   1.428   .     A
C1050  C1078   1.428   .     A
C1051  C1079   1.430   .     A
C1052  C448    1.434   1_565 S
C1053  C449    1.418   1_565 S
C1056  C1084   1.434   .     A
C1057  C1081   1.422   .     A
C1058  C1082   1.423   .     A
C1059  C1083   1.427   .     A
C1077  C729    1.430   1_655 S
C1077  C762    1.417   1_655 S
C1079  C1080   1.406   .     A
C1081  C450    1.414   1_556 S
C1082  C422    1.422   1_565 S
C1082  C449    1.414   1_564 S
C1083  C739    1.433   1_655 S
C1083  C1084   1.408   1_556 S
C1084  C744    1.429   1_655 S
C1084  C1083   1.408   1_554 S
O1101  Zn1153  1.953   .     S
O1101  Zn1157  1.952   .     S
O1101  Zn1164  1.953   .     S
O1102  Zn1158  1.952   .     S
O1102  Zn1167  1.956   .     S
O1102  Zn1154  1.953   .     S
O1103  Zn1155  1.953   .     S
O1103  Zn1159  1.956   .     S
O1103  Zn1162  1.953   .     S
O1104  Zn1165  1.952   .     S
O1104  Zn1160  1.956   .     S
O1104  Zn1156  1.953   .     S
O1105  Zn1168  1.931   .     S
O1105  C357    1.281   1_565 S
O1106  Zn1167  1.931   .     S
O1107  Zn1162  1.931   .     S
O1108  C676    1.280   1_655 A
O1108  Zn1161  1.931   .     S
O1109  Zn1164  1.932   .     S
O1110  Zn1163  1.932   .     S
O1111  Zn1166  1.931   .     S
O1111  C675    1.280   1_655 S
O1112  Zn1165  1.931   .     S
O1113  Zn1160  1.931   .     S
O1114  Zn1159  1.931   .     S
O1115  Zn1154  1.931   .     S
O1116  Zn1153  1.931   .     S
O1117  Zn1156  1.932   .     S
O1118  Zn1155  1.932   .     S
O1119  Zn1158  1.931   .     S
O1120  Zn1157  1.931   .     S
O1121  Zn1164  1.952   .     S
O1122  Zn1163  1.952   .     S
O1123  Zn1166  1.955   .     S
O1124  Zn1165  1.955   .     S
O1125  Zn1168  1.951   .     S
O1126  Zn1167  1.951   .     S
O1127  Zn1162  1.955   .     S
O1128  Zn1161  1.955   .     S
O1129  Zn1163  1.954   .     S
O1130  Zn1164  1.954   .     S
O1131  Zn1161  1.952   .     S
O1132  Zn1162  1.952   .     S
O1133  Zn1167  1.954   .     S
O1134  Zn1168  1.954   .     S
O1135  Zn1165  1.953   .     S
O1136  Zn1166  1.953   .     S
O1137  Zn840   1.952   1_655 S
O1138  Zn1155  1.952   .     S
O1139  Zn526   1.955   1_565 S
O1140  Zn1157  1.955   .     S
O1141  Zn1160  1.951   .     S
O1142  Zn843   1.951   1_655 S
O1143  Zn1154  1.955   .     S
O1144  Zn521   1.955   1_565 S
O1145  Zn839   1.954   1_655 S
O1146  Zn1156  1.954   .     S
O1147  Zn1153  1.952   .     S
O1148  Zn522   1.952   1_565 S
O1149  Zn1159  1.954   .     S
O1150  Zn844   1.954   1_655 S
O1151  Zn525   1.953   1_565 S
O1152  Zn1158  1.953   .     S
Zn1161 O788    1.953   1_655 S
Zn1163 O470    1.953   1_565 S
Zn1166 O787    1.952   1_655 S
Zn1168 O469    1.956   1_565 S
O1169  H1170   0.984   .     S
O1171  H1172   0.984   .     S
O1173  H1174   0.991   .     S
O1175  H1176   0.991   .     S
O1177  H1178   0.983   .     S
O1179  H1180   0.983   .     S
O1181  H1182   0.984   .     S
O1183  H1184   0.982   .     S
O1185  H1186   0.989   .     S
O1187  H1188   0.977   .     S
O1189  H1190   0.983   .     S
O1191  H1192   0.983   .     S
O1193  H1194   0.988   .     S
O1195  H1196   0.985   .     S
O1197  H1198   0.989   .     S
O1199  H1200   0.991   .     S
O1201  H1202   1.007   .     S
O1203  H1204   0.999   .     S
O1205  H1206   1.001   .     S
O1207  H1208   0.996   .     S
O1209  H1210   0.995   .     S
O1211  H1212   0.993   .     S
O1213  H1214   0.992   .     S
O1215  H1216   1.000   .     S
O1217  H1218   0.994   .     S
O1219  H1220   0.994   .     S
O1221  H1222   1.000   .     S
O1223  H1224   1.004   .     S
O1225  H1226   0.995   .     S
O1227  H1228   1.000   .     S
O1229  H1230   0.994   .     S
O1231  H1232   1.001   .     S
O1233  H1234   0.996   .     S
O1235  H1236   1.003   .     S
O1237  H1238   0.993   .     S
O1239  H1240   0.994   .     S
O1241  H1242   0.986   .     S
O1243  H1244   1.001   .     S
O1245  H1246   0.997   .     S
O1247  H1248   0.991   .     S
O1249  H1250   0.997   .     S
O1251  H1252   0.996   .     S
O1253  H1254   0.994   .     S
O1255  H1256   0.999   .     S
O1257  H1258   0.994   .     S
O1259  H1260   1.000   .     S
O1261  H1262   0.998   .     S
O1263  H1264   0.997   .     S
