data_str_m1_o1_o2_pcu_sym.56
_audit_creation_date              2020-01-03
_audit_creation_method            'Materials Studio'
_symmetry_space_group_name_H-M    'P1'
_symmetry_Int_Tables_number       1
_symmetry_cell_setting            triclinic
loop_
_symmetry_equiv_pos_as_xyz
  x,y,z
_cell_length_a                    36.6876
_cell_length_b                    36.6876
_cell_length_c                    34.5386
_cell_angle_alpha                 90.0000
_cell_angle_beta                  90.0000
_cell_angle_gamma                 90.0000
loop_
_atom_site_label
_atom_site_type_symbol
_atom_site_fract_x
_atom_site_fract_y
_atom_site_fract_z
_atom_site_U_iso_or_equiv
_atom_site_adp_type
_atom_site_occupancy
C1     C     0.21880   0.48907   0.04181   0.00000  Uiso   1.00
C2     C     0.03119   0.23906   0.45819   0.00000  Uiso   1.00
C3     C     0.34814   0.40186   0.75000   0.00000  Uiso   1.00
C4     C     0.40186   0.15186   0.25000   0.00000  Uiso   1.00
C5     C     0.09814   0.34814   0.75000   0.00000  Uiso   1.00
C6     C     0.34814   0.40186   0.25000   0.00000  Uiso   1.00
C7     C     0.15186   0.09814   0.75000   0.00000  Uiso   1.00
C8     C     0.09814   0.15186   0.75000   0.00000  Uiso   1.00
C9     C     0.40186   0.34814   0.25000   0.00000  Uiso   1.00
C10    C     0.15186   0.40186   0.75000   0.00000  Uiso   1.00
C11    C     0.34814   0.09814   0.25000   0.00000  Uiso   1.00
C12    C     0.40186   0.34814   0.75000   0.00000  Uiso   1.00
C13    C     0.23906   0.46880   0.54181   0.00000  Uiso   1.00
C14    C     0.09814   0.15186   0.25000   0.00000  Uiso   1.00
C15    C     0.34814   0.09814   0.75000   0.00000  Uiso   1.00
C16    C     0.15186   0.40186   0.25000   0.00000  Uiso   1.00
C17    C     0.25000   0.00000   0.10245   0.00000  Uiso   1.00
C18    C     0.25000   0.00000   0.89755   0.00000  Uiso   1.00
C19    C     0.00000   0.25000   0.10245   0.00000  Uiso   1.00
C20    C     0.00000   0.25000   0.89755   0.00000  Uiso   1.00
C21    C     0.00000   0.25000   0.60245   0.00000  Uiso   1.00
C22    C     0.00000   0.25000   0.39755   0.00000  Uiso   1.00
C23    C     0.25000  -0.00000   0.60245   0.00000  Uiso   1.00
C24    C     0.23907   0.03120   0.45819   0.00000  Uiso   1.00
C25    C     0.25000   0.00000   0.39755   0.00000  Uiso   1.00
C26    C     0.03120   0.26093   0.54181   0.00000  Uiso   1.00
C27    C     0.46881   0.26094   0.45819   0.00000  Uiso   1.00
C28    C     0.26094   0.03120   0.54181   0.00000  Uiso   1.00
C29    C     0.26093   0.46880   0.45819   0.00000  Uiso   1.00
C30    C     0.21872   0.48932   0.08208   0.00000  Uiso   1.00
C31    C     0.28128   0.48932   0.91792   0.00000  Uiso   1.00
C32    C     0.01067   0.21872   0.08208   0.00000  Uiso   1.00
C33    C     0.28120   0.48906   0.95819   0.00000  Uiso   1.00
C34    C     0.01068   0.28128   0.91792   0.00000  Uiso   1.00
C35    C     0.28128   0.01068   0.08208   0.00000  Uiso   1.00
C36    C     0.21872   0.01068   0.91792   0.00000  Uiso   1.00
C37    C     0.48933   0.28128   0.08208   0.00000  Uiso   1.00
C38    C     0.48932   0.21872   0.91792   0.00000  Uiso   1.00
C39    C     0.46872   0.23933   0.58208   0.00000  Uiso   1.00
C40    C     0.03128   0.23932   0.41792   0.00000  Uiso   1.00
C41    C     0.23932   0.46872   0.58208   0.00000  Uiso   1.00
C42    C     0.23933   0.03128   0.41792   0.00000  Uiso   1.00
C43    C     0.03128   0.26067   0.58208   0.00000  Uiso   1.00
C44    C     0.01093   0.21880   0.04181   0.00000  Uiso   1.00
C45    C     0.46872   0.26068   0.41792   0.00000  Uiso   1.00
C46    C     0.26068   0.03128   0.58208   0.00000  Uiso   1.00
C47    C     0.26068   0.46872   0.41792   0.00000  Uiso   1.00
C48    C     0.25000  -0.00000   0.02132   0.00000  Uiso   1.00
C49    C     0.25000   0.00000   0.97868   0.00000  Uiso   1.00
C50    C     0.00000   0.25000   0.02132   0.00000  Uiso   1.00
C51    C     0.00000   0.25000   0.97868   0.00000  Uiso   1.00
C52    C     0.00000   0.25000   0.52132   0.00000  Uiso   1.00
C53    C     0.00000   0.25000   0.47868   0.00000  Uiso   1.00
C54    C     0.25000   0.00000   0.52132   0.00000  Uiso   1.00
C55    C     0.01094   0.28119   0.95819   0.00000  Uiso   1.00
C56    C     0.25000   0.00000   0.47868   0.00000  Uiso   1.00
C57    C     0.25000   0.00000   0.35520   0.00000  Uiso   1.00
C58    C     0.25000   0.00000   0.64480   0.00000  Uiso   1.00
C59    C     0.00000   0.25000   0.35520   0.00000  Uiso   1.00
C60    C     0.00000   0.25000   0.64480   0.00000  Uiso   1.00
C61    C     0.00000   0.25000   0.85520   0.00000  Uiso   1.00
C62    C     0.00000   0.25000   0.14480   0.00000  Uiso   1.00
C63    C     0.25000   0.00000   0.85520   0.00000  Uiso   1.00
C64    C     0.25000   0.00000   0.14480   0.00000  Uiso   1.00
C65    C     0.17992   0.07007   0.25000   0.00000  Uiso   1.00
C66    C     0.28120   0.01093   0.04181   0.00000  Uiso   1.00
C67    C     0.32007   0.42992   0.75000   0.00000  Uiso   1.00
C68    C     0.42992   0.17993   0.25000   0.00000  Uiso   1.00
C69    C     0.07007   0.32007   0.75000   0.00000  Uiso   1.00
C70    C     0.32008   0.42993   0.25000   0.00000  Uiso   1.00
C71    C     0.17993   0.07008   0.75000   0.00000  Uiso   1.00
C72    C     0.07008   0.32007   0.25000   0.00000  Uiso   1.00
C73    C     0.42993   0.17992   0.75000   0.00000  Uiso   1.00
C74    C     0.17992   0.42993   0.75000   0.00000  Uiso   1.00
C75    C     0.32007   0.07008   0.25000   0.00000  Uiso   1.00
C76    C     0.42992   0.32007   0.75000   0.00000  Uiso   1.00
C77    C     0.21880   0.01094   0.95819   0.00000  Uiso   1.00
C78    C     0.07007   0.17992   0.25000   0.00000  Uiso   1.00
C79    C     0.32008   0.07007   0.75000   0.00000  Uiso   1.00
C80    C     0.17993   0.42992   0.25000   0.00000  Uiso   1.00
C81    C     0.07008   0.17993   0.75000   0.00000  Uiso   1.00
C82    C     0.42993   0.32008   0.25000   0.00000  Uiso   1.00
C83    C     0.12182   0.40490   0.22513   0.00000  Uiso   1.00
C84    C     0.37816   0.09512   0.77490   0.00000  Uiso   1.00
C85    C     0.09512   0.12184   0.22510   0.00000  Uiso   1.00
C86    C     0.40490   0.37818   0.77487   0.00000  Uiso   1.00
C87    C     0.37818   0.09510   0.22513   0.00000  Uiso   1.00
C88    C     0.48907   0.28120   0.04181   0.00000  Uiso   1.00
C89    C     0.12184   0.40488   0.77490   0.00000  Uiso   1.00
C90    C     0.40488   0.37816   0.22510   0.00000  Uiso   1.00
C91    C     0.09510   0.12182   0.77487   0.00000  Uiso   1.00
C92    C     0.12182   0.09510   0.77487   0.00000  Uiso   1.00
C93    C     0.37816   0.40488   0.22510   0.00000  Uiso   1.00
C94    C     0.09512   0.37816   0.77490   0.00000  Uiso   1.00
C95    C     0.40490   0.12182   0.22513   0.00000  Uiso   1.00
C96    C     0.37818   0.40490   0.77487   0.00000  Uiso   1.00
C97    C     0.12184   0.09512   0.22510   0.00000  Uiso   1.00
C98    C     0.40488   0.12184   0.77490   0.00000  Uiso   1.00
C99    C     0.48906   0.21881   0.95819   0.00000  Uiso   1.00
C100   C     0.09510   0.37818   0.22513   0.00000  Uiso   1.00
C101   C     0.37185   0.15488   0.72509   0.00000  Uiso   1.00
C102   C     0.12818   0.34509   0.27486   0.00000  Uiso   1.00
C103   C     0.34509   0.37182   0.72514   0.00000  Uiso   1.00
C104   C     0.15488   0.12815   0.27491   0.00000  Uiso   1.00
C105   C     0.12815   0.34512   0.72509   0.00000  Uiso   1.00
C106   C     0.37182   0.15491   0.27486   0.00000  Uiso   1.00
C107   C     0.15491   0.12818   0.72514   0.00000  Uiso   1.00
C108   C     0.34513   0.37185   0.27491   0.00000  Uiso   1.00
C109   C     0.37185   0.34512   0.27491   0.00000  Uiso   1.00
C110   C     0.46880   0.23907   0.54181   0.00000  Uiso   1.00
C111   C     0.12818   0.15491   0.72514   0.00000  Uiso   1.00
C112   C     0.34509   0.12818   0.27486   0.00000  Uiso   1.00
C113   C     0.15488   0.37185   0.72509   0.00000  Uiso   1.00
C114   C     0.12815   0.15488   0.27491   0.00000  Uiso   1.00
C115   C     0.37182   0.34509   0.72514   0.00000  Uiso   1.00
C116   C     0.15491   0.37182   0.27486   0.00000  Uiso   1.00
C117   C     0.34513   0.12815   0.72509   0.00000  Uiso   1.00
C118   C     0.09814   0.34814   0.25000   0.00000  Uiso   1.00
C119   C     0.40186   0.15186   0.75000   0.00000  Uiso   1.00
C120   C     0.15186   0.09814   0.25000   0.00000  Uiso   1.00
H121   H     0.19461   0.47988   0.02675   0.00000  Uiso   1.00
H122   H     0.05539   0.22987   0.47326   0.00000  Uiso   1.00
H123   H     0.22988   0.44461   0.52675   0.00000  Uiso   1.00
H124   H     0.22988   0.05539   0.47326   0.00000  Uiso   1.00
H125   H     0.05539   0.27012   0.52675   0.00000  Uiso   1.00
H126   H     0.44461   0.27013   0.47326   0.00000  Uiso   1.00
H127   H     0.27012   0.05539   0.52675   0.00000  Uiso   1.00
H128   H     0.27012   0.44461   0.47326   0.00000  Uiso   1.00
H129   H     0.11892   0.42788   0.20568   0.00000  Uiso   1.00
H130   H     0.38103   0.07216   0.79438   0.00000  Uiso   1.00
H131   H     0.07216   0.11897   0.20562   0.00000  Uiso   1.00
H132   H     0.30539   0.47988   0.97325   0.00000  Uiso   1.00
H133   H     0.42788   0.38108   0.79432   0.00000  Uiso   1.00
H134   H     0.38108   0.07212   0.20568   0.00000  Uiso   1.00
H135   H     0.11897   0.42784   0.79438   0.00000  Uiso   1.00
H136   H     0.42784   0.38103   0.20562   0.00000  Uiso   1.00
H137   H     0.07212   0.11892   0.79432   0.00000  Uiso   1.00
H138   H     0.11892   0.07212   0.79432   0.00000  Uiso   1.00
H139   H     0.38103   0.42784   0.20562   0.00000  Uiso   1.00
H140   H     0.07216   0.38103   0.79438   0.00000  Uiso   1.00
H141   H     0.42788   0.11892   0.20568   0.00000  Uiso   1.00
H142   H     0.38108   0.42788   0.79432   0.00000  Uiso   1.00
H143   H     0.02012   0.19461   0.02675   0.00000  Uiso   1.00
H144   H     0.11897   0.07216   0.20562   0.00000  Uiso   1.00
H145   H     0.42784   0.11897   0.79438   0.00000  Uiso   1.00
H146   H     0.07212   0.38108   0.20568   0.00000  Uiso   1.00
H147   H     0.36897   0.17783   0.70561   0.00000  Uiso   1.00
H148   H     0.13108   0.32211   0.29431   0.00000  Uiso   1.00
H149   H     0.32211   0.36892   0.70569   0.00000  Uiso   1.00
H150   H     0.17783   0.13103   0.29439   0.00000  Uiso   1.00
H151   H     0.13103   0.32217   0.70561   0.00000  Uiso   1.00
H152   H     0.36892   0.17789   0.29431   0.00000  Uiso   1.00
H153   H     0.17789   0.13108   0.70569   0.00000  Uiso   1.00
H154   H     0.02013   0.30539   0.97325   0.00000  Uiso   1.00
H155   H     0.32217   0.36897   0.29439   0.00000  Uiso   1.00
H156   H     0.36897   0.32217   0.29439   0.00000  Uiso   1.00
H157   H     0.13108   0.17789   0.70569   0.00000  Uiso   1.00
H158   H     0.32211   0.13108   0.29431   0.00000  Uiso   1.00
H159   H     0.17783   0.36897   0.70561   0.00000  Uiso   1.00
H160   H     0.13103   0.17783   0.29439   0.00000  Uiso   1.00
H161   H     0.36892   0.32211   0.70569   0.00000  Uiso   1.00
H162   H     0.17789   0.36892   0.29431   0.00000  Uiso   1.00
H163   H     0.32217   0.13103   0.70561   0.00000  Uiso   1.00
H164   H     0.19437   0.48068   0.09726   0.00000  Uiso   1.00
H165   H     0.30539   0.02012   0.02675   0.00000  Uiso   1.00
H166   H     0.30563   0.48068   0.90274   0.00000  Uiso   1.00
H167   H     0.01931   0.19437   0.09726   0.00000  Uiso   1.00
H168   H     0.01933   0.30562   0.90274   0.00000  Uiso   1.00
H169   H     0.30563   0.01932   0.09726   0.00000  Uiso   1.00
H170   H     0.19437   0.01932   0.90274   0.00000  Uiso   1.00
H171   H     0.48069   0.30563   0.09726   0.00000  Uiso   1.00
H172   H     0.48067   0.19438   0.90274   0.00000  Uiso   1.00
H173   H     0.44437   0.23069   0.59726   0.00000  Uiso   1.00
H174   H     0.05562   0.23068   0.40274   0.00000  Uiso   1.00
H175   H     0.23068   0.44437   0.59726   0.00000  Uiso   1.00
H176   H     0.19461   0.02012   0.97325   0.00000  Uiso   1.00
H177   H     0.23069   0.05563   0.40274   0.00000  Uiso   1.00
H178   H     0.05563   0.26931   0.59726   0.00000  Uiso   1.00
H179   H     0.44438   0.26932   0.40274   0.00000  Uiso   1.00
H180   H     0.26932   0.05563   0.59726   0.00000  Uiso   1.00
H181   H     0.26931   0.44437   0.40274   0.00000  Uiso   1.00
H182   H     0.47989   0.30539   0.02675   0.00000  Uiso   1.00
H183   H     0.47987   0.19461   0.97325   0.00000  Uiso   1.00
H184   H     0.44461   0.22988   0.52675   0.00000  Uiso   1.00
O185   O     0.25000   0.00000   0.25000   0.00000  Uiso   1.00
O186   O     0.25000   0.46964   0.66317   0.00000  Uiso   1.00
O187   O     0.46964   0.25000   0.33683   0.00000  Uiso   1.00
O188   O     0.03036   0.25000   0.66317   0.00000  Uiso   1.00
O189   O     0.00000   0.21964   0.83683   0.00000  Uiso   1.00
O190   O     0.00000   0.28036   0.16317   0.00000  Uiso   1.00
O191   O     0.28036   0.00000   0.83683   0.00000  Uiso   1.00
O192   O     0.21964   0.00000   0.16317   0.00000  Uiso   1.00
O193   O     0.00000   0.28036   0.83683   0.00000  Uiso   1.00
O194   O     0.00000   0.21964   0.16317   0.00000  Uiso   1.00
O195   O     0.21964   0.00000   0.83683   0.00000  Uiso   1.00
O196   O     0.25000  -0.00000   0.75000   0.00000  Uiso   1.00
O197   O     0.28036   0.00000   0.16317   0.00000  Uiso   1.00
O198   O     0.20726   0.07307   0.27282   0.00000  Uiso   1.00
O199   O     0.29275   0.42693   0.72718   0.00000  Uiso   1.00
O200   O     0.42693   0.20726   0.27282   0.00000  Uiso   1.00
O201   O     0.07307   0.29274   0.72718   0.00000  Uiso   1.00
O202   O     0.29275   0.42693   0.27282   0.00000  Uiso   1.00
O203   O     0.20726   0.07307   0.72718   0.00000  Uiso   1.00
O204   O     0.07307   0.29274   0.27282   0.00000  Uiso   1.00
O205   O     0.42693   0.20726   0.72718   0.00000  Uiso   1.00
O206   O     0.20726   0.42693   0.72718   0.00000  Uiso   1.00
O207   O     0.00000   0.25000   0.25000   0.00000  Uiso   1.00
O208   O     0.29275   0.07307   0.27282   0.00000  Uiso   1.00
O209   O     0.42693   0.29275   0.72718   0.00000  Uiso   1.00
O210   O     0.07307   0.20725   0.27282   0.00000  Uiso   1.00
O211   O     0.29275   0.07307   0.72718   0.00000  Uiso   1.00
O212   O     0.20726   0.42693   0.27282   0.00000  Uiso   1.00
O213   O     0.07307   0.20725   0.72718   0.00000  Uiso   1.00
O214   O     0.42693   0.29275   0.27282   0.00000  Uiso   1.00
O215   O     0.45726   0.32307   0.77282   0.00000  Uiso   1.00
O216   O     0.04275   0.17693   0.22718   0.00000  Uiso   1.00
O217   O     0.17693   0.45725   0.77282   0.00000  Uiso   1.00
O218   O     0.00000   0.25000   0.75000   0.00000  Uiso   1.00
O219   O     0.32307   0.04275   0.22718   0.00000  Uiso   1.00
O220   O     0.04275   0.17693   0.77282   0.00000  Uiso   1.00
O221   O     0.45726   0.32307   0.22718   0.00000  Uiso   1.00
O222   O     0.32307   0.04275   0.77282   0.00000  Uiso   1.00
O223   O     0.17693   0.45725   0.22718   0.00000  Uiso   1.00
O224   O     0.45726   0.17693   0.22718   0.00000  Uiso   1.00
O225   O     0.04275   0.32307   0.77282   0.00000  Uiso   1.00
O226   O     0.17693   0.04275   0.22718   0.00000  Uiso   1.00
O227   O     0.32307   0.45725   0.77282   0.00000  Uiso   1.00
O228   O     0.04275   0.32307   0.22718   0.00000  Uiso   1.00
O229   O     0.25000   0.46964   0.33683   0.00000  Uiso   1.00
O230   O     0.45726   0.17693   0.77282   0.00000  Uiso   1.00
O231   O     0.32307   0.45725   0.22718   0.00000  Uiso   1.00
O232   O     0.17693   0.04275   0.77282   0.00000  Uiso   1.00
O233   O     0.25000   0.03036   0.66317   0.00000  Uiso   1.00
O234   O     0.03036   0.25000   0.33683   0.00000  Uiso   1.00
O235   O     0.46964   0.25000   0.66317   0.00000  Uiso   1.00
O236   O     0.25000   0.03036   0.33683   0.00000  Uiso   1.00
Zn237  Zn    0.20660   0.00000   0.21760   0.00000  Uiso   1.00
Zn238  Zn    0.04340   0.25000   0.28240   0.00000  Uiso   1.00
Zn239  Zn    0.25000   0.45660   0.71760   0.00000  Uiso   1.00
Zn240  Zn    0.25000   0.04340   0.28240   0.00000  Uiso   1.00
Zn241  Zn    0.04340   0.25000   0.71760   0.00000  Uiso   1.00
Zn242  Zn    0.45660   0.25000   0.28240   0.00000  Uiso   1.00
Zn243  Zn    0.25000   0.04340   0.71760   0.00000  Uiso   1.00
Zn244  Zn    0.25000   0.45660   0.28240   0.00000  Uiso   1.00
Zn245  Zn    0.29340  -0.00000   0.78240   0.00000  Uiso   1.00
Zn246  Zn    0.00000   0.20660   0.21760   0.00000  Uiso   1.00
Zn247  Zn    0.00000   0.29340   0.78240   0.00000  Uiso   1.00
Zn248  Zn    0.29340   0.00000   0.21760   0.00000  Uiso   1.00
Zn249  Zn    0.20660  -0.00000   0.78240   0.00000  Uiso   1.00
Zn250  Zn    0.00000   0.29340   0.21760   0.00000  Uiso   1.00
Zn251  Zn    0.00000   0.20660   0.78240   0.00000  Uiso   1.00
Zn252  Zn    0.45660   0.25000   0.71760   0.00000  Uiso   1.00
C253   C     0.71880   0.48907   0.04181   0.00000  Uiso   1.00
C254   C     0.53119   0.23906   0.45819   0.00000  Uiso   1.00
C255   C     0.84814   0.40186   0.75000   0.00000  Uiso   1.00
C256   C     0.90186   0.15186   0.25000   0.00000  Uiso   1.00
C257   C     0.59814   0.34814   0.75000   0.00000  Uiso   1.00
C258   C     0.84814   0.40186   0.25000   0.00000  Uiso   1.00
C259   C     0.65186   0.09814   0.75000   0.00000  Uiso   1.00
C260   C     0.59814   0.15186   0.75000   0.00000  Uiso   1.00
C261   C     0.90186   0.34814   0.25000   0.00000  Uiso   1.00
C262   C     0.65186   0.40186   0.75000   0.00000  Uiso   1.00
C263   C     0.84814   0.09814   0.25000   0.00000  Uiso   1.00
C264   C     0.90186   0.34814   0.75000   0.00000  Uiso   1.00
C265   C     0.73906   0.46880   0.54181   0.00000  Uiso   1.00
C266   C     0.59814   0.15186   0.25000   0.00000  Uiso   1.00
C267   C     0.84814   0.09814   0.75000   0.00000  Uiso   1.00
C268   C     0.65186   0.40186   0.25000   0.00000  Uiso   1.00
C269   C     0.75000   0.00000   0.10245   0.00000  Uiso   1.00
C270   C     0.75000   0.00000   0.89755   0.00000  Uiso   1.00
C271   C     0.50000   0.25000   0.10245   0.00000  Uiso   1.00
C272   C     0.50000   0.25000   0.89755   0.00000  Uiso   1.00
C273   C     0.50000   0.25000   0.60245   0.00000  Uiso   1.00
C274   C     0.50000   0.25000   0.39755   0.00000  Uiso   1.00
C275   C     0.75000  -0.00000   0.60245   0.00000  Uiso   1.00
C276   C     0.73907   0.03120   0.45819   0.00000  Uiso   1.00
C277   C     0.75000   0.00000   0.39755   0.00000  Uiso   1.00
C278   C     0.53120   0.26093   0.54181   0.00000  Uiso   1.00
C279   C     0.96881   0.26094   0.45819   0.00000  Uiso   1.00
C280   C     0.76094   0.03120   0.54181   0.00000  Uiso   1.00
C281   C     0.76093   0.46880   0.45819   0.00000  Uiso   1.00
C282   C     0.71872   0.48932   0.08208   0.00000  Uiso   1.00
C283   C     0.78128   0.48932   0.91792   0.00000  Uiso   1.00
C284   C     0.51067   0.21872   0.08208   0.00000  Uiso   1.00
C285   C     0.78120   0.48906   0.95819   0.00000  Uiso   1.00
C286   C     0.51068   0.28128   0.91792   0.00000  Uiso   1.00
C287   C     0.78128   0.01068   0.08208   0.00000  Uiso   1.00
C288   C     0.71872   0.01068   0.91792   0.00000  Uiso   1.00
C289   C     0.98933   0.28128   0.08208   0.00000  Uiso   1.00
C290   C     0.98932   0.21872   0.91792   0.00000  Uiso   1.00
C291   C     0.96872   0.23933   0.58208   0.00000  Uiso   1.00
C292   C     0.53128   0.23932   0.41792   0.00000  Uiso   1.00
C293   C     0.73932   0.46872   0.58208   0.00000  Uiso   1.00
C294   C     0.73933   0.03128   0.41792   0.00000  Uiso   1.00
C295   C     0.53128   0.26067   0.58208   0.00000  Uiso   1.00
C296   C     0.51093   0.21880   0.04181   0.00000  Uiso   1.00
C297   C     0.96872   0.26068   0.41792   0.00000  Uiso   1.00
C298   C     0.76068   0.03128   0.58208   0.00000  Uiso   1.00
C299   C     0.76068   0.46872   0.41792   0.00000  Uiso   1.00
C300   C     0.75000  -0.00000   0.02132   0.00000  Uiso   1.00
C301   C     0.75000   0.00000   0.97868   0.00000  Uiso   1.00
C302   C     0.50000   0.25000   0.02132   0.00000  Uiso   1.00
C303   C     0.50000   0.25000   0.97868   0.00000  Uiso   1.00
C304   C     0.50000   0.25000   0.52132   0.00000  Uiso   1.00
C305   C     0.50000   0.25000   0.47868   0.00000  Uiso   1.00
C306   C     0.75000   0.00000   0.52132   0.00000  Uiso   1.00
C307   C     0.51094   0.28119   0.95819   0.00000  Uiso   1.00
C308   C     0.75000   0.00000   0.47868   0.00000  Uiso   1.00
C309   C     0.75000   0.00000   0.35520   0.00000  Uiso   1.00
C310   C     0.75000   0.00000   0.64480   0.00000  Uiso   1.00
C311   C     0.50000   0.25000   0.35520   0.00000  Uiso   1.00
C312   C     0.50000   0.25000   0.64480   0.00000  Uiso   1.00
C313   C     0.50000   0.25000   0.85520   0.00000  Uiso   1.00
C314   C     0.50000   0.25000   0.14480   0.00000  Uiso   1.00
C315   C     0.75000   0.00000   0.85520   0.00000  Uiso   1.00
C316   C     0.75000   0.00000   0.14480   0.00000  Uiso   1.00
C317   C     0.67992   0.07007   0.25000   0.00000  Uiso   1.00
C318   C     0.78120   0.01093   0.04181   0.00000  Uiso   1.00
C319   C     0.82007   0.42992   0.75000   0.00000  Uiso   1.00
C320   C     0.92992   0.17993   0.25000   0.00000  Uiso   1.00
C321   C     0.57007   0.32007   0.75000   0.00000  Uiso   1.00
C322   C     0.82008   0.42993   0.25000   0.00000  Uiso   1.00
C323   C     0.67993   0.07008   0.75000   0.00000  Uiso   1.00
C324   C     0.57008   0.32007   0.25000   0.00000  Uiso   1.00
C325   C     0.92993   0.17992   0.75000   0.00000  Uiso   1.00
C326   C     0.67992   0.42993   0.75000   0.00000  Uiso   1.00
C327   C     0.82007   0.07008   0.25000   0.00000  Uiso   1.00
C328   C     0.92992   0.32007   0.75000   0.00000  Uiso   1.00
C329   C     0.71880   0.01094   0.95819   0.00000  Uiso   1.00
C330   C     0.57007   0.17992   0.25000   0.00000  Uiso   1.00
C331   C     0.82008   0.07007   0.75000   0.00000  Uiso   1.00
C332   C     0.67993   0.42992   0.25000   0.00000  Uiso   1.00
C333   C     0.57008   0.17993   0.75000   0.00000  Uiso   1.00
C334   C     0.92993   0.32008   0.25000   0.00000  Uiso   1.00
C335   C     0.62182   0.40490   0.22513   0.00000  Uiso   1.00
C336   C     0.87816   0.09512   0.77490   0.00000  Uiso   1.00
C337   C     0.59512   0.12184   0.22510   0.00000  Uiso   1.00
C338   C     0.90490   0.37818   0.77487   0.00000  Uiso   1.00
C339   C     0.87818   0.09510   0.22513   0.00000  Uiso   1.00
C340   C     0.98907   0.28120   0.04181   0.00000  Uiso   1.00
C341   C     0.62184   0.40488   0.77490   0.00000  Uiso   1.00
C342   C     0.90488   0.37816   0.22510   0.00000  Uiso   1.00
C343   C     0.59510   0.12182   0.77487   0.00000  Uiso   1.00
C344   C     0.62182   0.09510   0.77487   0.00000  Uiso   1.00
C345   C     0.87816   0.40488   0.22510   0.00000  Uiso   1.00
C346   C     0.59512   0.37816   0.77490   0.00000  Uiso   1.00
C347   C     0.90490   0.12182   0.22513   0.00000  Uiso   1.00
C348   C     0.87818   0.40490   0.77487   0.00000  Uiso   1.00
C349   C     0.62184   0.09512   0.22510   0.00000  Uiso   1.00
C350   C     0.90488   0.12184   0.77490   0.00000  Uiso   1.00
C351   C     0.98906   0.21881   0.95819   0.00000  Uiso   1.00
C352   C     0.59510   0.37818   0.22513   0.00000  Uiso   1.00
C353   C     0.87185   0.15488   0.72509   0.00000  Uiso   1.00
C354   C     0.62818   0.34509   0.27486   0.00000  Uiso   1.00
C355   C     0.84509   0.37182   0.72514   0.00000  Uiso   1.00
C356   C     0.65488   0.12815   0.27491   0.00000  Uiso   1.00
C357   C     0.62815   0.34512   0.72509   0.00000  Uiso   1.00
C358   C     0.87182   0.15491   0.27486   0.00000  Uiso   1.00
C359   C     0.65491   0.12818   0.72514   0.00000  Uiso   1.00
C360   C     0.84513   0.37185   0.27491   0.00000  Uiso   1.00
C361   C     0.87185   0.34512   0.27491   0.00000  Uiso   1.00
C362   C     0.96880   0.23907   0.54181   0.00000  Uiso   1.00
C363   C     0.62818   0.15491   0.72514   0.00000  Uiso   1.00
C364   C     0.84509   0.12818   0.27486   0.00000  Uiso   1.00
C365   C     0.65488   0.37185   0.72509   0.00000  Uiso   1.00
C366   C     0.62815   0.15488   0.27491   0.00000  Uiso   1.00
C367   C     0.87182   0.34509   0.72514   0.00000  Uiso   1.00
C368   C     0.65491   0.37182   0.27486   0.00000  Uiso   1.00
C369   C     0.84513   0.12815   0.72509   0.00000  Uiso   1.00
C370   C     0.59814   0.34814   0.25000   0.00000  Uiso   1.00
C371   C     0.90186   0.15186   0.75000   0.00000  Uiso   1.00
C372   C     0.65186   0.09814   0.25000   0.00000  Uiso   1.00
H373   H     0.69461   0.47988   0.02675   0.00000  Uiso   1.00
H374   H     0.55539   0.22987   0.47326   0.00000  Uiso   1.00
H375   H     0.72988   0.44461   0.52675   0.00000  Uiso   1.00
H376   H     0.72988   0.05539   0.47326   0.00000  Uiso   1.00
H377   H     0.55539   0.27012   0.52675   0.00000  Uiso   1.00
H378   H     0.94461   0.27013   0.47326   0.00000  Uiso   1.00
H379   H     0.77012   0.05539   0.52675   0.00000  Uiso   1.00
H380   H     0.77012   0.44461   0.47326   0.00000  Uiso   1.00
H381   H     0.61892   0.42788   0.20568   0.00000  Uiso   1.00
H382   H     0.88103   0.07216   0.79438   0.00000  Uiso   1.00
H383   H     0.57216   0.11897   0.20562   0.00000  Uiso   1.00
H384   H     0.80539   0.47988   0.97325   0.00000  Uiso   1.00
H385   H     0.92788   0.38108   0.79432   0.00000  Uiso   1.00
H386   H     0.88108   0.07212   0.20568   0.00000  Uiso   1.00
H387   H     0.61897   0.42784   0.79438   0.00000  Uiso   1.00
H388   H     0.92784   0.38103   0.20562   0.00000  Uiso   1.00
H389   H     0.57212   0.11892   0.79432   0.00000  Uiso   1.00
H390   H     0.61892   0.07212   0.79432   0.00000  Uiso   1.00
H391   H     0.88103   0.42784   0.20562   0.00000  Uiso   1.00
H392   H     0.57216   0.38103   0.79438   0.00000  Uiso   1.00
H393   H     0.92788   0.11892   0.20568   0.00000  Uiso   1.00
H394   H     0.88108   0.42788   0.79432   0.00000  Uiso   1.00
H395   H     0.52012   0.19461   0.02675   0.00000  Uiso   1.00
H396   H     0.61897   0.07216   0.20562   0.00000  Uiso   1.00
H397   H     0.92784   0.11897   0.79438   0.00000  Uiso   1.00
H398   H     0.57212   0.38108   0.20568   0.00000  Uiso   1.00
H399   H     0.86897   0.17783   0.70561   0.00000  Uiso   1.00
H400   H     0.63108   0.32211   0.29431   0.00000  Uiso   1.00
H401   H     0.82211   0.36892   0.70569   0.00000  Uiso   1.00
H402   H     0.67783   0.13103   0.29439   0.00000  Uiso   1.00
H403   H     0.63103   0.32217   0.70561   0.00000  Uiso   1.00
H404   H     0.86892   0.17789   0.29431   0.00000  Uiso   1.00
H405   H     0.67789   0.13108   0.70569   0.00000  Uiso   1.00
H406   H     0.52013   0.30539   0.97325   0.00000  Uiso   1.00
H407   H     0.82217   0.36897   0.29439   0.00000  Uiso   1.00
H408   H     0.86897   0.32217   0.29439   0.00000  Uiso   1.00
H409   H     0.63108   0.17789   0.70569   0.00000  Uiso   1.00
H410   H     0.82211   0.13108   0.29431   0.00000  Uiso   1.00
H411   H     0.67783   0.36897   0.70561   0.00000  Uiso   1.00
H412   H     0.63103   0.17783   0.29439   0.00000  Uiso   1.00
H413   H     0.86892   0.32211   0.70569   0.00000  Uiso   1.00
H414   H     0.67789   0.36892   0.29431   0.00000  Uiso   1.00
H415   H     0.82217   0.13103   0.70561   0.00000  Uiso   1.00
H416   H     0.69437   0.48068   0.09726   0.00000  Uiso   1.00
H417   H     0.80539   0.02012   0.02675   0.00000  Uiso   1.00
H418   H     0.80563   0.48068   0.90274   0.00000  Uiso   1.00
H419   H     0.51931   0.19437   0.09726   0.00000  Uiso   1.00
H420   H     0.51933   0.30562   0.90274   0.00000  Uiso   1.00
H421   H     0.80563   0.01932   0.09726   0.00000  Uiso   1.00
H422   H     0.69437   0.01932   0.90274   0.00000  Uiso   1.00
H423   H     0.98069   0.30563   0.09726   0.00000  Uiso   1.00
H424   H     0.98067   0.19438   0.90274   0.00000  Uiso   1.00
H425   H     0.94437   0.23069   0.59726   0.00000  Uiso   1.00
H426   H     0.55562   0.23068   0.40274   0.00000  Uiso   1.00
H427   H     0.73068   0.44437   0.59726   0.00000  Uiso   1.00
H428   H     0.69461   0.02012   0.97325   0.00000  Uiso   1.00
H429   H     0.73069   0.05563   0.40274   0.00000  Uiso   1.00
H430   H     0.55563   0.26931   0.59726   0.00000  Uiso   1.00
H431   H     0.94438   0.26932   0.40274   0.00000  Uiso   1.00
H432   H     0.76932   0.05563   0.59726   0.00000  Uiso   1.00
H433   H     0.76931   0.44437   0.40274   0.00000  Uiso   1.00
H434   H     0.97989   0.30539   0.02675   0.00000  Uiso   1.00
H435   H     0.97987   0.19461   0.97325   0.00000  Uiso   1.00
H436   H     0.94461   0.22988   0.52675   0.00000  Uiso   1.00
O437   O     0.75000   0.00000   0.25000   0.00000  Uiso   1.00
O438   O     0.75000   0.46964   0.66317   0.00000  Uiso   1.00
O439   O     0.96964   0.25000   0.33683   0.00000  Uiso   1.00
O440   O     0.53036   0.25000   0.66317   0.00000  Uiso   1.00
O441   O     0.50000   0.21964   0.83683   0.00000  Uiso   1.00
O442   O     0.50000   0.28036   0.16317   0.00000  Uiso   1.00
O443   O     0.78036   0.00000   0.83683   0.00000  Uiso   1.00
O444   O     0.71964   0.00000   0.16317   0.00000  Uiso   1.00
O445   O     0.50000   0.28036   0.83683   0.00000  Uiso   1.00
O446   O     0.50000   0.21964   0.16317   0.00000  Uiso   1.00
O447   O     0.71964   0.00000   0.83683   0.00000  Uiso   1.00
O448   O     0.75000  -0.00000   0.75000   0.00000  Uiso   1.00
O449   O     0.78036   0.00000   0.16317   0.00000  Uiso   1.00
O450   O     0.70726   0.07307   0.27282   0.00000  Uiso   1.00
O451   O     0.79275   0.42693   0.72718   0.00000  Uiso   1.00
O452   O     0.92693   0.20726   0.27282   0.00000  Uiso   1.00
O453   O     0.57307   0.29274   0.72718   0.00000  Uiso   1.00
O454   O     0.79275   0.42693   0.27282   0.00000  Uiso   1.00
O455   O     0.70726   0.07307   0.72718   0.00000  Uiso   1.00
O456   O     0.57307   0.29274   0.27282   0.00000  Uiso   1.00
O457   O     0.92693   0.20726   0.72718   0.00000  Uiso   1.00
O458   O     0.70726   0.42693   0.72718   0.00000  Uiso   1.00
O459   O     0.50000   0.25000   0.25000   0.00000  Uiso   1.00
O460   O     0.79275   0.07307   0.27282   0.00000  Uiso   1.00
O461   O     0.92693   0.29275   0.72718   0.00000  Uiso   1.00
O462   O     0.57307   0.20725   0.27282   0.00000  Uiso   1.00
O463   O     0.79275   0.07307   0.72718   0.00000  Uiso   1.00
O464   O     0.70726   0.42693   0.27282   0.00000  Uiso   1.00
O465   O     0.57307   0.20725   0.72718   0.00000  Uiso   1.00
O466   O     0.92693   0.29275   0.27282   0.00000  Uiso   1.00
O467   O     0.95726   0.32307   0.77282   0.00000  Uiso   1.00
O468   O     0.54275   0.17693   0.22718   0.00000  Uiso   1.00
O469   O     0.67693   0.45725   0.77282   0.00000  Uiso   1.00
O470   O     0.50000   0.25000   0.75000   0.00000  Uiso   1.00
O471   O     0.82307   0.04275   0.22718   0.00000  Uiso   1.00
O472   O     0.54275   0.17693   0.77282   0.00000  Uiso   1.00
O473   O     0.95726   0.32307   0.22718   0.00000  Uiso   1.00
O474   O     0.82307   0.04275   0.77282   0.00000  Uiso   1.00
O475   O     0.67693   0.45725   0.22718   0.00000  Uiso   1.00
O476   O     0.95726   0.17693   0.22718   0.00000  Uiso   1.00
O477   O     0.54275   0.32307   0.77282   0.00000  Uiso   1.00
O478   O     0.67693   0.04275   0.22718   0.00000  Uiso   1.00
O479   O     0.82307   0.45725   0.77282   0.00000  Uiso   1.00
O480   O     0.54275   0.32307   0.22718   0.00000  Uiso   1.00
O481   O     0.75000   0.46964   0.33683   0.00000  Uiso   1.00
O482   O     0.95726   0.17693   0.77282   0.00000  Uiso   1.00
O483   O     0.82307   0.45725   0.22718   0.00000  Uiso   1.00
O484   O     0.67693   0.04275   0.77282   0.00000  Uiso   1.00
O485   O     0.75000   0.03036   0.66317   0.00000  Uiso   1.00
O486   O     0.53036   0.25000   0.33683   0.00000  Uiso   1.00
O487   O     0.96964   0.25000   0.66317   0.00000  Uiso   1.00
O488   O     0.75000   0.03036   0.33683   0.00000  Uiso   1.00
Zn489  Zn    0.70660   0.00000   0.21760   0.00000  Uiso   1.00
Zn490  Zn    0.54340   0.25000   0.28240   0.00000  Uiso   1.00
Zn491  Zn    0.75000   0.45660   0.71760   0.00000  Uiso   1.00
Zn492  Zn    0.75000   0.04340   0.28240   0.00000  Uiso   1.00
Zn493  Zn    0.54340   0.25000   0.71760   0.00000  Uiso   1.00
Zn494  Zn    0.95660   0.25000   0.28240   0.00000  Uiso   1.00
Zn495  Zn    0.75000   0.04340   0.71760   0.00000  Uiso   1.00
Zn496  Zn    0.75000   0.45660   0.28240   0.00000  Uiso   1.00
Zn497  Zn    0.79340  -0.00000   0.78240   0.00000  Uiso   1.00
Zn498  Zn    0.50000   0.20660   0.21760   0.00000  Uiso   1.00
Zn499  Zn    0.50000   0.29340   0.78240   0.00000  Uiso   1.00
Zn500  Zn    0.79340   0.00000   0.21760   0.00000  Uiso   1.00
Zn501  Zn    0.70660  -0.00000   0.78240   0.00000  Uiso   1.00
Zn502  Zn    0.50000   0.29340   0.21760   0.00000  Uiso   1.00
Zn503  Zn    0.50000   0.20660   0.78240   0.00000  Uiso   1.00
Zn504  Zn    0.95660   0.25000   0.71760   0.00000  Uiso   1.00
C505   C     0.21880   0.98907   0.04181   0.00000  Uiso   1.00
C506   C     0.03119   0.73906   0.45819   0.00000  Uiso   1.00
C507   C     0.34814   0.90186   0.75000   0.00000  Uiso   1.00
C508   C     0.40186   0.65186   0.25000   0.00000  Uiso   1.00
C509   C     0.09814   0.84814   0.75000   0.00000  Uiso   1.00
C510   C     0.34814   0.90186   0.25000   0.00000  Uiso   1.00
C511   C     0.15186   0.59814   0.75000   0.00000  Uiso   1.00
C512   C     0.09814   0.65186   0.75000   0.00000  Uiso   1.00
C513   C     0.40186   0.84814   0.25000   0.00000  Uiso   1.00
C514   C     0.15186   0.90186   0.75000   0.00000  Uiso   1.00
C515   C     0.34814   0.59814   0.25000   0.00000  Uiso   1.00
C516   C     0.40186   0.84814   0.75000   0.00000  Uiso   1.00
C517   C     0.23906   0.96880   0.54181   0.00000  Uiso   1.00
C518   C     0.09814   0.65186   0.25000   0.00000  Uiso   1.00
C519   C     0.34814   0.59814   0.75000   0.00000  Uiso   1.00
C520   C     0.15186   0.90186   0.25000   0.00000  Uiso   1.00
C521   C     0.25000   0.50000   0.10245   0.00000  Uiso   1.00
C522   C     0.25000   0.50000   0.89755   0.00000  Uiso   1.00
C523   C     0.00000   0.75000   0.10245   0.00000  Uiso   1.00
C524   C     0.00000   0.75000   0.89755   0.00000  Uiso   1.00
C525   C     0.00000   0.75000   0.60245   0.00000  Uiso   1.00
C526   C     0.00000   0.75000   0.39755   0.00000  Uiso   1.00
C527   C     0.25000   0.50000   0.60245   0.00000  Uiso   1.00
C528   C     0.23907   0.53120   0.45819   0.00000  Uiso   1.00
C529   C     0.25000   0.50000   0.39755   0.00000  Uiso   1.00
C530   C     0.03120   0.76093   0.54181   0.00000  Uiso   1.00
C531   C     0.46881   0.76094   0.45819   0.00000  Uiso   1.00
C532   C     0.26094   0.53120   0.54181   0.00000  Uiso   1.00
C533   C     0.26093   0.96880   0.45819   0.00000  Uiso   1.00
C534   C     0.21872   0.98932   0.08208   0.00000  Uiso   1.00
C535   C     0.28128   0.98932   0.91792   0.00000  Uiso   1.00
C536   C     0.01067   0.71872   0.08208   0.00000  Uiso   1.00
C537   C     0.28120   0.98906   0.95819   0.00000  Uiso   1.00
C538   C     0.01068   0.78128   0.91792   0.00000  Uiso   1.00
C539   C     0.28128   0.51068   0.08208   0.00000  Uiso   1.00
C540   C     0.21872   0.51068   0.91792   0.00000  Uiso   1.00
C541   C     0.48933   0.78128   0.08208   0.00000  Uiso   1.00
C542   C     0.48932   0.71872   0.91792   0.00000  Uiso   1.00
C543   C     0.46872   0.73933   0.58208   0.00000  Uiso   1.00
C544   C     0.03128   0.73932   0.41792   0.00000  Uiso   1.00
C545   C     0.23932   0.96872   0.58208   0.00000  Uiso   1.00
C546   C     0.23933   0.53128   0.41792   0.00000  Uiso   1.00
C547   C     0.03128   0.76067   0.58208   0.00000  Uiso   1.00
C548   C     0.01093   0.71880   0.04181   0.00000  Uiso   1.00
C549   C     0.46872   0.76068   0.41792   0.00000  Uiso   1.00
C550   C     0.26068   0.53128   0.58208   0.00000  Uiso   1.00
C551   C     0.26068   0.96872   0.41792   0.00000  Uiso   1.00
C552   C     0.25000   0.50000   0.02132   0.00000  Uiso   1.00
C553   C     0.25000   0.50000   0.97868   0.00000  Uiso   1.00
C554   C     0.00000   0.75000   0.02132   0.00000  Uiso   1.00
C555   C     0.00000   0.75000   0.97868   0.00000  Uiso   1.00
C556   C     0.00000   0.75000   0.52132   0.00000  Uiso   1.00
C557   C     0.00000   0.75000   0.47868   0.00000  Uiso   1.00
C558   C     0.25000   0.50000   0.52132   0.00000  Uiso   1.00
C559   C     0.01094   0.78119   0.95819   0.00000  Uiso   1.00
C560   C     0.25000   0.50000   0.47868   0.00000  Uiso   1.00
C561   C     0.25000   0.50000   0.35520   0.00000  Uiso   1.00
C562   C     0.25000   0.50000   0.64480   0.00000  Uiso   1.00
C563   C     0.00000   0.75000   0.35520   0.00000  Uiso   1.00
C564   C     0.00000   0.75000   0.64480   0.00000  Uiso   1.00
C565   C     0.00000   0.75000   0.85520   0.00000  Uiso   1.00
C566   C     0.00000   0.75000   0.14480   0.00000  Uiso   1.00
C567   C     0.25000   0.50000   0.85520   0.00000  Uiso   1.00
C568   C     0.25000   0.50000   0.14480   0.00000  Uiso   1.00
C569   C     0.17992   0.57007   0.25000   0.00000  Uiso   1.00
C570   C     0.28120   0.51093   0.04181   0.00000  Uiso   1.00
C571   C     0.32007   0.92992   0.75000   0.00000  Uiso   1.00
C572   C     0.42992   0.67993   0.25000   0.00000  Uiso   1.00
C573   C     0.07007   0.82007   0.75000   0.00000  Uiso   1.00
C574   C     0.32008   0.92993   0.25000   0.00000  Uiso   1.00
C575   C     0.17993   0.57008   0.75000   0.00000  Uiso   1.00
C576   C     0.07008   0.82007   0.25000   0.00000  Uiso   1.00
C577   C     0.42993   0.67992   0.75000   0.00000  Uiso   1.00
C578   C     0.17992   0.92993   0.75000   0.00000  Uiso   1.00
C579   C     0.32007   0.57008   0.25000   0.00000  Uiso   1.00
C580   C     0.42992   0.82007   0.75000   0.00000  Uiso   1.00
C581   C     0.21880   0.51094   0.95819   0.00000  Uiso   1.00
C582   C     0.07007   0.67992   0.25000   0.00000  Uiso   1.00
C583   C     0.32008   0.57007   0.75000   0.00000  Uiso   1.00
C584   C     0.17993   0.92992   0.25000   0.00000  Uiso   1.00
C585   C     0.07008   0.67993   0.75000   0.00000  Uiso   1.00
C586   C     0.42993   0.82008   0.25000   0.00000  Uiso   1.00
C587   C     0.12182   0.90490   0.22513   0.00000  Uiso   1.00
C588   C     0.37816   0.59512   0.77490   0.00000  Uiso   1.00
C589   C     0.09512   0.62184   0.22510   0.00000  Uiso   1.00
C590   C     0.40490   0.87818   0.77487   0.00000  Uiso   1.00
C591   C     0.37818   0.59510   0.22513   0.00000  Uiso   1.00
C592   C     0.48907   0.78120   0.04181   0.00000  Uiso   1.00
C593   C     0.12184   0.90488   0.77490   0.00000  Uiso   1.00
C594   C     0.40488   0.87816   0.22510   0.00000  Uiso   1.00
C595   C     0.09510   0.62182   0.77487   0.00000  Uiso   1.00
C596   C     0.12182   0.59510   0.77487   0.00000  Uiso   1.00
C597   C     0.37816   0.90488   0.22510   0.00000  Uiso   1.00
C598   C     0.09512   0.87816   0.77490   0.00000  Uiso   1.00
C599   C     0.40490   0.62182   0.22513   0.00000  Uiso   1.00
C600   C     0.37818   0.90490   0.77487   0.00000  Uiso   1.00
C601   C     0.12184   0.59512   0.22510   0.00000  Uiso   1.00
C602   C     0.40488   0.62184   0.77490   0.00000  Uiso   1.00
C603   C     0.48906   0.71881   0.95819   0.00000  Uiso   1.00
C604   C     0.09510   0.87818   0.22513   0.00000  Uiso   1.00
C605   C     0.37185   0.65488   0.72509   0.00000  Uiso   1.00
C606   C     0.12818   0.84509   0.27486   0.00000  Uiso   1.00
C607   C     0.34509   0.87182   0.72514   0.00000  Uiso   1.00
C608   C     0.15488   0.62815   0.27491   0.00000  Uiso   1.00
C609   C     0.12815   0.84512   0.72509   0.00000  Uiso   1.00
C610   C     0.37182   0.65491   0.27486   0.00000  Uiso   1.00
C611   C     0.15491   0.62818   0.72514   0.00000  Uiso   1.00
C612   C     0.34513   0.87185   0.27491   0.00000  Uiso   1.00
C613   C     0.37185   0.84512   0.27491   0.00000  Uiso   1.00
C614   C     0.46880   0.73907   0.54181   0.00000  Uiso   1.00
C615   C     0.12818   0.65491   0.72514   0.00000  Uiso   1.00
C616   C     0.34509   0.62818   0.27486   0.00000  Uiso   1.00
C617   C     0.15488   0.87185   0.72509   0.00000  Uiso   1.00
C618   C     0.12815   0.65488   0.27491   0.00000  Uiso   1.00
C619   C     0.37182   0.84509   0.72514   0.00000  Uiso   1.00
C620   C     0.15491   0.87182   0.27486   0.00000  Uiso   1.00
C621   C     0.34513   0.62815   0.72509   0.00000  Uiso   1.00
C622   C     0.09814   0.84814   0.25000   0.00000  Uiso   1.00
C623   C     0.40186   0.65186   0.75000   0.00000  Uiso   1.00
C624   C     0.15186   0.59814   0.25000   0.00000  Uiso   1.00
H625   H     0.19461   0.97988   0.02675   0.00000  Uiso   1.00
H626   H     0.05539   0.72987   0.47326   0.00000  Uiso   1.00
H627   H     0.22988   0.94461   0.52675   0.00000  Uiso   1.00
H628   H     0.22988   0.55539   0.47326   0.00000  Uiso   1.00
H629   H     0.05539   0.77012   0.52675   0.00000  Uiso   1.00
H630   H     0.44461   0.77013   0.47326   0.00000  Uiso   1.00
H631   H     0.27012   0.55539   0.52675   0.00000  Uiso   1.00
H632   H     0.27012   0.94461   0.47326   0.00000  Uiso   1.00
H633   H     0.11892   0.92788   0.20568   0.00000  Uiso   1.00
H634   H     0.38103   0.57216   0.79438   0.00000  Uiso   1.00
H635   H     0.07216   0.61897   0.20562   0.00000  Uiso   1.00
H636   H     0.30539   0.97988   0.97325   0.00000  Uiso   1.00
H637   H     0.42788   0.88108   0.79432   0.00000  Uiso   1.00
H638   H     0.38108   0.57212   0.20568   0.00000  Uiso   1.00
H639   H     0.11897   0.92784   0.79438   0.00000  Uiso   1.00
H640   H     0.42784   0.88103   0.20562   0.00000  Uiso   1.00
H641   H     0.07212   0.61892   0.79432   0.00000  Uiso   1.00
H642   H     0.11892   0.57212   0.79432   0.00000  Uiso   1.00
H643   H     0.38103   0.92784   0.20562   0.00000  Uiso   1.00
H644   H     0.07216   0.88103   0.79438   0.00000  Uiso   1.00
H645   H     0.42788   0.61892   0.20568   0.00000  Uiso   1.00
H646   H     0.38108   0.92788   0.79432   0.00000  Uiso   1.00
H647   H     0.02012   0.69461   0.02675   0.00000  Uiso   1.00
H648   H     0.11897   0.57216   0.20562   0.00000  Uiso   1.00
H649   H     0.42784   0.61897   0.79438   0.00000  Uiso   1.00
H650   H     0.07212   0.88108   0.20568   0.00000  Uiso   1.00
H651   H     0.36897   0.67783   0.70561   0.00000  Uiso   1.00
H652   H     0.13108   0.82211   0.29431   0.00000  Uiso   1.00
H653   H     0.32211   0.86892   0.70569   0.00000  Uiso   1.00
H654   H     0.17783   0.63103   0.29439   0.00000  Uiso   1.00
H655   H     0.13103   0.82217   0.70561   0.00000  Uiso   1.00
H656   H     0.36892   0.67789   0.29431   0.00000  Uiso   1.00
H657   H     0.17789   0.63108   0.70569   0.00000  Uiso   1.00
H658   H     0.02013   0.80539   0.97325   0.00000  Uiso   1.00
H659   H     0.32217   0.86897   0.29439   0.00000  Uiso   1.00
H660   H     0.36897   0.82217   0.29439   0.00000  Uiso   1.00
H661   H     0.13108   0.67789   0.70569   0.00000  Uiso   1.00
H662   H     0.32211   0.63108   0.29431   0.00000  Uiso   1.00
H663   H     0.17783   0.86897   0.70561   0.00000  Uiso   1.00
H664   H     0.13103   0.67783   0.29439   0.00000  Uiso   1.00
H665   H     0.36892   0.82211   0.70569   0.00000  Uiso   1.00
H666   H     0.17789   0.86892   0.29431   0.00000  Uiso   1.00
H667   H     0.32217   0.63103   0.70561   0.00000  Uiso   1.00
H668   H     0.19437   0.98068   0.09726   0.00000  Uiso   1.00
H669   H     0.30539   0.52012   0.02675   0.00000  Uiso   1.00
H670   H     0.30563   0.98068   0.90274   0.00000  Uiso   1.00
H671   H     0.01931   0.69437   0.09726   0.00000  Uiso   1.00
H672   H     0.01933   0.80562   0.90274   0.00000  Uiso   1.00
H673   H     0.30563   0.51932   0.09726   0.00000  Uiso   1.00
H674   H     0.19437   0.51932   0.90274   0.00000  Uiso   1.00
H675   H     0.48069   0.80563   0.09726   0.00000  Uiso   1.00
H676   H     0.48067   0.69438   0.90274   0.00000  Uiso   1.00
H677   H     0.44437   0.73069   0.59726   0.00000  Uiso   1.00
H678   H     0.05562   0.73068   0.40274   0.00000  Uiso   1.00
H679   H     0.23068   0.94437   0.59726   0.00000  Uiso   1.00
H680   H     0.19461   0.52012   0.97325   0.00000  Uiso   1.00
H681   H     0.23069   0.55563   0.40274   0.00000  Uiso   1.00
H682   H     0.05563   0.76931   0.59726   0.00000  Uiso   1.00
H683   H     0.44438   0.76932   0.40274   0.00000  Uiso   1.00
H684   H     0.26932   0.55563   0.59726   0.00000  Uiso   1.00
H685   H     0.26931   0.94437   0.40274   0.00000  Uiso   1.00
H686   H     0.47989   0.80539   0.02675   0.00000  Uiso   1.00
H687   H     0.47987   0.69461   0.97325   0.00000  Uiso   1.00
H688   H     0.44461   0.72988   0.52675   0.00000  Uiso   1.00
O689   O     0.25000   0.50000   0.25000   0.00000  Uiso   1.00
O690   O     0.25000   0.96964   0.66317   0.00000  Uiso   1.00
O691   O     0.46964   0.75000   0.33683   0.00000  Uiso   1.00
O692   O     0.03036   0.75000   0.66317   0.00000  Uiso   1.00
O693   O     0.00000   0.71964   0.83683   0.00000  Uiso   1.00
O694   O     0.00000   0.78036   0.16317   0.00000  Uiso   1.00
O695   O     0.28036   0.50000   0.83683   0.00000  Uiso   1.00
O696   O     0.21964   0.50000   0.16317   0.00000  Uiso   1.00
O697   O     0.00000   0.78036   0.83683   0.00000  Uiso   1.00
O698   O     0.00000   0.71964   0.16317   0.00000  Uiso   1.00
O699   O     0.21964   0.50000   0.83683   0.00000  Uiso   1.00
O700   O     0.25000   0.50000   0.75000   0.00000  Uiso   1.00
O701   O     0.28036   0.50000   0.16317   0.00000  Uiso   1.00
O702   O     0.20726   0.57307   0.27282   0.00000  Uiso   1.00
O703   O     0.29275   0.92693   0.72718   0.00000  Uiso   1.00
O704   O     0.42693   0.70726   0.27282   0.00000  Uiso   1.00
O705   O     0.07307   0.79274   0.72718   0.00000  Uiso   1.00
O706   O     0.29275   0.92693   0.27282   0.00000  Uiso   1.00
O707   O     0.20726   0.57307   0.72718   0.00000  Uiso   1.00
O708   O     0.07307   0.79274   0.27282   0.00000  Uiso   1.00
O709   O     0.42693   0.70726   0.72718   0.00000  Uiso   1.00
O710   O     0.20726   0.92693   0.72718   0.00000  Uiso   1.00
O711   O     0.00000   0.75000   0.25000   0.00000  Uiso   1.00
O712   O     0.29275   0.57307   0.27282   0.00000  Uiso   1.00
O713   O     0.42693   0.79275   0.72718   0.00000  Uiso   1.00
O714   O     0.07307   0.70725   0.27282   0.00000  Uiso   1.00
O715   O     0.29275   0.57307   0.72718   0.00000  Uiso   1.00
O716   O     0.20726   0.92693   0.27282   0.00000  Uiso   1.00
O717   O     0.07307   0.70725   0.72718   0.00000  Uiso   1.00
O718   O     0.42693   0.79275   0.27282   0.00000  Uiso   1.00
O719   O     0.45726   0.82307   0.77282   0.00000  Uiso   1.00
O720   O     0.04275   0.67693   0.22718   0.00000  Uiso   1.00
O721   O     0.17693   0.95725   0.77282   0.00000  Uiso   1.00
O722   O     0.00000   0.75000   0.75000   0.00000  Uiso   1.00
O723   O     0.32307   0.54275   0.22718   0.00000  Uiso   1.00
O724   O     0.04275   0.67693   0.77282   0.00000  Uiso   1.00
O725   O     0.45726   0.82307   0.22718   0.00000  Uiso   1.00
O726   O     0.32307   0.54275   0.77282   0.00000  Uiso   1.00
O727   O     0.17693   0.95725   0.22718   0.00000  Uiso   1.00
O728   O     0.45726   0.67693   0.22718   0.00000  Uiso   1.00
O729   O     0.04275   0.82307   0.77282   0.00000  Uiso   1.00
O730   O     0.17693   0.54275   0.22718   0.00000  Uiso   1.00
O731   O     0.32307   0.95725   0.77282   0.00000  Uiso   1.00
O732   O     0.04275   0.82307   0.22718   0.00000  Uiso   1.00
O733   O     0.25000   0.96964   0.33683   0.00000  Uiso   1.00
O734   O     0.45726   0.67693   0.77282   0.00000  Uiso   1.00
O735   O     0.32307   0.95725   0.22718   0.00000  Uiso   1.00
O736   O     0.17693   0.54275   0.77282   0.00000  Uiso   1.00
O737   O     0.25000   0.53036   0.66317   0.00000  Uiso   1.00
O738   O     0.03036   0.75000   0.33683   0.00000  Uiso   1.00
O739   O     0.46964   0.75000   0.66317   0.00000  Uiso   1.00
O740   O     0.25000   0.53036   0.33683   0.00000  Uiso   1.00
Zn741  Zn    0.20660   0.50000   0.21760   0.00000  Uiso   1.00
Zn742  Zn    0.04340   0.75000   0.28240   0.00000  Uiso   1.00
Zn743  Zn    0.25000   0.95660   0.71760   0.00000  Uiso   1.00
Zn744  Zn    0.25000   0.54340   0.28240   0.00000  Uiso   1.00
Zn745  Zn    0.04340   0.75000   0.71760   0.00000  Uiso   1.00
Zn746  Zn    0.45660   0.75000   0.28240   0.00000  Uiso   1.00
Zn747  Zn    0.25000   0.54340   0.71760   0.00000  Uiso   1.00
Zn748  Zn    0.25000   0.95660   0.28240   0.00000  Uiso   1.00
Zn749  Zn    0.29340   0.50000   0.78240   0.00000  Uiso   1.00
Zn750  Zn    0.00000   0.70660   0.21760   0.00000  Uiso   1.00
Zn751  Zn    0.00000   0.79340   0.78240   0.00000  Uiso   1.00
Zn752  Zn    0.29340   0.50000   0.21760   0.00000  Uiso   1.00
Zn753  Zn    0.20660   0.50000   0.78240   0.00000  Uiso   1.00
Zn754  Zn    0.00000   0.79340   0.21760   0.00000  Uiso   1.00
Zn755  Zn    0.00000   0.70660   0.78240   0.00000  Uiso   1.00
Zn756  Zn    0.45660   0.75000   0.71760   0.00000  Uiso   1.00
C757   C     0.71880   0.98907   0.04181   0.00000  Uiso   1.00
C758   C     0.53119   0.73906   0.45819   0.00000  Uiso   1.00
C759   C     0.84814   0.90186   0.75000   0.00000  Uiso   1.00
C760   C     0.90186   0.65186   0.25000   0.00000  Uiso   1.00
C761   C     0.59814   0.84814   0.75000   0.00000  Uiso   1.00
C762   C     0.84814   0.90186   0.25000   0.00000  Uiso   1.00
C763   C     0.65186   0.59814   0.75000   0.00000  Uiso   1.00
C764   C     0.59814   0.65186   0.75000   0.00000  Uiso   1.00
C765   C     0.90186   0.84814   0.25000   0.00000  Uiso   1.00
C766   C     0.65186   0.90186   0.75000   0.00000  Uiso   1.00
C767   C     0.84814   0.59814   0.25000   0.00000  Uiso   1.00
C768   C     0.90186   0.84814   0.75000   0.00000  Uiso   1.00
C769   C     0.73906   0.96880   0.54181   0.00000  Uiso   1.00
C770   C     0.59814   0.65186   0.25000   0.00000  Uiso   1.00
C771   C     0.84814   0.59814   0.75000   0.00000  Uiso   1.00
C772   C     0.65186   0.90186   0.25000   0.00000  Uiso   1.00
C773   C     0.75000   0.50000   0.10245   0.00000  Uiso   1.00
C774   C     0.75000   0.50000   0.89755   0.00000  Uiso   1.00
C775   C     0.50000   0.75000   0.10245   0.00000  Uiso   1.00
C776   C     0.50000   0.75000   0.89755   0.00000  Uiso   1.00
C777   C     0.50000   0.75000   0.60245   0.00000  Uiso   1.00
C778   C     0.50000   0.75000   0.39755   0.00000  Uiso   1.00
C779   C     0.75000   0.50000   0.60245   0.00000  Uiso   1.00
C780   C     0.73907   0.53120   0.45819   0.00000  Uiso   1.00
C781   C     0.75000   0.50000   0.39755   0.00000  Uiso   1.00
C782   C     0.53120   0.76093   0.54181   0.00000  Uiso   1.00
C783   C     0.96881   0.76094   0.45819   0.00000  Uiso   1.00
C784   C     0.76094   0.53120   0.54181   0.00000  Uiso   1.00
C785   C     0.76093   0.96880   0.45819   0.00000  Uiso   1.00
C786   C     0.71872   0.98932   0.08208   0.00000  Uiso   1.00
C787   C     0.78128   0.98932   0.91792   0.00000  Uiso   1.00
C788   C     0.51067   0.71872   0.08208   0.00000  Uiso   1.00
C789   C     0.78120   0.98906   0.95819   0.00000  Uiso   1.00
C790   C     0.51068   0.78128   0.91792   0.00000  Uiso   1.00
C791   C     0.78128   0.51068   0.08208   0.00000  Uiso   1.00
C792   C     0.71872   0.51068   0.91792   0.00000  Uiso   1.00
C793   C     0.98933   0.78128   0.08208   0.00000  Uiso   1.00
C794   C     0.98932   0.71872   0.91792   0.00000  Uiso   1.00
C795   C     0.96872   0.73933   0.58208   0.00000  Uiso   1.00
C796   C     0.53128   0.73932   0.41792   0.00000  Uiso   1.00
C797   C     0.73932   0.96872   0.58208   0.00000  Uiso   1.00
C798   C     0.73933   0.53128   0.41792   0.00000  Uiso   1.00
C799   C     0.53128   0.76067   0.58208   0.00000  Uiso   1.00
C800   C     0.51093   0.71880   0.04181   0.00000  Uiso   1.00
C801   C     0.96872   0.76068   0.41792   0.00000  Uiso   1.00
C802   C     0.76068   0.53128   0.58208   0.00000  Uiso   1.00
C803   C     0.76068   0.96872   0.41792   0.00000  Uiso   1.00
C804   C     0.75000   0.50000   0.02132   0.00000  Uiso   1.00
C805   C     0.75000   0.50000   0.97868   0.00000  Uiso   1.00
C806   C     0.50000   0.75000   0.02132   0.00000  Uiso   1.00
C807   C     0.50000   0.75000   0.97868   0.00000  Uiso   1.00
C808   C     0.50000   0.75000   0.52132   0.00000  Uiso   1.00
C809   C     0.50000   0.75000   0.47868   0.00000  Uiso   1.00
C810   C     0.75000   0.50000   0.52132   0.00000  Uiso   1.00
C811   C     0.51094   0.78119   0.95819   0.00000  Uiso   1.00
C812   C     0.75000   0.50000   0.47868   0.00000  Uiso   1.00
C813   C     0.75000   0.50000   0.35520   0.00000  Uiso   1.00
C814   C     0.75000   0.50000   0.64480   0.00000  Uiso   1.00
C815   C     0.50000   0.75000   0.35520   0.00000  Uiso   1.00
C816   C     0.50000   0.75000   0.64480   0.00000  Uiso   1.00
C817   C     0.50000   0.75000   0.85520   0.00000  Uiso   1.00
C818   C     0.50000   0.75000   0.14480   0.00000  Uiso   1.00
C819   C     0.75000   0.50000   0.85520   0.00000  Uiso   1.00
C820   C     0.75000   0.50000   0.14480   0.00000  Uiso   1.00
C821   C     0.67992   0.57007   0.25000   0.00000  Uiso   1.00
C822   C     0.78120   0.51093   0.04181   0.00000  Uiso   1.00
C823   C     0.82007   0.92992   0.75000   0.00000  Uiso   1.00
C824   C     0.92992   0.67993   0.25000   0.00000  Uiso   1.00
C825   C     0.57007   0.82007   0.75000   0.00000  Uiso   1.00
C826   C     0.82008   0.92993   0.25000   0.00000  Uiso   1.00
C827   C     0.67993   0.57008   0.75000   0.00000  Uiso   1.00
C828   C     0.57008   0.82007   0.25000   0.00000  Uiso   1.00
C829   C     0.92993   0.67992   0.75000   0.00000  Uiso   1.00
C830   C     0.67992   0.92993   0.75000   0.00000  Uiso   1.00
C831   C     0.82007   0.57008   0.25000   0.00000  Uiso   1.00
C832   C     0.92992   0.82007   0.75000   0.00000  Uiso   1.00
C833   C     0.71880   0.51094   0.95819   0.00000  Uiso   1.00
C834   C     0.57007   0.67992   0.25000   0.00000  Uiso   1.00
C835   C     0.82008   0.57007   0.75000   0.00000  Uiso   1.00
C836   C     0.67993   0.92992   0.25000   0.00000  Uiso   1.00
C837   C     0.57008   0.67993   0.75000   0.00000  Uiso   1.00
C838   C     0.92993   0.82008   0.25000   0.00000  Uiso   1.00
C839   C     0.62182   0.90490   0.22513   0.00000  Uiso   1.00
C840   C     0.87816   0.59512   0.77490   0.00000  Uiso   1.00
C841   C     0.59512   0.62184   0.22510   0.00000  Uiso   1.00
C842   C     0.90490   0.87818   0.77487   0.00000  Uiso   1.00
C843   C     0.87818   0.59510   0.22513   0.00000  Uiso   1.00
C844   C     0.98907   0.78120   0.04181   0.00000  Uiso   1.00
C845   C     0.62184   0.90488   0.77490   0.00000  Uiso   1.00
C846   C     0.90488   0.87816   0.22510   0.00000  Uiso   1.00
C847   C     0.59510   0.62182   0.77487   0.00000  Uiso   1.00
C848   C     0.62182   0.59510   0.77487   0.00000  Uiso   1.00
C849   C     0.87816   0.90488   0.22510   0.00000  Uiso   1.00
C850   C     0.59512   0.87816   0.77490   0.00000  Uiso   1.00
C851   C     0.90490   0.62182   0.22513   0.00000  Uiso   1.00
C852   C     0.87818   0.90490   0.77487   0.00000  Uiso   1.00
C853   C     0.62184   0.59512   0.22510   0.00000  Uiso   1.00
C854   C     0.90488   0.62184   0.77490   0.00000  Uiso   1.00
C855   C     0.98906   0.71881   0.95819   0.00000  Uiso   1.00
C856   C     0.59510   0.87818   0.22513   0.00000  Uiso   1.00
C857   C     0.87185   0.65488   0.72509   0.00000  Uiso   1.00
C858   C     0.62818   0.84509   0.27486   0.00000  Uiso   1.00
C859   C     0.84509   0.87182   0.72514   0.00000  Uiso   1.00
C860   C     0.65488   0.62815   0.27491   0.00000  Uiso   1.00
C861   C     0.62815   0.84512   0.72509   0.00000  Uiso   1.00
C862   C     0.87182   0.65491   0.27486   0.00000  Uiso   1.00
C863   C     0.65491   0.62818   0.72514   0.00000  Uiso   1.00
C864   C     0.84513   0.87185   0.27491   0.00000  Uiso   1.00
C865   C     0.87185   0.84512   0.27491   0.00000  Uiso   1.00
C866   C     0.96880   0.73907   0.54181   0.00000  Uiso   1.00
C867   C     0.62818   0.65491   0.72514   0.00000  Uiso   1.00
C868   C     0.84509   0.62818   0.27486   0.00000  Uiso   1.00
C869   C     0.65488   0.87185   0.72509   0.00000  Uiso   1.00
C870   C     0.62815   0.65488   0.27491   0.00000  Uiso   1.00
C871   C     0.87182   0.84509   0.72514   0.00000  Uiso   1.00
C872   C     0.65491   0.87182   0.27486   0.00000  Uiso   1.00
C873   C     0.84513   0.62815   0.72509   0.00000  Uiso   1.00
C874   C     0.59814   0.84814   0.25000   0.00000  Uiso   1.00
C875   C     0.90186   0.65186   0.75000   0.00000  Uiso   1.00
C876   C     0.65186   0.59814   0.25000   0.00000  Uiso   1.00
H877   H     0.69461   0.97988   0.02675   0.00000  Uiso   1.00
H878   H     0.55539   0.72987   0.47326   0.00000  Uiso   1.00
H879   H     0.72988   0.94461   0.52675   0.00000  Uiso   1.00
H880   H     0.72988   0.55539   0.47326   0.00000  Uiso   1.00
H881   H     0.55539   0.77012   0.52675   0.00000  Uiso   1.00
H882   H     0.94461   0.77013   0.47326   0.00000  Uiso   1.00
H883   H     0.77012   0.55539   0.52675   0.00000  Uiso   1.00
H884   H     0.77012   0.94461   0.47326   0.00000  Uiso   1.00
H885   H     0.61892   0.92788   0.20568   0.00000  Uiso   1.00
H886   H     0.88103   0.57216   0.79438   0.00000  Uiso   1.00
H887   H     0.57216   0.61897   0.20562   0.00000  Uiso   1.00
H888   H     0.80539   0.97988   0.97325   0.00000  Uiso   1.00
H889   H     0.92788   0.88108   0.79432   0.00000  Uiso   1.00
H890   H     0.88108   0.57212   0.20568   0.00000  Uiso   1.00
H891   H     0.61897   0.92784   0.79438   0.00000  Uiso   1.00
H892   H     0.92784   0.88103   0.20562   0.00000  Uiso   1.00
H893   H     0.57212   0.61892   0.79432   0.00000  Uiso   1.00
H894   H     0.61892   0.57212   0.79432   0.00000  Uiso   1.00
H895   H     0.88103   0.92784   0.20562   0.00000  Uiso   1.00
H896   H     0.57216   0.88103   0.79438   0.00000  Uiso   1.00
H897   H     0.92788   0.61892   0.20568   0.00000  Uiso   1.00
H898   H     0.88108   0.92788   0.79432   0.00000  Uiso   1.00
H899   H     0.52012   0.69461   0.02675   0.00000  Uiso   1.00
H900   H     0.61897   0.57216   0.20562   0.00000  Uiso   1.00
H901   H     0.92784   0.61897   0.79438   0.00000  Uiso   1.00
H902   H     0.57212   0.88108   0.20568   0.00000  Uiso   1.00
H903   H     0.86897   0.67783   0.70561   0.00000  Uiso   1.00
H904   H     0.63108   0.82211   0.29431   0.00000  Uiso   1.00
H905   H     0.82211   0.86892   0.70569   0.00000  Uiso   1.00
H906   H     0.67783   0.63103   0.29439   0.00000  Uiso   1.00
H907   H     0.63103   0.82217   0.70561   0.00000  Uiso   1.00
H908   H     0.86892   0.67789   0.29431   0.00000  Uiso   1.00
H909   H     0.67789   0.63108   0.70569   0.00000  Uiso   1.00
H910   H     0.52013   0.80539   0.97325   0.00000  Uiso   1.00
H911   H     0.82217   0.86897   0.29439   0.00000  Uiso   1.00
H912   H     0.86897   0.82217   0.29439   0.00000  Uiso   1.00
H913   H     0.63108   0.67789   0.70569   0.00000  Uiso   1.00
H914   H     0.82211   0.63108   0.29431   0.00000  Uiso   1.00
H915   H     0.67783   0.86897   0.70561   0.00000  Uiso   1.00
H916   H     0.63103   0.67783   0.29439   0.00000  Uiso   1.00
H917   H     0.86892   0.82211   0.70569   0.00000  Uiso   1.00
H918   H     0.67789   0.86892   0.29431   0.00000  Uiso   1.00
H919   H     0.82217   0.63103   0.70561   0.00000  Uiso   1.00
H920   H     0.69437   0.98068   0.09726   0.00000  Uiso   1.00
H921   H     0.80539   0.52012   0.02675   0.00000  Uiso   1.00
H922   H     0.80563   0.98068   0.90274   0.00000  Uiso   1.00
H923   H     0.51931   0.69437   0.09726   0.00000  Uiso   1.00
H924   H     0.51933   0.80562   0.90274   0.00000  Uiso   1.00
H925   H     0.80563   0.51932   0.09726   0.00000  Uiso   1.00
H926   H     0.69437   0.51932   0.90274   0.00000  Uiso   1.00
H927   H     0.98069   0.80563   0.09726   0.00000  Uiso   1.00
H928   H     0.98067   0.69438   0.90274   0.00000  Uiso   1.00
H929   H     0.94437   0.73069   0.59726   0.00000  Uiso   1.00
H930   H     0.55562   0.73068   0.40274   0.00000  Uiso   1.00
H931   H     0.73068   0.94437   0.59726   0.00000  Uiso   1.00
H932   H     0.69461   0.52012   0.97325   0.00000  Uiso   1.00
H933   H     0.73069   0.55563   0.40274   0.00000  Uiso   1.00
H934   H     0.55563   0.76931   0.59726   0.00000  Uiso   1.00
H935   H     0.94438   0.76932   0.40274   0.00000  Uiso   1.00
H936   H     0.76932   0.55563   0.59726   0.00000  Uiso   1.00
H937   H     0.76931   0.94437   0.40274   0.00000  Uiso   1.00
H938   H     0.97989   0.80539   0.02675   0.00000  Uiso   1.00
H939   H     0.97987   0.69461   0.97325   0.00000  Uiso   1.00
H940   H     0.94461   0.72988   0.52675   0.00000  Uiso   1.00
O941   O     0.75000   0.50000   0.25000   0.00000  Uiso   1.00
O942   O     0.75000   0.96964   0.66317   0.00000  Uiso   1.00
O943   O     0.96964   0.75000   0.33683   0.00000  Uiso   1.00
O944   O     0.53036   0.75000   0.66317   0.00000  Uiso   1.00
O945   O     0.50000   0.71964   0.83683   0.00000  Uiso   1.00
O946   O     0.50000   0.78036   0.16317   0.00000  Uiso   1.00
O947   O     0.78036   0.50000   0.83683   0.00000  Uiso   1.00
O948   O     0.71964   0.50000   0.16317   0.00000  Uiso   1.00
O949   O     0.50000   0.78036   0.83683   0.00000  Uiso   1.00
O950   O     0.50000   0.71964   0.16317   0.00000  Uiso   1.00
O951   O     0.71964   0.50000   0.83683   0.00000  Uiso   1.00
O952   O     0.75000   0.50000   0.75000   0.00000  Uiso   1.00
O953   O     0.78036   0.50000   0.16317   0.00000  Uiso   1.00
O954   O     0.70726   0.57307   0.27282   0.00000  Uiso   1.00
O955   O     0.79275   0.92693   0.72718   0.00000  Uiso   1.00
O956   O     0.92693   0.70726   0.27282   0.00000  Uiso   1.00
O957   O     0.57307   0.79274   0.72718   0.00000  Uiso   1.00
O958   O     0.79275   0.92693   0.27282   0.00000  Uiso   1.00
O959   O     0.70726   0.57307   0.72718   0.00000  Uiso   1.00
O960   O     0.57307   0.79274   0.27282   0.00000  Uiso   1.00
O961   O     0.92693   0.70726   0.72718   0.00000  Uiso   1.00
O962   O     0.70726   0.92693   0.72718   0.00000  Uiso   1.00
O963   O     0.50000   0.75000   0.25000   0.00000  Uiso   1.00
O964   O     0.79275   0.57307   0.27282   0.00000  Uiso   1.00
O965   O     0.92693   0.79275   0.72718   0.00000  Uiso   1.00
O966   O     0.57307   0.70725   0.27282   0.00000  Uiso   1.00
O967   O     0.79275   0.57307   0.72718   0.00000  Uiso   1.00
O968   O     0.70726   0.92693   0.27282   0.00000  Uiso   1.00
O969   O     0.57307   0.70725   0.72718   0.00000  Uiso   1.00
O970   O     0.92693   0.79275   0.27282   0.00000  Uiso   1.00
O971   O     0.95726   0.82307   0.77282   0.00000  Uiso   1.00
O972   O     0.54275   0.67693   0.22718   0.00000  Uiso   1.00
O973   O     0.67693   0.95725   0.77282   0.00000  Uiso   1.00
O974   O     0.50000   0.75000   0.75000   0.00000  Uiso   1.00
O975   O     0.82307   0.54275   0.22718   0.00000  Uiso   1.00
O976   O     0.54275   0.67693   0.77282   0.00000  Uiso   1.00
O977   O     0.95726   0.82307   0.22718   0.00000  Uiso   1.00
O978   O     0.82307   0.54275   0.77282   0.00000  Uiso   1.00
O979   O     0.67693   0.95725   0.22718   0.00000  Uiso   1.00
O980   O     0.95726   0.67693   0.22718   0.00000  Uiso   1.00
O981   O     0.54275   0.82307   0.77282   0.00000  Uiso   1.00
O982   O     0.67693   0.54275   0.22718   0.00000  Uiso   1.00
O983   O     0.82307   0.95725   0.77282   0.00000  Uiso   1.00
O984   O     0.54275   0.82307   0.22718   0.00000  Uiso   1.00
O985   O     0.75000   0.96964   0.33683   0.00000  Uiso   1.00
O986   O     0.95726   0.67693   0.77282   0.00000  Uiso   1.00
O987   O     0.82307   0.95725   0.22718   0.00000  Uiso   1.00
O988   O     0.67693   0.54275   0.77282   0.00000  Uiso   1.00
O989   O     0.75000   0.53036   0.66317   0.00000  Uiso   1.00
O990   O     0.53036   0.75000   0.33683   0.00000  Uiso   1.00
O991   O     0.96964   0.75000   0.66317   0.00000  Uiso   1.00
O992   O     0.75000   0.53036   0.33683   0.00000  Uiso   1.00
Zn993  Zn    0.70660   0.50000   0.21760   0.00000  Uiso   1.00
Zn994  Zn    0.54340   0.75000   0.28240   0.00000  Uiso   1.00
Zn995  Zn    0.75000   0.95660   0.71760   0.00000  Uiso   1.00
Zn996  Zn    0.75000   0.54340   0.28240   0.00000  Uiso   1.00
Zn997  Zn    0.54340   0.75000   0.71760   0.00000  Uiso   1.00
Zn998  Zn    0.95660   0.75000   0.28240   0.00000  Uiso   1.00
Zn999  Zn    0.75000   0.54340   0.71760   0.00000  Uiso   1.00
Zn1000 Zn    0.75000   0.95660   0.28240   0.00000  Uiso   1.00
Zn1001 Zn    0.79340   0.50000   0.78240   0.00000  Uiso   1.00
Zn1002 Zn    0.50000   0.70660   0.21760   0.00000  Uiso   1.00
Zn1003 Zn    0.50000   0.79340   0.78240   0.00000  Uiso   1.00
Zn1004 Zn    0.79340   0.50000   0.21760   0.00000  Uiso   1.00
Zn1005 Zn    0.70660   0.50000   0.78240   0.00000  Uiso   1.00
Zn1006 Zn    0.50000   0.79340   0.21760   0.00000  Uiso   1.00
Zn1007 Zn    0.50000   0.70660   0.78240   0.00000  Uiso   1.00
Zn1008 Zn    0.95660   0.75000   0.71760   0.00000  Uiso   1.00
loop_
_geom_bond_atom_site_label_1
_geom_bond_atom_site_label_2
_geom_bond_distance
_geom_bond_site_symmetry_2
_ccdc_geom_bond_type
C1     H121    1.083   .     S
C1     C552    1.404   .     A
C1     C30     1.391   .     A
C2     C40     1.391   .     A
C2     H122    1.083   .     S
C2     C53     1.404   .     A
C3     C96     1.402   .     A
C3     C103    1.402   .     A
C3     C67     1.456   .     S
C4     C95     1.402   .     A
C4     C68     1.456   .     S
C4     C106    1.402   .     A
C5     C94     1.402   .     A
C5     C69     1.456   .     S
C5     C105    1.402   .     A
C6     C93     1.402   .     A
C6     C70     1.456   .     S
C6     C108    1.402   .     A
C7     C71     1.456   .     S
C7     C92     1.402   .     A
C7     C107    1.402   .     A
C8     C81     1.456   .     S
C8     C91     1.402   .     A
C8     C111    1.402   .     A
C9     C109    1.402   .     A
C9     C82     1.456   .     S
C9     C90     1.402   .     A
C10    C89     1.402   .     A
C10    C113    1.402   .     A
C10    C74     1.456   .     S
C11    C87     1.402   .     A
C11    C112    1.402   .     A
C11    C75     1.456   .     S
C12    C86     1.402   .     A
C12    C115    1.402   .     A
C12    C76     1.456   .     S
C13    C41     1.391   .     A
C13    H123    1.083   .     S
C13    C558    1.404   .     S
C14    C114    1.402   .     A
C14    C85     1.402   .     A
C14    C78     1.456   .     S
C15    C79     1.456   .     S
C15    C117    1.402   .     A
C15    C84     1.402   .     A
C16    C116    1.402   .     A
C16    C83     1.402   .     A
C16    C80     1.456   .     S
C17    C64     1.463   .     S
C17    C35     1.402   .     A
C17    C534    1.402   1_545 S
C18    C63     1.463   .     S
C18    C36     1.402   .     A
C18    C535    1.402   1_545 S
C19    C289    1.402   1_455 A
C19    C32     1.402   .     S
C19    C62     1.463   .     S
C20    C34     1.402   .     A
C20    C61     1.463   .     S
C20    C290    1.402   1_455 S
C21    C291    1.402   1_455 A
C21    C43     1.402   .     S
C21    C60     1.463   .     S
C22    C40     1.402   .     A
C22    C59     1.463   .     S
C22    C297    1.402   1_455 S
C23    C545    1.402   1_545 A
C23    C46     1.402   .     S
C23    C58     1.463   .     S
C24    C42     1.391   .     A
C24    C56     1.404   .     A
C24    H124    1.083   .     S
C25    C57     1.463   .     S
C25    C42     1.402   .     A
C25    C551    1.402   1_545 S
C26    C43     1.391   .     A
C26    H125    1.083   .     S
C26    C52     1.404   .     S
C27    H126    1.083   .     S
C27    C45     1.391   .     A
C27    C305    1.404   .     S
C28    C46     1.391   .     A
C28    H127    1.083   .     S
C28    C54     1.404   .     A
C29    C47     1.391   .     A
C29    H128    1.083   .     S
C29    C560    1.404   .     S
C30    H164    1.083   .     S
C30    C521    1.402   .     S
C31    C33     1.391   .     A
C31    H166    1.083   .     S
C31    C522    1.402   .     S
C32    C44     1.391   .     A
C32    H167    1.083   .     S
C33    H132    1.083   .     S
C33    C553    1.404   .     S
C34    C55     1.391   .     A
C34    H168    1.083   .     S
C35    C66     1.391   .     A
C35    H169    1.083   .     S
C36    C77     1.391   .     A
C36    H170    1.083   .     S
C37    C88     1.391   .     A
C37    C271    1.402   .     A
C37    H171    1.083   .     S
C38    C99     1.391   .     A
C38    H172    1.083   .     S
C38    C272    1.402   .     S
C39    C110    1.391   .     A
C39    H173    1.083   .     S
C39    C273    1.402   .     A
C40    H174    1.083   .     S
C41    H175    1.083   .     S
C41    C527    1.402   .     A
C42    H177    1.083   .     S
C43    H178    1.083   .     S
C44    H143    1.083   .     S
C44    C50     1.404   .     S
C45    H179    1.083   .     S
C45    C274    1.402   .     S
C46    H180    1.083   .     S
C47    H181    1.083   .     S
C47    C529    1.402   .     S
C48    C505    1.404   1_545 A
C48    C49     1.473   1_554 S
C48    C66     1.404   .     S
C49    C77     1.404   .     A
C49    C48     1.473   1_556 S
C49    C537    1.404   1_545 S
C50    C340    1.404   1_455 A
C50    C51     1.473   1_554 S
C51    C55     1.404   .     A
C51    C50     1.473   1_556 S
C51    C351    1.404   1_455 S
C52    C362    1.404   1_455 A
C52    C53     1.473   .     S
C53    C279    1.404   1_455 S
C54    C56     1.473   .     S
C54    C517    1.404   1_545 S
C55    H154    1.083   .     S
C56    C533    1.404   1_545 S
C57    O236    1.282   .     A
C57    O733    1.282   1_545 S
C58    O233    1.282   .     A
C58    O690    1.282   1_545 S
C59    O234    1.282   .     A
C59    O439    1.282   1_455 S
C60    O188    1.282   .     A
C60    O487    1.282   1_455 S
C61    O193    1.282   .     A
C61    O189    1.282   .     S
C62    O190    1.282   .     A
C62    O194    1.282   .     A
C63    O191    1.282   .     A
C63    O195    1.282   .     A
C64    O197    1.282   .     A
C64    O192    1.282   .     A
C65    O198    1.280   .     A
C65    O226    1.280   .     A
C65    C120    1.456   .     S
C66    H165    1.083   .     S
C67    O199    1.280   .     A
C67    O227    1.280   .     A
C68    O200    1.280   .     A
C68    O224    1.280   .     A
C69    O201    1.280   .     A
C69    O225    1.280   .     A
C70    O231    1.280   .     A
C70    O202    1.280   .     A
C71    O232    1.280   .     A
C71    O203    1.280   .     A
C72    O228    1.280   .     A
C72    C118    1.456   .     S
C72    O204    1.280   .     A
C73    C119    1.456   .     S
C73    O230    1.280   .     A
C73    O205    1.280   .     A
C74    O206    1.280   .     A
C74    O217    1.280   .     A
C75    O219    1.280   .     A
C75    O208    1.280   .     A
C76    O209    1.280   .     A
C76    O215    1.280   .     A
C77    H176    1.083   .     S
C78    O210    1.280   .     A
C78    O216    1.280   .     A
C79    O211    1.280   .     A
C79    O222    1.280   .     A
C80    O212    1.280   .     A
C80    O223    1.280   .     A
C81    O213    1.280   .     A
C81    O220    1.280   .     A
C82    O221    1.280   .     A
C82    O214    1.280   .     A
C83    H129    1.083   .     S
C83    C100    1.386   .     A
C84    C98     1.386   .     A
C84    H130    1.083   .     S
C85    H131    1.083   .     S
C85    C97     1.386   .     A
C86    H133    1.083   .     S
C86    C96     1.386   .     A
C87    C95     1.386   .     A
C87    H134    1.083   .     S
C88    H182    1.083   .     S
C88    C302    1.404   .     A
C89    H135    1.083   .     S
C89    C94     1.386   .     A
C90    C93     1.386   .     A
C90    H136    1.083   .     S
C91    H137    1.083   .     S
C91    C92     1.386   .     A
C92    H138    1.083   .     S
C93    H139    1.083   .     S
C94    H140    1.083   .     S
C95    H141    1.083   .     S
C96    H142    1.083   .     S
C97    H144    1.083   .     S
C97    C120    1.402   .     A
C98    C119    1.402   .     A
C98    H145    1.083   .     S
C99    H183    1.083   .     S
C99    C303    1.404   .     S
C100   C118    1.402   .     A
C100   H146    1.083   .     S
C101   C119    1.402   .     A
C101   H147    1.083   .     S
C101   C117    1.386   .     A
C102   H148    1.083   .     S
C102   C118    1.402   .     A
C102   C116    1.386   .     A
C103   C115    1.386   .     A
C103   H149    1.083   .     S
C104   H150    1.083   .     S
C104   C114    1.386   .     A
C104   C120    1.402   .     A
C105   C113    1.386   .     A
C105   H151    1.083   .     S
C106   C112    1.386   .     A
C106   H152    1.083   .     S
C107   H153    1.083   .     S
C107   C111    1.386   .     A
C108   C109    1.386   .     A
C108   H155    1.083   .     S
C109   H156    1.083   .     S
C110   C304    1.404   .     A
C110   H184    1.083   .     S
C111   H157    1.083   .     S
C112   H158    1.083   .     S
C113   H159    1.083   .     S
C114   H160    1.083   .     S
C115   H161    1.083   .     S
C116   H162    1.083   .     S
C117   H163    1.083   .     S
O185   Zn240   1.946   .     S
O185   Zn248   1.946   .     S
O185   Zn237   1.946   .     S
O185   Zn748   1.946   1_545 S
O186   Zn239   1.940   .     S
O186   C562    1.282   .     S
O187   Zn242   1.940   .     S
O187   C311    1.282   .     S
O188   Zn241   1.940   .     S
O189   Zn251   1.940   .     S
O190   Zn250   1.940   .     S
O191   Zn245   1.940   .     S
O192   Zn237   1.940   .     S
O193   Zn247   1.940   .     S
O194   Zn246   1.940   .     S
O195   Zn249   1.940   .     S
O196   Zn245   1.946   .     S
O196   Zn249   1.946   .     S
O196   Zn743   1.946   1_545 S
O196   Zn243   1.946   .     S
O197   Zn248   1.940   .     S
O198   Zn240   1.937   .     S
O199   Zn239   1.937   .     S
O200   Zn242   1.937   .     S
O201   Zn241   1.937   .     S
O202   Zn244   1.937   .     S
O203   Zn243   1.937   .     S
O204   Zn238   1.937   .     S
O205   Zn252   1.937   .     S
O206   Zn239   1.937   .     S
O207   Zn494   1.946   1_455 S
O207   Zn238   1.946   .     S
O207   Zn246   1.946   .     S
O207   Zn250   1.946   .     S
O208   Zn240   1.937   .     S
O209   Zn252   1.937   .     S
O210   Zn238   1.937   .     S
O211   Zn243   1.937   .     S
O212   Zn244   1.937   .     S
O213   Zn241   1.937   .     S
O214   Zn242   1.937   .     S
O215   Zn499   1.937   .     S
O216   Zn246   1.937   .     S
O217   Zn753   1.937   .     S
O218   Zn241   1.946   .     S
O218   Zn247   1.946   .     S
O218   Zn251   1.946   .     S
O218   Zn504   1.946   1_455 S
O219   Zn248   1.937   .     S
O220   Zn251   1.937   .     S
O221   Zn502   1.937   .     S
O222   Zn245   1.937   .     S
O223   Zn741   1.937   .     S
O224   Zn498   1.937   .     S
O225   Zn247   1.937   .     S
O226   Zn237   1.937   .     S
O227   Zn749   1.937   .     S
O228   Zn250   1.937   .     S
O229   Zn244   1.940   .     S
O229   C561    1.282   .     S
O230   Zn503   1.937   .     S
O231   Zn752   1.937   .     S
O232   Zn249   1.937   .     S
O233   Zn243   1.940   .     S
O234   Zn238   1.940   .     S
O235   Zn252   1.940   .     S
O235   C312    1.282   .     S
O236   Zn240   1.940   .     S
Zn237  O727    1.937   1_545 S
Zn239  O700    1.946   .     S
Zn242  O459    1.946   .     S
Zn244  O689    1.946   .     S
Zn245  O731    1.937   1_545 S
Zn246  O476    1.937   1_455 S
Zn247  O467    1.937   1_455 S
Zn248  O735    1.937   1_545 S
Zn249  O721    1.937   1_545 S
Zn250  O473    1.937   1_455 S
Zn251  O482    1.937   1_455 S
Zn252  O470    1.946   .     S
C253   H373    1.083   .     S
C253   C804    1.404   .     A
C253   C282    1.391   .     A
C254   C292    1.391   .     A
C254   H374    1.083   .     S
C254   C305    1.404   .     A
C255   C348    1.402   .     A
C255   C355    1.402   .     A
C255   C319    1.456   .     S
C256   C347    1.402   .     A
C256   C320    1.456   .     S
C256   C358    1.402   .     A
C257   C346    1.402   .     A
C257   C321    1.456   .     S
C257   C357    1.402   .     A
C258   C345    1.402   .     A
C258   C322    1.456   .     S
C258   C360    1.402   .     A
C259   C323    1.456   .     S
C259   C344    1.402   .     A
C259   C359    1.402   .     A
C260   C333    1.456   .     S
C260   C343    1.402   .     A
C260   C363    1.402   .     A
C261   C361    1.402   .     A
C261   C334    1.456   .     S
C261   C342    1.402   .     A
C262   C341    1.402   .     A
C262   C365    1.402   .     A
C262   C326    1.456   .     S
C263   C339    1.402   .     A
C263   C364    1.402   .     A
C263   C327    1.456   .     S
C264   C338    1.402   .     A
C264   C367    1.402   .     A
C264   C328    1.456   .     S
C265   C293    1.391   .     A
C265   H375    1.083   .     S
C265   C810    1.404   .     S
C266   C366    1.402   .     A
C266   C337    1.402   .     A
C266   C330    1.456   .     S
C267   C331    1.456   .     S
C267   C369    1.402   .     A
C267   C336    1.402   .     A
C268   C368    1.402   .     A
C268   C335    1.402   .     A
C268   C332    1.456   .     S
C269   C316    1.463   .     S
C269   C287    1.402   .     A
C269   C786    1.402   1_545 S
C270   C315    1.463   .     S
C270   C288    1.402   .     A
C270   C787    1.402   1_545 S
C271   C284    1.402   .     S
C271   C314    1.463   .     S
C272   C286    1.402   .     A
C272   C313    1.463   .     S
C273   C295    1.402   .     S
C273   C312    1.463   .     S
C274   C292    1.402   .     A
C274   C311    1.463   .     S
C275   C797    1.402   1_545 A
C275   C298    1.402   .     S
C275   C310    1.463   .     S
C276   C294    1.391   .     A
C276   C308    1.404   .     A
C276   H376    1.083   .     S
C277   C309    1.463   .     S
C277   C294    1.402   .     A
C277   C803    1.402   1_545 S
C278   C295    1.391   .     A
C278   H377    1.083   .     S
C278   C304    1.404   .     S
C279   H378    1.083   .     S
C279   C297    1.391   .     A
C279   C53     1.404   1_655 S
C280   C298    1.391   .     A
C280   H379    1.083   .     S
C280   C306    1.404   .     A
C281   C299    1.391   .     A
C281   H380    1.083   .     S
C281   C812    1.404   .     S
C282   H416    1.083   .     S
C282   C773    1.402   .     S
C283   C285    1.391   .     A
C283   H418    1.083   .     S
C283   C774    1.402   .     S
C284   C296    1.391   .     A
C284   H419    1.083   .     S
C285   H384    1.083   .     S
C285   C805    1.404   .     S
C286   C307    1.391   .     A
C286   H420    1.083   .     S
C287   C318    1.391   .     A
C287   H421    1.083   .     S
C288   C329    1.391   .     A
C288   H422    1.083   .     S
C289   C340    1.391   .     A
C289   C19     1.402   1_655 A
C289   H423    1.083   .     S
C290   C351    1.391   .     A
C290   H424    1.083   .     S
C290   C20     1.402   1_655 S
C291   C362    1.391   .     A
C291   H425    1.083   .     S
C291   C21     1.402   1_655 A
C292   H426    1.083   .     S
C293   H427    1.083   .     S
C293   C779    1.402   .     A
C294   H429    1.083   .     S
C295   H430    1.083   .     S
C296   H395    1.083   .     S
C296   C302    1.404   .     S
C297   H431    1.083   .     S
C297   C22     1.402   1_655 S
C298   H432    1.083   .     S
C299   H433    1.083   .     S
C299   C781    1.402   .     S
C300   C757    1.404   1_545 A
C300   C301    1.473   1_554 S
C300   C318    1.404   .     S
C301   C329    1.404   .     A
C301   C300    1.473   1_556 S
C301   C789    1.404   1_545 S
C302   C303    1.473   1_554 S
C303   C307    1.404   .     A
C303   C302    1.473   1_556 S
C304   C305    1.473   .     S
C306   C308    1.473   .     S
C306   C769    1.404   1_545 S
C307   H406    1.083   .     S
C308   C785    1.404   1_545 S
C309   O488    1.282   .     A
C309   O985    1.282   1_545 S
C310   O485    1.282   .     A
C310   O942    1.282   1_545 S
C311   O486    1.282   .     A
C312   O440    1.282   .     A
C313   O445    1.282   .     A
C313   O441    1.282   .     S
C314   O442    1.282   .     A
C314   O446    1.282   .     A
C315   O443    1.282   .     A
C315   O447    1.282   .     A
C316   O449    1.282   .     A
C316   O444    1.282   .     A
C317   O450    1.280   .     A
C317   O478    1.280   .     A
C317   C372    1.456   .     S
C318   H417    1.083   .     S
C319   O451    1.280   .     A
C319   O479    1.280   .     A
C320   O452    1.280   .     A
C320   O476    1.280   .     A
C321   O453    1.280   .     A
C321   O477    1.280   .     A
C322   O483    1.280   .     A
C322   O454    1.280   .     A
C323   O484    1.280   .     A
C323   O455    1.280   .     A
C324   O480    1.280   .     A
C324   C370    1.456   .     S
C324   O456    1.280   .     A
C325   C371    1.456   .     S
C325   O482    1.280   .     A
C325   O457    1.280   .     A
C326   O458    1.280   .     A
C326   O469    1.280   .     A
C327   O471    1.280   .     A
C327   O460    1.280   .     A
C328   O461    1.280   .     A
C328   O467    1.280   .     A
C329   H428    1.083   .     S
C330   O462    1.280   .     A
C330   O468    1.280   .     A
C331   O463    1.280   .     A
C331   O474    1.280   .     A
C332   O464    1.280   .     A
C332   O475    1.280   .     A
C333   O465    1.280   .     A
C333   O472    1.280   .     A
C334   O473    1.280   .     A
C334   O466    1.280   .     A
C335   H381    1.083   .     S
C335   C352    1.386   .     A
C336   C350    1.386   .     A
C336   H382    1.083   .     S
C337   H383    1.083   .     S
C337   C349    1.386   .     A
C338   H385    1.083   .     S
C338   C348    1.386   .     A
C339   C347    1.386   .     A
C339   H386    1.083   .     S
C340   H434    1.083   .     S
C340   C50     1.404   1_655 A
C341   H387    1.083   .     S
C341   C346    1.386   .     A
C342   C345    1.386   .     A
C342   H388    1.083   .     S
C343   H389    1.083   .     S
C343   C344    1.386   .     A
C344   H390    1.083   .     S
C345   H391    1.083   .     S
C346   H392    1.083   .     S
C347   H393    1.083   .     S
C348   H394    1.083   .     S
C349   H396    1.083   .     S
C349   C372    1.402   .     A
C350   C371    1.402   .     A
C350   H397    1.083   .     S
C351   H435    1.083   .     S
C351   C51     1.404   1_655 S
C352   C370    1.402   .     A
C352   H398    1.083   .     S
C353   C371    1.402   .     A
C353   H399    1.083   .     S
C353   C369    1.386   .     A
C354   H400    1.083   .     S
C354   C370    1.402   .     A
C354   C368    1.386   .     A
C355   C367    1.386   .     A
C355   H401    1.083   .     S
C356   H402    1.083   .     S
C356   C366    1.386   .     A
C356   C372    1.402   .     A
C357   C365    1.386   .     A
C357   H403    1.083   .     S
C358   C364    1.386   .     A
C358   H404    1.083   .     S
C359   H405    1.083   .     S
C359   C363    1.386   .     A
C360   C361    1.386   .     A
C360   H407    1.083   .     S
C361   H408    1.083   .     S
C362   C52     1.404   1_655 A
C362   H436    1.083   .     S
C363   H409    1.083   .     S
C364   H410    1.083   .     S
C365   H411    1.083   .     S
C366   H412    1.083   .     S
C367   H413    1.083   .     S
C368   H414    1.083   .     S
C369   H415    1.083   .     S
O437   Zn492   1.946   .     S
O437   Zn500   1.946   .     S
O437   Zn489   1.946   .     S
O437   Zn1000  1.946   1_545 S
O438   Zn491   1.940   .     S
O438   C814    1.282   .     S
O439   Zn494   1.940   .     S
O439   C59     1.282   1_655 S
O440   Zn493   1.940   .     S
O441   Zn503   1.940   .     S
O442   Zn502   1.940   .     S
O443   Zn497   1.940   .     S
O444   Zn489   1.940   .     S
O445   Zn499   1.940   .     S
O446   Zn498   1.940   .     S
O447   Zn501   1.940   .     S
O448   Zn497   1.946   .     S
O448   Zn501   1.946   .     S
O448   Zn995   1.946   1_545 S
O448   Zn495   1.946   .     S
O449   Zn500   1.940   .     S
O450   Zn492   1.937   .     S
O451   Zn491   1.937   .     S
O452   Zn494   1.937   .     S
O453   Zn493   1.937   .     S
O454   Zn496   1.937   .     S
O455   Zn495   1.937   .     S
O456   Zn490   1.937   .     S
O457   Zn504   1.937   .     S
O458   Zn491   1.937   .     S
O459   Zn490   1.946   .     S
O459   Zn498   1.946   .     S
O459   Zn502   1.946   .     S
O460   Zn492   1.937   .     S
O461   Zn504   1.937   .     S
O462   Zn490   1.937   .     S
O463   Zn495   1.937   .     S
O464   Zn496   1.937   .     S
O465   Zn493   1.937   .     S
O466   Zn494   1.937   .     S
O467   Zn247   1.937   1_655 S
O468   Zn498   1.937   .     S
O469   Zn1005  1.937   .     S
O470   Zn493   1.946   .     S
O470   Zn499   1.946   .     S
O470   Zn503   1.946   .     S
O471   Zn500   1.937   .     S
O472   Zn503   1.937   .     S
O473   Zn250   1.937   1_655 S
O474   Zn497   1.937   .     S
O475   Zn993   1.937   .     S
O476   Zn246   1.937   1_655 S
O477   Zn499   1.937   .     S
O478   Zn489   1.937   .     S
O479   Zn1001  1.937   .     S
O480   Zn502   1.937   .     S
O481   Zn496   1.940   .     S
O481   C813    1.282   .     S
O482   Zn251   1.937   1_655 S
O483   Zn1004  1.937   .     S
O484   Zn501   1.937   .     S
O485   Zn495   1.940   .     S
O486   Zn490   1.940   .     S
O487   Zn504   1.940   .     S
O487   C60     1.282   1_655 S
O488   Zn492   1.940   .     S
Zn489  O979    1.937   1_545 S
Zn491  O952    1.946   .     S
Zn494  O207    1.946   1_655 S
Zn496  O941    1.946   .     S
Zn497  O983    1.937   1_545 S
Zn500  O987    1.937   1_545 S
Zn501  O973    1.937   1_545 S
Zn504  O218    1.946   1_655 S
C505   H625    1.083   .     S
C505   C48     1.404   1_565 A
C505   C534    1.391   .     A
C506   C544    1.391   .     A
C506   H626    1.083   .     S
C506   C557    1.404   .     A
C507   C600    1.402   .     A
C507   C607    1.402   .     A
C507   C571    1.456   .     S
C508   C599    1.402   .     A
C508   C572    1.456   .     S
C508   C610    1.402   .     A
C509   C598    1.402   .     A
C509   C573    1.456   .     S
C509   C609    1.402   .     A
C510   C597    1.402   .     A
C510   C574    1.456   .     S
C510   C612    1.402   .     A
C511   C575    1.456   .     S
C511   C596    1.402   .     A
C511   C611    1.402   .     A
C512   C585    1.456   .     S
C512   C595    1.402   .     A
C512   C615    1.402   .     A
C513   C613    1.402   .     A
C513   C586    1.456   .     S
C513   C594    1.402   .     A
C514   C593    1.402   .     A
C514   C617    1.402   .     A
C514   C578    1.456   .     S
C515   C591    1.402   .     A
C515   C616    1.402   .     A
C515   C579    1.456   .     S
C516   C590    1.402   .     A
C516   C619    1.402   .     A
C516   C580    1.456   .     S
C517   C545    1.391   .     A
C517   H627    1.083   .     S
C517   C54     1.404   1_565 S
C518   C618    1.402   .     A
C518   C589    1.402   .     A
C518   C582    1.456   .     S
C519   C583    1.456   .     S
C519   C621    1.402   .     A
C519   C588    1.402   .     A
C520   C620    1.402   .     A
C520   C587    1.402   .     A
C520   C584    1.456   .     S
C521   C568    1.463   .     S
C521   C539    1.402   .     A
C522   C567    1.463   .     S
C522   C540    1.402   .     A
C523   C793    1.402   1_455 A
C523   C536    1.402   .     S
C523   C566    1.463   .     S
C524   C538    1.402   .     A
C524   C565    1.463   .     S
C524   C794    1.402   1_455 S
C525   C795    1.402   1_455 A
C525   C547    1.402   .     S
C525   C564    1.463   .     S
C526   C544    1.402   .     A
C526   C563    1.463   .     S
C526   C801    1.402   1_455 S
C527   C550    1.402   .     S
C527   C562    1.463   .     S
C528   C546    1.391   .     A
C528   C560    1.404   .     A
C528   H628    1.083   .     S
C529   C561    1.463   .     S
C529   C546    1.402   .     A
C530   C547    1.391   .     A
C530   H629    1.083   .     S
C530   C556    1.404   .     S
C531   H630    1.083   .     S
C531   C549    1.391   .     A
C531   C809    1.404   .     S
C532   C550    1.391   .     A
C532   H631    1.083   .     S
C532   C558    1.404   .     A
C533   C551    1.391   .     A
C533   H632    1.083   .     S
C533   C56     1.404   1_565 S
C534   H668    1.083   .     S
C534   C17     1.402   1_565 S
C535   C537    1.391   .     A
C535   H670    1.083   .     S
C535   C18     1.402   1_565 S
C536   C548    1.391   .     A
C536   H671    1.083   .     S
C537   H636    1.083   .     S
C537   C49     1.404   1_565 S
C538   C559    1.391   .     A
C538   H672    1.083   .     S
C539   C570    1.391   .     A
C539   H673    1.083   .     S
C540   C581    1.391   .     A
C540   H674    1.083   .     S
C541   C592    1.391   .     A
C541   C775    1.402   .     A
C541   H675    1.083   .     S
C542   C603    1.391   .     A
C542   H676    1.083   .     S
C542   C776    1.402   .     S
C543   C614    1.391   .     A
C543   H677    1.083   .     S
C543   C777    1.402   .     A
C544   H678    1.083   .     S
C545   H679    1.083   .     S
C545   C23     1.402   1_565 A
C546   H681    1.083   .     S
C547   H682    1.083   .     S
C548   H647    1.083   .     S
C548   C554    1.404   .     S
C549   H683    1.083   .     S
C549   C778    1.402   .     S
C550   H684    1.083   .     S
C551   H685    1.083   .     S
C551   C25     1.402   1_565 S
C552   C553    1.473   1_554 S
C552   C570    1.404   .     S
C553   C581    1.404   .     A
C553   C552    1.473   1_556 S
C554   C844    1.404   1_455 A
C554   C555    1.473   1_554 S
C555   C559    1.404   .     A
C555   C554    1.473   1_556 S
C555   C855    1.404   1_455 S
C556   C866    1.404   1_455 A
C556   C557    1.473   .     S
C557   C783    1.404   1_455 S
C558   C560    1.473   .     S
C559   H658    1.083   .     S
C561   O740    1.282   .     A
C562   O737    1.282   .     A
C563   O738    1.282   .     A
C563   O943    1.282   1_455 S
C564   O692    1.282   .     A
C564   O991    1.282   1_455 S
C565   O697    1.282   .     A
C565   O693    1.282   .     S
C566   O694    1.282   .     A
C566   O698    1.282   .     A
C567   O695    1.282   .     A
C567   O699    1.282   .     A
C568   O701    1.282   .     A
C568   O696    1.282   .     A
C569   O702    1.280   .     A
C569   O730    1.280   .     A
C569   C624    1.456   .     S
C570   H669    1.083   .     S
C571   O703    1.280   .     A
C571   O731    1.280   .     A
C572   O704    1.280   .     A
C572   O728    1.280   .     A
C573   O705    1.280   .     A
C573   O729    1.280   .     A
C574   O735    1.280   .     A
C574   O706    1.280   .     A
C575   O736    1.280   .     A
C575   O707    1.280   .     A
C576   O732    1.280   .     A
C576   C622    1.456   .     S
C576   O708    1.280   .     A
C577   C623    1.456   .     S
C577   O734    1.280   .     A
C577   O709    1.280   .     A
C578   O710    1.280   .     A
C578   O721    1.280   .     A
C579   O723    1.280   .     A
C579   O712    1.280   .     A
C580   O713    1.280   .     A
C580   O719    1.280   .     A
C581   H680    1.083   .     S
C582   O714    1.280   .     A
C582   O720    1.280   .     A
C583   O715    1.280   .     A
C583   O726    1.280   .     A
C584   O716    1.280   .     A
C584   O727    1.280   .     A
C585   O717    1.280   .     A
C585   O724    1.280   .     A
C586   O725    1.280   .     A
C586   O718    1.280   .     A
C587   H633    1.083   .     S
C587   C604    1.386   .     A
C588   C602    1.386   .     A
C588   H634    1.083   .     S
C589   H635    1.083   .     S
C589   C601    1.386   .     A
C590   H637    1.083   .     S
C590   C600    1.386   .     A
C591   C599    1.386   .     A
C591   H638    1.083   .     S
C592   H686    1.083   .     S
C592   C806    1.404   .     A
C593   H639    1.083   .     S
C593   C598    1.386   .     A
C594   C597    1.386   .     A
C594   H640    1.083   .     S
C595   H641    1.083   .     S
C595   C596    1.386   .     A
C596   H642    1.083   .     S
C597   H643    1.083   .     S
C598   H644    1.083   .     S
C599   H645    1.083   .     S
C600   H646    1.083   .     S
C601   H648    1.083   .     S
C601   C624    1.402   .     A
C602   C623    1.402   .     A
C602   H649    1.083   .     S
C603   H687    1.083   .     S
C603   C807    1.404   .     S
C604   C622    1.402   .     A
C604   H650    1.083   .     S
C605   C623    1.402   .     A
C605   H651    1.083   .     S
C605   C621    1.386   .     A
C606   H652    1.083   .     S
C606   C622    1.402   .     A
C606   C620    1.386   .     A
C607   C619    1.386   .     A
C607   H653    1.083   .     S
C608   H654    1.083   .     S
C608   C618    1.386   .     A
C608   C624    1.402   .     A
C609   C617    1.386   .     A
C609   H655    1.083   .     S
C610   C616    1.386   .     A
C610   H656    1.083   .     S
C611   H657    1.083   .     S
C611   C615    1.386   .     A
C612   C613    1.386   .     A
C612   H659    1.083   .     S
C613   H660    1.083   .     S
C614   C808    1.404   .     A
C614   H688    1.083   .     S
C615   H661    1.083   .     S
C616   H662    1.083   .     S
C617   H663    1.083   .     S
C618   H664    1.083   .     S
C619   H665    1.083   .     S
C620   H666    1.083   .     S
C621   H667    1.083   .     S
O689   Zn744   1.946   .     S
O689   Zn752   1.946   .     S
O689   Zn741   1.946   .     S
O690   Zn743   1.940   .     S
O690   C58     1.282   1_565 S
O691   Zn746   1.940   .     S
O691   C815    1.282   .     S
O692   Zn745   1.940   .     S
O693   Zn755   1.940   .     S
O694   Zn754   1.940   .     S
O695   Zn749   1.940   .     S
O696   Zn741   1.940   .     S
O697   Zn751   1.940   .     S
O698   Zn750   1.940   .     S
O699   Zn753   1.940   .     S
O700   Zn749   1.946   .     S
O700   Zn753   1.946   .     S
O700   Zn747   1.946   .     S
O701   Zn752   1.940   .     S
O702   Zn744   1.937   .     S
O703   Zn743   1.937   .     S
O704   Zn746   1.937   .     S
O705   Zn745   1.937   .     S
O706   Zn748   1.937   .     S
O707   Zn747   1.937   .     S
O708   Zn742   1.937   .     S
O709   Zn756   1.937   .     S
O710   Zn743   1.937   .     S
O711   Zn998   1.946   1_455 S
O711   Zn742   1.946   .     S
O711   Zn750   1.946   .     S
O711   Zn754   1.946   .     S
O712   Zn744   1.937   .     S
O713   Zn756   1.937   .     S
O714   Zn742   1.937   .     S
O715   Zn747   1.937   .     S
O716   Zn748   1.937   .     S
O717   Zn745   1.937   .     S
O718   Zn746   1.937   .     S
O719   Zn1003  1.937   .     S
O720   Zn750   1.937   .     S
O721   Zn249   1.937   1_565 S
O722   Zn745   1.946   .     S
O722   Zn751   1.946   .     S
O722   Zn755   1.946   .     S
O722   Zn1008  1.946   1_455 S
O723   Zn752   1.937   .     S
O724   Zn755   1.937   .     S
O725   Zn1006  1.937   .     S
O726   Zn749   1.937   .     S
O727   Zn237   1.937   1_565 S
O728   Zn1002  1.937   .     S
O729   Zn751   1.937   .     S
O730   Zn741   1.937   .     S
O731   Zn245   1.937   1_565 S
O732   Zn754   1.937   .     S
O733   Zn748   1.940   .     S
O733   C57     1.282   1_565 S
O734   Zn1007  1.937   .     S
O735   Zn248   1.937   1_565 S
O736   Zn753   1.937   .     S
O737   Zn747   1.940   .     S
O738   Zn742   1.940   .     S
O739   Zn756   1.940   .     S
O739   C816    1.282   .     S
O740   Zn744   1.940   .     S
Zn743  O196    1.946   1_565 S
Zn746  O963    1.946   .     S
Zn748  O185    1.946   1_565 S
Zn750  O980    1.937   1_455 S
Zn751  O971    1.937   1_455 S
Zn754  O977    1.937   1_455 S
Zn755  O986    1.937   1_455 S
Zn756  O974    1.946   .     S
C757   H877    1.083   .     S
C757   C300    1.404   1_565 A
C757   C786    1.391   .     A
C758   C796    1.391   .     A
C758   H878    1.083   .     S
C758   C809    1.404   .     A
C759   C852    1.402   .     A
C759   C859    1.402   .     A
C759   C823    1.456   .     S
C760   C851    1.402   .     A
C760   C824    1.456   .     S
C760   C862    1.402   .     A
C761   C850    1.402   .     A
C761   C825    1.456   .     S
C761   C861    1.402   .     A
C762   C849    1.402   .     A
C762   C826    1.456   .     S
C762   C864    1.402   .     A
C763   C827    1.456   .     S
C763   C848    1.402   .     A
C763   C863    1.402   .     A
C764   C837    1.456   .     S
C764   C847    1.402   .     A
C764   C867    1.402   .     A
C765   C865    1.402   .     A
C765   C838    1.456   .     S
C765   C846    1.402   .     A
C766   C845    1.402   .     A
C766   C869    1.402   .     A
C766   C830    1.456   .     S
C767   C843    1.402   .     A
C767   C868    1.402   .     A
C767   C831    1.456   .     S
C768   C842    1.402   .     A
C768   C871    1.402   .     A
C768   C832    1.456   .     S
C769   C797    1.391   .     A
C769   H879    1.083   .     S
C769   C306    1.404   1_565 S
C770   C870    1.402   .     A
C770   C841    1.402   .     A
C770   C834    1.456   .     S
C771   C835    1.456   .     S
C771   C873    1.402   .     A
C771   C840    1.402   .     A
C772   C872    1.402   .     A
C772   C839    1.402   .     A
C772   C836    1.456   .     S
C773   C820    1.463   .     S
C773   C791    1.402   .     A
C774   C819    1.463   .     S
C774   C792    1.402   .     A
C775   C788    1.402   .     S
C775   C818    1.463   .     S
C776   C790    1.402   .     A
C776   C817    1.463   .     S
C777   C799    1.402   .     S
C777   C816    1.463   .     S
C778   C796    1.402   .     A
C778   C815    1.463   .     S
C779   C802    1.402   .     S
C779   C814    1.463   .     S
C780   C798    1.391   .     A
C780   C812    1.404   .     A
C780   H880    1.083   .     S
C781   C813    1.463   .     S
C781   C798    1.402   .     A
C782   C799    1.391   .     A
C782   H881    1.083   .     S
C782   C808    1.404   .     S
C783   H882    1.083   .     S
C783   C801    1.391   .     A
C783   C557    1.404   1_655 S
C784   C802    1.391   .     A
C784   H883    1.083   .     S
C784   C810    1.404   .     A
C785   C803    1.391   .     A
C785   H884    1.083   .     S
C785   C308    1.404   1_565 S
C786   H920    1.083   .     S
C786   C269    1.402   1_565 S
C787   C789    1.391   .     A
C787   H922    1.083   .     S
C787   C270    1.402   1_565 S
C788   C800    1.391   .     A
C788   H923    1.083   .     S
C789   H888    1.083   .     S
C789   C301    1.404   1_565 S
C790   C811    1.391   .     A
C790   H924    1.083   .     S
C791   C822    1.391   .     A
C791   H925    1.083   .     S
C792   C833    1.391   .     A
C792   H926    1.083   .     S
C793   C844    1.391   .     A
C793   C523    1.402   1_655 A
C793   H927    1.083   .     S
C794   C855    1.391   .     A
C794   H928    1.083   .     S
C794   C524    1.402   1_655 S
C795   C866    1.391   .     A
C795   H929    1.083   .     S
C795   C525    1.402   1_655 A
C796   H930    1.083   .     S
C797   H931    1.083   .     S
C797   C275    1.402   1_565 A
C798   H933    1.083   .     S
C799   H934    1.083   .     S
C800   H899    1.083   .     S
C800   C806    1.404   .     S
C801   H935    1.083   .     S
C801   C526    1.402   1_655 S
C802   H936    1.083   .     S
C803   H937    1.083   .     S
C803   C277    1.402   1_565 S
C804   C805    1.473   1_554 S
C804   C822    1.404   .     S
C805   C833    1.404   .     A
C805   C804    1.473   1_556 S
C806   C807    1.473   1_554 S
C807   C811    1.404   .     A
C807   C806    1.473   1_556 S
C808   C809    1.473   .     S
C810   C812    1.473   .     S
C811   H910    1.083   .     S
C813   O992    1.282   .     A
C814   O989    1.282   .     A
C815   O990    1.282   .     A
C816   O944    1.282   .     A
C817   O949    1.282   .     A
C817   O945    1.282   .     S
C818   O946    1.282   .     A
C818   O950    1.282   .     A
C819   O947    1.282   .     A
C819   O951    1.282   .     A
C820   O953    1.282   .     A
C820   O948    1.282   .     A
C821   O954    1.280   .     A
C821   O982    1.280   .     A
C821   C876    1.456   .     S
C822   H921    1.083   .     S
C823   O955    1.280   .     A
C823   O983    1.280   .     A
C824   O956    1.280   .     A
C824   O980    1.280   .     A
C825   O957    1.280   .     A
C825   O981    1.280   .     A
C826   O987    1.280   .     A
C826   O958    1.280   .     A
C827   O988    1.280   .     A
C827   O959    1.280   .     A
C828   O984    1.280   .     A
C828   C874    1.456   .     S
C828   O960    1.280   .     A
C829   C875    1.456   .     S
C829   O986    1.280   .     A
C829   O961    1.280   .     A
C830   O962    1.280   .     A
C830   O973    1.280   .     A
C831   O975    1.280   .     A
C831   O964    1.280   .     A
C832   O965    1.280   .     A
C832   O971    1.280   .     A
C833   H932    1.083   .     S
C834   O966    1.280   .     A
C834   O972    1.280   .     A
C835   O967    1.280   .     A
C835   O978    1.280   .     A
C836   O968    1.280   .     A
C836   O979    1.280   .     A
C837   O969    1.280   .     A
C837   O976    1.280   .     A
C838   O977    1.280   .     A
C838   O970    1.280   .     A
C839   H885    1.083   .     S
C839   C856    1.386   .     A
C840   C854    1.386   .     A
C840   H886    1.083   .     S
C841   H887    1.083   .     S
C841   C853    1.386   .     A
C842   H889    1.083   .     S
C842   C852    1.386   .     A
C843   C851    1.386   .     A
C843   H890    1.083   .     S
C844   H938    1.083   .     S
C844   C554    1.404   1_655 A
C845   H891    1.083   .     S
C845   C850    1.386   .     A
C846   C849    1.386   .     A
C846   H892    1.083   .     S
C847   H893    1.083   .     S
C847   C848    1.386   .     A
C848   H894    1.083   .     S
C849   H895    1.083   .     S
C850   H896    1.083   .     S
C851   H897    1.083   .     S
C852   H898    1.083   .     S
C853   H900    1.083   .     S
C853   C876    1.402   .     A
C854   C875    1.402   .     A
C854   H901    1.083   .     S
C855   H939    1.083   .     S
C855   C555    1.404   1_655 S
C856   C874    1.402   .     A
C856   H902    1.083   .     S
C857   C875    1.402   .     A
C857   H903    1.083   .     S
C857   C873    1.386   .     A
C858   H904    1.083   .     S
C858   C874    1.402   .     A
C858   C872    1.386   .     A
C859   C871    1.386   .     A
C859   H905    1.083   .     S
C860   H906    1.083   .     S
C860   C870    1.386   .     A
C860   C876    1.402   .     A
C861   C869    1.386   .     A
C861   H907    1.083   .     S
C862   C868    1.386   .     A
C862   H908    1.083   .     S
C863   H909    1.083   .     S
C863   C867    1.386   .     A
C864   C865    1.386   .     A
C864   H911    1.083   .     S
C865   H912    1.083   .     S
C866   C556    1.404   1_655 A
C866   H940    1.083   .     S
C867   H913    1.083   .     S
C868   H914    1.083   .     S
C869   H915    1.083   .     S
C870   H916    1.083   .     S
C871   H917    1.083   .     S
C872   H918    1.083   .     S
C873   H919    1.083   .     S
O941   Zn996   1.946   .     S
O941   Zn1004  1.946   .     S
O941   Zn993   1.946   .     S
O942   Zn995   1.940   .     S
O942   C310    1.282   1_565 S
O943   Zn998   1.940   .     S
O943   C563    1.282   1_655 S
O944   Zn997   1.940   .     S
O945   Zn1007  1.940   .     S
O946   Zn1006  1.940   .     S
O947   Zn1001  1.940   .     S
O948   Zn993   1.940   .     S
O949   Zn1003  1.940   .     S
O950   Zn1002  1.940   .     S
O951   Zn1005  1.940   .     S
O952   Zn1001  1.946   .     S
O952   Zn1005  1.946   .     S
O952   Zn999   1.946   .     S
O953   Zn1004  1.940   .     S
O954   Zn996   1.937   .     S
O955   Zn995   1.937   .     S
O956   Zn998   1.937   .     S
O957   Zn997   1.937   .     S
O958   Zn1000  1.937   .     S
O959   Zn999   1.937   .     S
O960   Zn994   1.937   .     S
O961   Zn1008  1.937   .     S
O962   Zn995   1.937   .     S
O963   Zn994   1.946   .     S
O963   Zn1002  1.946   .     S
O963   Zn1006  1.946   .     S
O964   Zn996   1.937   .     S
O965   Zn1008  1.937   .     S
O966   Zn994   1.937   .     S
O967   Zn999   1.937   .     S
O968   Zn1000  1.937   .     S
O969   Zn997   1.937   .     S
O970   Zn998   1.937   .     S
O971   Zn751   1.937   1_655 S
O972   Zn1002  1.937   .     S
O973   Zn501   1.937   1_565 S
O974   Zn997   1.946   .     S
O974   Zn1003  1.946   .     S
O974   Zn1007  1.946   .     S
O975   Zn1004  1.937   .     S
O976   Zn1007  1.937   .     S
O977   Zn754   1.937   1_655 S
O978   Zn1001  1.937   .     S
O979   Zn489   1.937   1_565 S
O980   Zn750   1.937   1_655 S
O981   Zn1003  1.937   .     S
O982   Zn993   1.937   .     S
O983   Zn497   1.937   1_565 S
O984   Zn1006  1.937   .     S
O985   Zn1000  1.940   .     S
O985   C309    1.282   1_565 S
O986   Zn755   1.937   1_655 S
O987   Zn500   1.937   1_565 S
O988   Zn1005  1.937   .     S
O989   Zn999   1.940   .     S
O990   Zn994   1.940   .     S
O991   Zn1008  1.940   .     S
O991   C564    1.282   1_655 S
O992   Zn996   1.940   .     S
Zn995  O448    1.946   1_565 S
Zn998  O711    1.946   1_655 S
Zn1000 O437    1.946   1_565 S
Zn1008 O722    1.946   1_655 S
