data_str_m1_o1_o2_pcu_sym.75
_audit_creation_date              2020-01-03
_audit_creation_method            'Materials Studio'
_symmetry_space_group_name_H-M    'P1'
_symmetry_Int_Tables_number       1
_symmetry_cell_setting            triclinic
loop_
_symmetry_equiv_pos_as_xyz
  x,y,z
_cell_length_a                    36.6981
_cell_length_b                    36.6980
_cell_length_c                    34.4190
_cell_angle_alpha                 90.0002
_cell_angle_beta                  90.0002
_cell_angle_gamma                 90.0001
loop_
_atom_site_label
_atom_site_type_symbol
_atom_site_fract_x
_atom_site_fract_y
_atom_site_fract_z
_atom_site_U_iso_or_equiv
_atom_site_adp_type
_atom_site_occupancy
C1     C     0.23629   0.03003   0.04159   0.00000  Uiso   1.00
C2     C     0.01383   0.27997   0.45842   0.00000  Uiso   1.00
C3     C     0.34815   0.40185   0.75000   0.00000  Uiso   1.00
C4     C     0.40186   0.15187   0.25000   0.00000  Uiso   1.00
C5     C     0.09815   0.34815   0.75000   0.00000  Uiso   1.00
C6     C     0.34814   0.40186   0.25000   0.00000  Uiso   1.00
C7     C     0.15185   0.09815   0.75000   0.00000  Uiso   1.00
C8     C     0.09814   0.15186   0.75000   0.00000  Uiso   1.00
C9     C     0.40185   0.34815   0.25000   0.00000  Uiso   1.00
C10    C     0.15186   0.40186   0.75000   0.00000  Uiso   1.00
C11    C     0.34815   0.09815   0.25000   0.00000  Uiso   1.00
C12    C     0.40186   0.34814   0.75000   0.00000  Uiso   1.00
C13    C     0.21993   0.48638   0.54159   0.00000  Uiso   1.00
C14    C     0.09815   0.15185   0.25000   0.00000  Uiso   1.00
C15    C     0.34814   0.09814   0.75000   0.00000  Uiso   1.00
C16    C     0.15185   0.40185   0.25000   0.00000  Uiso   1.00
C17    C     0.25000   0.00000   0.10261   0.00000  Uiso   1.00
C18    C     0.25000   0.00000   0.89739   0.00000  Uiso   1.00
C19    C     0.00000   0.25000   0.10261   0.00000  Uiso   1.00
C20    C     0.00000   0.25000   0.89739   0.00000  Uiso   1.00
C21    C    -0.00000   0.25000   0.60261   0.00000  Uiso   1.00
C22    C     0.00000   0.25000   0.39740   0.00000  Uiso   1.00
C23    C     0.25000  -0.00000   0.60261   0.00000  Uiso   1.00
C24    C     0.22001   0.01377   0.45842   0.00000  Uiso   1.00
C25    C     0.25000   0.00000   0.39740   0.00000  Uiso   1.00
C26    C     0.22210   0.06431   0.10256   0.00000  Uiso   1.00
C27    C     0.18044   0.06344   0.10576   0.00000  Uiso   1.00
C28    C     0.16618   0.09652   0.12791   0.00000  Uiso   1.00
C29    C     0.27781   0.06435   0.89743   0.00000  Uiso   1.00
C30    C     0.31947   0.06353   0.89423   0.00000  Uiso   1.00
C31    C     0.33368   0.09663   0.87208   0.00000  Uiso   1.00
C32    C     0.43572   0.22203   0.10256   0.00000  Uiso   1.00
C33    C     0.43664   0.18037   0.10576   0.00000  Uiso   1.00
C34    C     0.40358   0.16608   0.12794   0.00000  Uiso   1.00
C35    C     0.01358   0.21992   0.54160   0.00000  Uiso   1.00
C36    C     0.43563   0.27776   0.89743   0.00000  Uiso   1.00
C37    C     0.43641   0.31942   0.89422   0.00000  Uiso   1.00
C38    C     0.40331   0.33360   0.87206   0.00000  Uiso   1.00
C39    C     0.27790   0.43569   0.10256   0.00000  Uiso   1.00
C40    C     0.31956   0.43655   0.10575   0.00000  Uiso   1.00
C41    C     0.33381   0.40347   0.12790   0.00000  Uiso   1.00
C42    C     0.22219   0.43565   0.89743   0.00000  Uiso   1.00
C43    C     0.18053   0.43647   0.89423   0.00000  Uiso   1.00
C44    C     0.16631   0.40338   0.87207   0.00000  Uiso   1.00
C45    C     0.06428   0.27798   0.10256   0.00000  Uiso   1.00
C46    C     0.48617   0.22003   0.45842   0.00000  Uiso   1.00
C47    C     0.06335   0.31964   0.10577   0.00000  Uiso   1.00
C48    C     0.09640   0.33393   0.12796   0.00000  Uiso   1.00
C49    C     0.06437   0.22224   0.89743   0.00000  Uiso   1.00
C50    C     0.06358   0.18058   0.89423   0.00000  Uiso   1.00
C51    C     0.09668   0.16640   0.87205   0.00000  Uiso   1.00
C52    C     0.47235   0.31441   0.60258   0.00000  Uiso   1.00
C53    C     0.43069   0.31368   0.60580   0.00000  Uiso   1.00
C54    C     0.41655   0.34679   0.62799   0.00000  Uiso   1.00
C55    C     0.02817   0.31420   0.39745   0.00000  Uiso   1.00
C56    C     0.06982   0.31315   0.39424   0.00000  Uiso   1.00
C57    C     0.28007   0.01361   0.54159   0.00000  Uiso   1.00
C58    C     0.08421   0.34619   0.37212   0.00000  Uiso   1.00
C59    C     0.18561   0.47229   0.60257   0.00000  Uiso   1.00
C60    C     0.18637   0.43063   0.60579   0.00000  Uiso   1.00
C61    C     0.15327   0.41647   0.62797   0.00000  Uiso   1.00
C62    C     0.18575   0.02804   0.39745   0.00000  Uiso   1.00
C63    C     0.18672   0.06970   0.39426   0.00000  Uiso   1.00
C64    C     0.15364   0.08403   0.37216   0.00000  Uiso   1.00
C65    C     0.02765   0.18559   0.60258   0.00000  Uiso   1.00
C66    C     0.06931   0.18632   0.60580   0.00000  Uiso   1.00
C67    C     0.08344   0.15321   0.62799   0.00000  Uiso   1.00
C68    C     0.27999   0.48622   0.45842   0.00000  Uiso   1.00
C69    C     0.47184   0.18580   0.39745   0.00000  Uiso   1.00
C70    C     0.43018   0.18685   0.39424   0.00000  Uiso   1.00
C71    C     0.41579   0.15379   0.37214   0.00000  Uiso   1.00
C72    C     0.31439   0.02772   0.60257   0.00000  Uiso   1.00
C73    C     0.31361   0.06938   0.60579   0.00000  Uiso   1.00
C74    C     0.34672   0.08354   0.62796   0.00000  Uiso   1.00
C75    C     0.31425   0.47197   0.39745   0.00000  Uiso   1.00
C76    C     0.31330   0.43031   0.39426   0.00000  Uiso   1.00
C77    C     0.34637   0.41598   0.37215   0.00000  Uiso   1.00
C78    C     0.23621   0.03052   0.08217   0.00000  Uiso   1.00
C79    C     0.26374   0.03054   0.91783   0.00000  Uiso   1.00
C80    C     0.46950   0.23618   0.08217   0.00000  Uiso   1.00
C81    C     0.26366   0.03005   0.95841   0.00000  Uiso   1.00
C82    C     0.46945   0.26372   0.91783   0.00000  Uiso   1.00
C83    C     0.26379   0.46948   0.08217   0.00000  Uiso   1.00
C84    C     0.23626   0.46946   0.91783   0.00000  Uiso   1.00
C85    C     0.03050   0.26383   0.08217   0.00000  Uiso   1.00
C86    C     0.03055   0.23628   0.91783   0.00000  Uiso   1.00
C87    C     0.48634   0.28057   0.58218   0.00000  Uiso   1.00
C88    C     0.01391   0.28046   0.41784   0.00000  Uiso   1.00
C89    C     0.21944   0.48631   0.58218   0.00000  Uiso   1.00
C90    C     0.21951   0.01385   0.41784   0.00000  Uiso   1.00
C91    C     0.01366   0.21943   0.58218   0.00000  Uiso   1.00
C92    C     0.46999   0.23626   0.04159   0.00000  Uiso   1.00
C93    C     0.48609   0.21954   0.41784   0.00000  Uiso   1.00
C94    C     0.28056   0.01369   0.58217   0.00000  Uiso   1.00
C95    C     0.28049   0.48615   0.41783   0.00000  Uiso   1.00
C96    C     0.25000   0.00000   0.02130   0.00000  Uiso   1.00
C97    C     0.25000   0.00000   0.97870   0.00000  Uiso   1.00
C98    C     0.00000   0.25000   0.02130   0.00000  Uiso   1.00
C99    C     0.00000   0.25000   0.97869   0.00000  Uiso   1.00
C100   C     0.00000   0.25000   0.52131   0.00000  Uiso   1.00
C101   C     0.00000   0.25000   0.47870   0.00000  Uiso   1.00
C102   C     0.25000  -0.00000   0.52131   0.00000  Uiso   1.00
C103   C     0.46995   0.26364   0.95841   0.00000  Uiso   1.00
C104   C     0.25000  -0.00000   0.47870   0.00000  Uiso   1.00
C105   C     0.25000   0.00000   0.35505   0.00000  Uiso   1.00
C106   C     0.25000   0.00000   0.64495   0.00000  Uiso   1.00
C107   C     0.00000   0.25000   0.35505   0.00000  Uiso   1.00
C108   C    -0.00000   0.25000   0.64495   0.00000  Uiso   1.00
C109   C     0.00000   0.25000   0.85505   0.00000  Uiso   1.00
C110   C     0.00000   0.25000   0.14495   0.00000  Uiso   1.00
C111   C     0.25000   0.00000   0.85505   0.00000  Uiso   1.00
C112   C     0.25000   0.00000   0.14495   0.00000  Uiso   1.00
C113   C     0.17992   0.07008   0.25000   0.00000  Uiso   1.00
C114   C     0.26371   0.46998   0.04159   0.00000  Uiso   1.00
C115   C     0.32009   0.42991   0.75000   0.00000  Uiso   1.00
C116   C     0.42992   0.17992   0.25000   0.00000  Uiso   1.00
C117   C     0.07009   0.32009   0.75000   0.00000  Uiso   1.00
C118   C     0.32008   0.42992   0.25000   0.00000  Uiso   1.00
C119   C     0.17991   0.07009   0.75000   0.00000  Uiso   1.00
C120   C     0.07008   0.32008   0.25000   0.00000  Uiso   1.00
C121   C     0.42991   0.17991   0.75000   0.00000  Uiso   1.00
C122   C     0.17992   0.42992   0.75000   0.00000  Uiso   1.00
C123   C     0.32009   0.07009   0.25000   0.00000  Uiso   1.00
C124   C     0.42992   0.32008   0.75000   0.00000  Uiso   1.00
C125   C     0.23634   0.46996   0.95841   0.00000  Uiso   1.00
C126   C     0.07009   0.17991   0.25000   0.00000  Uiso   1.00
C127   C     0.32008   0.07008   0.75000   0.00000  Uiso   1.00
C128   C     0.17991   0.42991   0.25000   0.00000  Uiso   1.00
C129   C     0.07008   0.17992   0.75000   0.00000  Uiso   1.00
C130   C     0.42991   0.32009   0.25000   0.00000  Uiso   1.00
C131   C     0.12172   0.40498   0.22519   0.00000  Uiso   1.00
C132   C     0.37817   0.09510   0.77495   0.00000  Uiso   1.00
C133   C     0.09511   0.12180   0.22506   0.00000  Uiso   1.00
C134   C     0.40490   0.37816   0.77496   0.00000  Uiso   1.00
C135   C     0.37826   0.09504   0.22515   0.00000  Uiso   1.00
C136   C     0.03001   0.26375   0.04159   0.00000  Uiso   1.00
C137   C     0.12183   0.40491   0.77495   0.00000  Uiso   1.00
C138   C     0.40489   0.37820   0.22506   0.00000  Uiso   1.00
C139   C     0.09510   0.12184   0.77496   0.00000  Uiso   1.00
C140   C     0.12184   0.09515   0.77501   0.00000  Uiso   1.00
C141   C     0.37821   0.40494   0.22510   0.00000  Uiso   1.00
C142   C     0.09514   0.37816   0.77499   0.00000  Uiso   1.00
C143   C     0.40500   0.12173   0.22520   0.00000  Uiso   1.00
C144   C     0.37815   0.40485   0.77501   0.00000  Uiso   1.00
C145   C     0.12179   0.09506   0.22510   0.00000  Uiso   1.00
C146   C     0.40486   0.12184   0.77500   0.00000  Uiso   1.00
C147   C     0.03006   0.23636   0.95841   0.00000  Uiso   1.00
C148   C     0.09498   0.37829   0.22523   0.00000  Uiso   1.00
C149   C     0.37184   0.15485   0.72500   0.00000  Uiso   1.00
C150   C     0.12830   0.34497   0.27475   0.00000  Uiso   1.00
C151   C     0.34515   0.37185   0.72499   0.00000  Uiso   1.00
C152   C     0.15494   0.12821   0.27489   0.00000  Uiso   1.00
C153   C     0.12816   0.34514   0.72500   0.00000  Uiso   1.00
C154   C     0.37172   0.15501   0.27479   0.00000  Uiso   1.00
C155   C     0.15485   0.12815   0.72499   0.00000  Uiso   1.00
C156   C     0.34506   0.37179   0.27489   0.00000  Uiso   1.00
C157   C     0.37180   0.34510   0.27494   0.00000  Uiso   1.00
C158   C     0.48642   0.28008   0.54159   0.00000  Uiso   1.00
C159   C     0.12816   0.15489   0.72503   0.00000  Uiso   1.00
C160   C     0.34504   0.12827   0.27484   0.00000  Uiso   1.00
C161   C     0.15490   0.37183   0.72505   0.00000  Uiso   1.00
C162   C     0.12820   0.15490   0.27494   0.00000  Uiso   1.00
C163   C     0.37184   0.34511   0.72503   0.00000  Uiso   1.00
C164   C     0.15499   0.37171   0.27480   0.00000  Uiso   1.00
C165   C     0.34510   0.12817   0.72504   0.00000  Uiso   1.00
C166   C     0.09814   0.34813   0.24999   0.00000  Uiso   1.00
C167   C     0.40185   0.15185   0.75000   0.00000  Uiso   1.00
C168   C     0.15186   0.09814   0.25000   0.00000  Uiso   1.00
H169   H     0.11875   0.42802   0.20578   0.00000  Uiso   1.00
H170   H     0.38112   0.42794   0.20562   0.00000  Uiso   1.00
H171   H     0.09533   0.13623   0.87005   0.00000  Uiso   1.00
H172   H     0.06339   0.16835   0.92378   0.00000  Uiso   1.00
H173   H     0.03848   0.17174   0.87881   0.00000  Uiso   1.00
H174   H     0.06723   0.23447   0.86807   0.00000  Uiso   1.00
H175   H     0.08899   0.23078   0.91395   0.00000  Uiso   1.00
H176   H     0.42798   0.34725   0.65787   0.00000  Uiso   1.00
H177   H     0.42427   0.37230   0.61269   0.00000  Uiso   1.00
H178   H     0.38638   0.34548   0.63000   0.00000  Uiso   1.00
H179   H     0.41845   0.31350   0.57625   0.00000  Uiso   1.00
H180   H     0.42182   0.28859   0.62121   0.00000  Uiso   1.00
H181   H     0.07220   0.38103   0.79456   0.00000  Uiso   1.00
H182   H     0.48459   0.31726   0.63193   0.00000  Uiso   1.00
H183   H     0.48091   0.33902   0.58606   0.00000  Uiso   1.00
H184   H     0.07274   0.34683   0.34226   0.00000  Uiso   1.00
H185   H     0.07676   0.37173   0.38750   0.00000  Uiso   1.00
H186   H     0.11437   0.34461   0.37003   0.00000  Uiso   1.00
H187   H     0.08205   0.31284   0.42379   0.00000  Uiso   1.00
H188   H     0.07849   0.28802   0.37879   0.00000  Uiso   1.00
H189   H     0.01594   0.31714   0.36810   0.00000  Uiso   1.00
H190   H     0.01978   0.33887   0.41398   0.00000  Uiso   1.00
H191   H     0.15279   0.42789   0.65786   0.00000  Uiso   1.00
H192   H     0.42805   0.11877   0.20580   0.00000  Uiso   1.00
H193   H     0.12775   0.42417   0.61267   0.00000  Uiso   1.00
H194   H     0.15460   0.38630   0.62998   0.00000  Uiso   1.00
H195   H     0.18656   0.41840   0.57624   0.00000  Uiso   1.00
H196   H     0.21147   0.42178   0.62120   0.00000  Uiso   1.00
H197   H     0.18276   0.48453   0.63193   0.00000  Uiso   1.00
H198   H     0.16100   0.48084   0.58606   0.00000  Uiso   1.00
H199   H     0.15302   0.07259   0.34228   0.00000  Uiso   1.00
H200   H     0.12813   0.07650   0.38754   0.00000  Uiso   1.00
H201   H     0.15515   0.11419   0.37011   0.00000  Uiso   1.00
H202   H     0.18702   0.08192   0.42382   0.00000  Uiso   1.00
H203   H     0.38101   0.42778   0.79458   0.00000  Uiso   1.00
H204   H     0.21183   0.07843   0.37880   0.00000  Uiso   1.00
H205   H     0.18284   0.01583   0.36809   0.00000  Uiso   1.00
H206   H     0.16110   0.01960   0.41397   0.00000  Uiso   1.00
H207   H     0.07202   0.15275   0.65788   0.00000  Uiso   1.00
H208   H     0.07573   0.12770   0.61270   0.00000  Uiso   1.00
H209   H     0.11361   0.15452   0.63001   0.00000  Uiso   1.00
H210   H     0.08155   0.18649   0.57625   0.00000  Uiso   1.00
H211   H     0.07818   0.21142   0.62121   0.00000  Uiso   1.00
H212   H     0.01540   0.18274   0.63193   0.00000  Uiso   1.00
H213   H     0.01909   0.16098   0.58606   0.00000  Uiso   1.00
H214   H     0.11888   0.07206   0.20562   0.00000  Uiso   1.00
H215   H     0.42727   0.15313   0.34228   0.00000  Uiso   1.00
H216   H     0.42324   0.12826   0.38754   0.00000  Uiso   1.00
H217   H     0.38564   0.15538   0.37005   0.00000  Uiso   1.00
H218   H     0.41795   0.18717   0.42379   0.00000  Uiso   1.00
H219   H     0.42151   0.21197   0.37878   0.00000  Uiso   1.00
H220   H     0.48406   0.18285   0.36810   0.00000  Uiso   1.00
H221   H     0.48022   0.16113   0.41398   0.00000  Uiso   1.00
H222   H     0.34720   0.07212   0.65785   0.00000  Uiso   1.00
H223   H     0.37223   0.07585   0.61265   0.00000  Uiso   1.00
H224   H     0.34538   0.11371   0.62997   0.00000  Uiso   1.00
H225   H     0.42779   0.11898   0.79457   0.00000  Uiso   1.00
H226   H     0.31342   0.08161   0.57623   0.00000  Uiso   1.00
H227   H     0.28852   0.07822   0.62120   0.00000  Uiso   1.00
H228   H     0.31724   0.01548   0.63193   0.00000  Uiso   1.00
H229   H     0.33900   0.01917   0.58605   0.00000  Uiso   1.00
H230   H     0.34697   0.42742   0.34227   0.00000  Uiso   1.00
H231   H     0.37189   0.42354   0.38752   0.00000  Uiso   1.00
H232   H     0.34488   0.38582   0.37011   0.00000  Uiso   1.00
H233   H     0.31302   0.41809   0.42382   0.00000  Uiso   1.00
H234   H     0.28818   0.42157   0.37881   0.00000  Uiso   1.00
H235   H     0.31716   0.48417   0.36808   0.00000  Uiso   1.00
H236   H     0.07191   0.38127   0.20586   0.00000  Uiso   1.00
H237   H     0.33890   0.48042   0.41396   0.00000  Uiso   1.00
H238   H     0.36898   0.17779   0.70543   0.00000  Uiso   1.00
H239   H     0.13128   0.32190   0.29413   0.00000  Uiso   1.00
H240   H     0.32222   0.36899   0.70541   0.00000  Uiso   1.00
H241   H     0.38105   0.07213   0.79448   0.00000  Uiso   1.00
H242   H     0.17794   0.13112   0.29437   0.00000  Uiso   1.00
H243   H     0.13103   0.32220   0.70544   0.00000  Uiso   1.00
H244   H     0.36876   0.17806   0.29419   0.00000  Uiso   1.00
H245   H     0.17778   0.13101   0.70541   0.00000  Uiso   1.00
H246   H     0.32206   0.36888   0.29437   0.00000  Uiso   1.00
H247   H     0.36890   0.32213   0.29446   0.00000  Uiso   1.00
H248   H     0.13103   0.17785   0.70550   0.00000  Uiso   1.00
H249   H     0.32201   0.13122   0.29428   0.00000  Uiso   1.00
H250   H     0.17787   0.36895   0.70552   0.00000  Uiso   1.00
H251   H     0.13110   0.17787   0.29446   0.00000  Uiso   1.00
H252   H     0.07214   0.11891   0.20554   0.00000  Uiso   1.00
H253   H     0.36897   0.32215   0.70549   0.00000  Uiso   1.00
H254   H     0.17803   0.36874   0.29421   0.00000  Uiso   1.00
H255   H     0.32214   0.13104   0.70551   0.00000  Uiso   1.00
H256   H     0.22548   0.05314   0.02571   0.00000  Uiso   1.00
H257   H     0.27445   0.05317   0.97429   0.00000  Uiso   1.00
H258   H     0.44689   0.22541   0.02571   0.00000  Uiso   1.00
H259   H     0.44681   0.27441   0.97429   0.00000  Uiso   1.00
H260   H     0.27452   0.44686   0.02571   0.00000  Uiso   1.00
H261   H     0.22555   0.44683   0.97429   0.00000  Uiso   1.00
H262   H     0.05311   0.27459   0.02571   0.00000  Uiso   1.00
H263   H     0.42786   0.38104   0.79450   0.00000  Uiso   1.00
H264   H     0.05319   0.22560   0.97429   0.00000  Uiso   1.00
H265   H     0.47570   0.30324   0.52571   0.00000  Uiso   1.00
H266   H     0.02474   0.30303   0.47430   0.00000  Uiso   1.00
H267   H     0.19679   0.47564   0.52571   0.00000  Uiso   1.00
H268   H     0.19692   0.02464   0.47430   0.00000  Uiso   1.00
H269   H     0.02430   0.19676   0.52572   0.00000  Uiso   1.00
H270   H     0.47526   0.19696   0.47430   0.00000  Uiso   1.00
H271   H     0.30321   0.02435   0.52571   0.00000  Uiso   1.00
H272   H     0.30308   0.47536   0.47430   0.00000  Uiso   1.00
H273   H     0.17760   0.09705   0.15780   0.00000  Uiso   1.00
H274   H     0.38121   0.07202   0.20571   0.00000  Uiso   1.00
H275   H     0.17381   0.12204   0.11259   0.00000  Uiso   1.00
H276   H     0.13601   0.09510   0.12993   0.00000  Uiso   1.00
H277   H     0.16822   0.06321   0.07620   0.00000  Uiso   1.00
H278   H     0.17165   0.03833   0.12117   0.00000  Uiso   1.00
H279   H     0.23431   0.06719   0.13193   0.00000  Uiso   1.00
H280   H     0.23059   0.08895   0.08605   0.00000  Uiso   1.00
H281   H     0.32226   0.09715   0.84219   0.00000  Uiso   1.00
H282   H     0.32602   0.12215   0.88740   0.00000  Uiso   1.00
H283   H     0.36385   0.09525   0.87006   0.00000  Uiso   1.00
H284   H     0.33169   0.06332   0.92379   0.00000  Uiso   1.00
H285   H     0.11894   0.42788   0.79447   0.00000  Uiso   1.00
H286   H     0.32829   0.03843   0.87881   0.00000  Uiso   1.00
H287   H     0.26558   0.06722   0.86807   0.00000  Uiso   1.00
H288   H     0.26928   0.08898   0.91395   0.00000  Uiso   1.00
H289   H     0.40306   0.17751   0.15782   0.00000  Uiso   1.00
H290   H     0.37804   0.17368   0.11263   0.00000  Uiso   1.00
H291   H     0.40503   0.13592   0.12995   0.00000  Uiso   1.00
H292   H     0.43686   0.16815   0.07620   0.00000  Uiso   1.00
H293   H     0.46176   0.17161   0.12116   0.00000  Uiso   1.00
H294   H     0.43282   0.23425   0.13192   0.00000  Uiso   1.00
H295   H     0.41108   0.23050   0.08604   0.00000  Uiso   1.00
H296   H     0.42786   0.38109   0.20554   0.00000  Uiso   1.00
H297   H     0.40282   0.32218   0.84217   0.00000  Uiso   1.00
H298   H     0.37780   0.32591   0.88736   0.00000  Uiso   1.00
H299   H     0.40466   0.36377   0.87005   0.00000  Uiso   1.00
H300   H     0.43661   0.33164   0.92378   0.00000  Uiso   1.00
H301   H     0.46151   0.32826   0.87881   0.00000  Uiso   1.00
H302   H     0.43277   0.26552   0.86807   0.00000  Uiso   1.00
H303   H     0.41101   0.26921   0.91395   0.00000  Uiso   1.00
H304   H     0.32240   0.40294   0.15779   0.00000  Uiso   1.00
H305   H     0.32618   0.37795   0.11258   0.00000  Uiso   1.00
H306   H     0.36398   0.40488   0.12991   0.00000  Uiso   1.00
H307   H     0.07214   0.11896   0.79450   0.00000  Uiso   1.00
H308   H     0.33177   0.43678   0.07619   0.00000  Uiso   1.00
H309   H     0.32835   0.46166   0.12117   0.00000  Uiso   1.00
H310   H     0.26568   0.43281   0.13192   0.00000  Uiso   1.00
H311   H     0.26940   0.41105   0.08605   0.00000  Uiso   1.00
H312   H     0.17774   0.40286   0.84219   0.00000  Uiso   1.00
H313   H     0.17397   0.37786   0.88739   0.00000  Uiso   1.00
H314   H     0.13615   0.40476   0.87006   0.00000  Uiso   1.00
H315   H     0.16830   0.43669   0.92379   0.00000  Uiso   1.00
H316   H     0.17171   0.46158   0.87882   0.00000  Uiso   1.00
H317   H     0.23441   0.43278   0.86807   0.00000  Uiso   1.00
H318   H     0.11899   0.07222   0.79458   0.00000  Uiso   1.00
H319   H     0.23071   0.41103   0.91395   0.00000  Uiso   1.00
H320   H     0.09692   0.32250   0.15784   0.00000  Uiso   1.00
H321   H     0.12194   0.32633   0.11266   0.00000  Uiso   1.00
H322   H     0.09494   0.36409   0.12998   0.00000  Uiso   1.00
H323   H     0.06313   0.33186   0.07621   0.00000  Uiso   1.00
H324   H     0.03822   0.32839   0.12116   0.00000  Uiso   1.00
H325   H     0.06718   0.26575   0.13192   0.00000  Uiso   1.00
H326   H     0.08892   0.26952   0.08605   0.00000  Uiso   1.00
H327   H     0.09717   0.17781   0.84217   0.00000  Uiso   1.00
H328   H     0.12220   0.17408   0.88736   0.00000  Uiso   1.00
O329   O     0.25000   0.00000   0.25000   0.00000  Uiso   1.00
O330   O     0.25000   0.46964   0.66317   0.00000  Uiso   1.00
O331   O     0.46964   0.25000   0.33683   0.00000  Uiso   1.00
O332   O     0.03036   0.25000   0.66317   0.00000  Uiso   1.00
O333   O    -0.00000   0.21964   0.83683   0.00000  Uiso   1.00
O334   O    -0.00000   0.28036   0.16317   0.00000  Uiso   1.00
O335   O     0.28036   0.00000   0.83683   0.00000  Uiso   1.00
O336   O     0.21964   0.00000   0.16317   0.00000  Uiso   1.00
O337   O    -0.00000   0.28036   0.83683   0.00000  Uiso   1.00
O338   O    -0.00000   0.21964   0.16317   0.00000  Uiso   1.00
O339   O     0.21964   0.00000   0.83683   0.00000  Uiso   1.00
O340   O     0.25000   0.00000   0.75000   0.00000  Uiso   1.00
O341   O     0.28036   0.00000   0.16317   0.00000  Uiso   1.00
O342   O     0.20725   0.07307   0.27282   0.00000  Uiso   1.00
O343   O     0.29274   0.42693   0.72718   0.00000  Uiso   1.00
O344   O     0.42693   0.20726   0.27282   0.00000  Uiso   1.00
O345   O     0.07307   0.29274   0.72718   0.00000  Uiso   1.00
O346   O     0.29274   0.42693   0.27282   0.00000  Uiso   1.00
O347   O     0.20725   0.07307   0.72718   0.00000  Uiso   1.00
O348   O     0.07307   0.29274   0.27282   0.00000  Uiso   1.00
O349   O     0.42693   0.20726   0.72718   0.00000  Uiso   1.00
O350   O     0.20725   0.42693   0.72718   0.00000  Uiso   1.00
O351   O    -0.00000   0.25000   0.25000   0.00000  Uiso   1.00
O352   O     0.29274   0.07307   0.27282   0.00000  Uiso   1.00
O353   O     0.42693   0.29275   0.72718   0.00000  Uiso   1.00
O354   O     0.07307   0.20725   0.27282   0.00000  Uiso   1.00
O355   O     0.29274   0.07307   0.72718   0.00000  Uiso   1.00
O356   O     0.20725   0.42693   0.27282   0.00000  Uiso   1.00
O357   O     0.07307   0.20725   0.72718   0.00000  Uiso   1.00
O358   O     0.42693   0.29275   0.27282   0.00000  Uiso   1.00
O359   O     0.45725   0.32307   0.77282   0.00000  Uiso   1.00
O360   O     0.04274   0.17693   0.22718   0.00000  Uiso   1.00
O361   O     0.17693   0.45725   0.77282   0.00000  Uiso   1.00
O362   O    -0.00000   0.25000   0.75000   0.00000  Uiso   1.00
O363   O     0.32307   0.04275   0.22718   0.00000  Uiso   1.00
O364   O     0.04274   0.17693   0.77282   0.00000  Uiso   1.00
O365   O     0.45725   0.32307   0.22718   0.00000  Uiso   1.00
O366   O     0.32307   0.04275   0.77282   0.00000  Uiso   1.00
O367   O     0.17693   0.45725   0.22718   0.00000  Uiso   1.00
O368   O     0.45725   0.17693   0.22718   0.00000  Uiso   1.00
O369   O     0.04274   0.32307   0.77282   0.00000  Uiso   1.00
O370   O     0.17693   0.04275   0.22718   0.00000  Uiso   1.00
O371   O     0.32307   0.45726   0.77282   0.00000  Uiso   1.00
O372   O     0.04274   0.32307   0.22718   0.00000  Uiso   1.00
O373   O     0.25000   0.46964   0.33683   0.00000  Uiso   1.00
O374   O     0.45725   0.17693   0.77282   0.00000  Uiso   1.00
O375   O     0.32307   0.45726   0.22718   0.00000  Uiso   1.00
O376   O     0.17693   0.04275   0.77282   0.00000  Uiso   1.00
O377   O     0.25000   0.03036   0.66317   0.00000  Uiso   1.00
O378   O     0.03036   0.25000   0.33683   0.00000  Uiso   1.00
O379   O     0.46964   0.25000   0.66317   0.00000  Uiso   1.00
O380   O     0.25000   0.03036   0.33683   0.00000  Uiso   1.00
Zn381  Zn    0.20660   0.00000   0.21760   0.00000  Uiso   1.00
Zn382  Zn    0.04340   0.25000   0.28240   0.00000  Uiso   1.00
Zn383  Zn    0.25000   0.45660   0.71760   0.00000  Uiso   1.00
Zn384  Zn    0.25000   0.04340   0.28240   0.00000  Uiso   1.00
Zn385  Zn    0.04340   0.25000   0.71760   0.00000  Uiso   1.00
Zn386  Zn    0.45660   0.25000   0.28240   0.00000  Uiso   1.00
Zn387  Zn    0.25000   0.04340   0.71760   0.00000  Uiso   1.00
Zn388  Zn    0.25000   0.45660   0.28240   0.00000  Uiso   1.00
Zn389  Zn    0.29340   0.00000   0.78240   0.00000  Uiso   1.00
Zn390  Zn   -0.00000   0.20660   0.21760   0.00000  Uiso   1.00
Zn391  Zn   -0.00000   0.29340   0.78240   0.00000  Uiso   1.00
Zn392  Zn    0.29340   0.00000   0.21760   0.00000  Uiso   1.00
Zn393  Zn    0.20660   0.00000   0.78240   0.00000  Uiso   1.00
Zn394  Zn   -0.00000   0.29340   0.21760   0.00000  Uiso   1.00
Zn395  Zn   -0.00000   0.20660   0.78240   0.00000  Uiso   1.00
Zn396  Zn    0.45660   0.25000   0.71760   0.00000  Uiso   1.00
C397   C     0.73629   0.03003   0.04159   0.00000  Uiso   1.00
C398   C     0.51383   0.27997   0.45842   0.00000  Uiso   1.00
C399   C     0.84815   0.40185   0.75000   0.00000  Uiso   1.00
C400   C     0.90186   0.15187   0.25000   0.00000  Uiso   1.00
C401   C     0.59815   0.34815   0.75000   0.00000  Uiso   1.00
C402   C     0.84814   0.40186   0.25000   0.00000  Uiso   1.00
C403   C     0.65185   0.09815   0.75000   0.00000  Uiso   1.00
C404   C     0.59814   0.15186   0.75000   0.00000  Uiso   1.00
C405   C     0.90185   0.34815   0.25000   0.00000  Uiso   1.00
C406   C     0.65186   0.40186   0.75000   0.00000  Uiso   1.00
C407   C     0.84815   0.09815   0.25000   0.00000  Uiso   1.00
C408   C     0.90186   0.34814   0.75000   0.00000  Uiso   1.00
C409   C     0.71993   0.48638   0.54159   0.00000  Uiso   1.00
C410   C     0.59815   0.15185   0.25000   0.00000  Uiso   1.00
C411   C     0.84814   0.09814   0.75000   0.00000  Uiso   1.00
C412   C     0.65185   0.40185   0.25000   0.00000  Uiso   1.00
C413   C     0.75000   0.00000   0.10261   0.00000  Uiso   1.00
C414   C     0.75000   0.00000   0.89739   0.00000  Uiso   1.00
C415   C     0.50000   0.25000   0.10261   0.00000  Uiso   1.00
C416   C     0.50000   0.25000   0.89739   0.00000  Uiso   1.00
C417   C     0.50000   0.25000   0.60261   0.00000  Uiso   1.00
C418   C     0.50000   0.25000   0.39740   0.00000  Uiso   1.00
C419   C     0.75000  -0.00000   0.60261   0.00000  Uiso   1.00
C420   C     0.72001   0.01377   0.45842   0.00000  Uiso   1.00
C421   C     0.75000   0.00000   0.39740   0.00000  Uiso   1.00
C422   C     0.72210   0.06431   0.10256   0.00000  Uiso   1.00
C423   C     0.68044   0.06344   0.10576   0.00000  Uiso   1.00
C424   C     0.66618   0.09652   0.12791   0.00000  Uiso   1.00
C425   C     0.77781   0.06435   0.89743   0.00000  Uiso   1.00
C426   C     0.81947   0.06353   0.89423   0.00000  Uiso   1.00
C427   C     0.83368   0.09663   0.87208   0.00000  Uiso   1.00
C428   C     0.93572   0.22203   0.10256   0.00000  Uiso   1.00
C429   C     0.93664   0.18037   0.10576   0.00000  Uiso   1.00
C430   C     0.90358   0.16608   0.12794   0.00000  Uiso   1.00
C431   C     0.51358   0.21992   0.54160   0.00000  Uiso   1.00
C432   C     0.93563   0.27776   0.89743   0.00000  Uiso   1.00
C433   C     0.93641   0.31942   0.89422   0.00000  Uiso   1.00
C434   C     0.90331   0.33360   0.87206   0.00000  Uiso   1.00
C435   C     0.77790   0.43569   0.10256   0.00000  Uiso   1.00
C436   C     0.81956   0.43655   0.10575   0.00000  Uiso   1.00
C437   C     0.83381   0.40347   0.12790   0.00000  Uiso   1.00
C438   C     0.72219   0.43565   0.89743   0.00000  Uiso   1.00
C439   C     0.68053   0.43647   0.89423   0.00000  Uiso   1.00
C440   C     0.66631   0.40338   0.87207   0.00000  Uiso   1.00
C441   C     0.56428   0.27798   0.10256   0.00000  Uiso   1.00
C442   C     0.98617   0.22003   0.45842   0.00000  Uiso   1.00
C443   C     0.56335   0.31964   0.10577   0.00000  Uiso   1.00
C444   C     0.59640   0.33393   0.12796   0.00000  Uiso   1.00
C445   C     0.56437   0.22224   0.89743   0.00000  Uiso   1.00
C446   C     0.56358   0.18058   0.89423   0.00000  Uiso   1.00
C447   C     0.59668   0.16640   0.87205   0.00000  Uiso   1.00
C448   C     0.97235   0.31441   0.60258   0.00000  Uiso   1.00
C449   C     0.93069   0.31368   0.60580   0.00000  Uiso   1.00
C450   C     0.91655   0.34679   0.62799   0.00000  Uiso   1.00
C451   C     0.52817   0.31420   0.39745   0.00000  Uiso   1.00
C452   C     0.56982   0.31315   0.39424   0.00000  Uiso   1.00
C453   C     0.78007   0.01361   0.54159   0.00000  Uiso   1.00
C454   C     0.58421   0.34619   0.37212   0.00000  Uiso   1.00
C455   C     0.68561   0.47229   0.60257   0.00000  Uiso   1.00
C456   C     0.68637   0.43063   0.60579   0.00000  Uiso   1.00
C457   C     0.65327   0.41647   0.62797   0.00000  Uiso   1.00
C458   C     0.68575   0.02804   0.39745   0.00000  Uiso   1.00
C459   C     0.68672   0.06970   0.39426   0.00000  Uiso   1.00
C460   C     0.65364   0.08403   0.37216   0.00000  Uiso   1.00
C461   C     0.52765   0.18559   0.60258   0.00000  Uiso   1.00
C462   C     0.56931   0.18632   0.60580   0.00000  Uiso   1.00
C463   C     0.58344   0.15321   0.62799   0.00000  Uiso   1.00
C464   C     0.77999   0.48622   0.45842   0.00000  Uiso   1.00
C465   C     0.97184   0.18580   0.39745   0.00000  Uiso   1.00
C466   C     0.93018   0.18685   0.39424   0.00000  Uiso   1.00
C467   C     0.91579   0.15379   0.37214   0.00000  Uiso   1.00
C468   C     0.81439   0.02772   0.60257   0.00000  Uiso   1.00
C469   C     0.81361   0.06938   0.60579   0.00000  Uiso   1.00
C470   C     0.84672   0.08354   0.62796   0.00000  Uiso   1.00
C471   C     0.81425   0.47197   0.39745   0.00000  Uiso   1.00
C472   C     0.81330   0.43031   0.39426   0.00000  Uiso   1.00
C473   C     0.84637   0.41598   0.37215   0.00000  Uiso   1.00
C474   C     0.73621   0.03052   0.08217   0.00000  Uiso   1.00
C475   C     0.76374   0.03054   0.91783   0.00000  Uiso   1.00
C476   C     0.96950   0.23618   0.08217   0.00000  Uiso   1.00
C477   C     0.76366   0.03005   0.95841   0.00000  Uiso   1.00
C478   C     0.96945   0.26372   0.91783   0.00000  Uiso   1.00
C479   C     0.76379   0.46948   0.08217   0.00000  Uiso   1.00
C480   C     0.73626   0.46946   0.91783   0.00000  Uiso   1.00
C481   C     0.53050   0.26383   0.08217   0.00000  Uiso   1.00
C482   C     0.53055   0.23628   0.91783   0.00000  Uiso   1.00
C483   C     0.98634   0.28057   0.58218   0.00000  Uiso   1.00
C484   C     0.51391   0.28046   0.41784   0.00000  Uiso   1.00
C485   C     0.71944   0.48631   0.58218   0.00000  Uiso   1.00
C486   C     0.71951   0.01385   0.41784   0.00000  Uiso   1.00
C487   C     0.51366   0.21943   0.58218   0.00000  Uiso   1.00
C488   C     0.96999   0.23626   0.04159   0.00000  Uiso   1.00
C489   C     0.98609   0.21954   0.41784   0.00000  Uiso   1.00
C490   C     0.78056   0.01369   0.58217   0.00000  Uiso   1.00
C491   C     0.78049   0.48615   0.41783   0.00000  Uiso   1.00
C492   C     0.75000   0.00000   0.02130   0.00000  Uiso   1.00
C493   C     0.75000   0.00000   0.97870   0.00000  Uiso   1.00
C494   C     0.50000   0.25000   0.02130   0.00000  Uiso   1.00
C495   C     0.50000   0.25000   0.97869   0.00000  Uiso   1.00
C496   C     0.50000   0.25000   0.52131   0.00000  Uiso   1.00
C497   C     0.50000   0.25000   0.47870   0.00000  Uiso   1.00
C498   C     0.75000  -0.00000   0.52131   0.00000  Uiso   1.00
C499   C     0.96995   0.26364   0.95841   0.00000  Uiso   1.00
C500   C     0.75000  -0.00000   0.47870   0.00000  Uiso   1.00
C501   C     0.75000   0.00000   0.35505   0.00000  Uiso   1.00
C502   C     0.75000   0.00000   0.64495   0.00000  Uiso   1.00
C503   C     0.50000   0.25000   0.35505   0.00000  Uiso   1.00
C504   C     0.50000   0.25000   0.64495   0.00000  Uiso   1.00
C505   C     0.50000   0.25000   0.85505   0.00000  Uiso   1.00
C506   C     0.50000   0.25000   0.14495   0.00000  Uiso   1.00
C507   C     0.75000   0.00000   0.85505   0.00000  Uiso   1.00
C508   C     0.75000   0.00000   0.14495   0.00000  Uiso   1.00
C509   C     0.67992   0.07008   0.25000   0.00000  Uiso   1.00
C510   C     0.76371   0.46998   0.04159   0.00000  Uiso   1.00
C511   C     0.82009   0.42991   0.75000   0.00000  Uiso   1.00
C512   C     0.92992   0.17992   0.25000   0.00000  Uiso   1.00
C513   C     0.57009   0.32009   0.75000   0.00000  Uiso   1.00
C514   C     0.82008   0.42992   0.25000   0.00000  Uiso   1.00
C515   C     0.67991   0.07009   0.75000   0.00000  Uiso   1.00
C516   C     0.57008   0.32008   0.25000   0.00000  Uiso   1.00
C517   C     0.92991   0.17991   0.75000   0.00000  Uiso   1.00
C518   C     0.67992   0.42992   0.75000   0.00000  Uiso   1.00
C519   C     0.82009   0.07009   0.25000   0.00000  Uiso   1.00
C520   C     0.92992   0.32008   0.75000   0.00000  Uiso   1.00
C521   C     0.73634   0.46996   0.95841   0.00000  Uiso   1.00
C522   C     0.57009   0.17991   0.25000   0.00000  Uiso   1.00
C523   C     0.82008   0.07008   0.75000   0.00000  Uiso   1.00
C524   C     0.67991   0.42991   0.25000   0.00000  Uiso   1.00
C525   C     0.57008   0.17992   0.75000   0.00000  Uiso   1.00
C526   C     0.92991   0.32009   0.25000   0.00000  Uiso   1.00
C527   C     0.62172   0.40498   0.22519   0.00000  Uiso   1.00
C528   C     0.87817   0.09510   0.77495   0.00000  Uiso   1.00
C529   C     0.59511   0.12180   0.22506   0.00000  Uiso   1.00
C530   C     0.90490   0.37816   0.77496   0.00000  Uiso   1.00
C531   C     0.87826   0.09504   0.22515   0.00000  Uiso   1.00
C532   C     0.53001   0.26375   0.04159   0.00000  Uiso   1.00
C533   C     0.62183   0.40491   0.77495   0.00000  Uiso   1.00
C534   C     0.90489   0.37820   0.22506   0.00000  Uiso   1.00
C535   C     0.59510   0.12184   0.77496   0.00000  Uiso   1.00
C536   C     0.62184   0.09515   0.77501   0.00000  Uiso   1.00
C537   C     0.87821   0.40494   0.22510   0.00000  Uiso   1.00
C538   C     0.59514   0.37816   0.77499   0.00000  Uiso   1.00
C539   C     0.90500   0.12173   0.22520   0.00000  Uiso   1.00
C540   C     0.87815   0.40485   0.77501   0.00000  Uiso   1.00
C541   C     0.62179   0.09506   0.22510   0.00000  Uiso   1.00
C542   C     0.90486   0.12184   0.77500   0.00000  Uiso   1.00
C543   C     0.53006   0.23636   0.95841   0.00000  Uiso   1.00
C544   C     0.59498   0.37829   0.22523   0.00000  Uiso   1.00
C545   C     0.87184   0.15485   0.72500   0.00000  Uiso   1.00
C546   C     0.62830   0.34497   0.27475   0.00000  Uiso   1.00
C547   C     0.84515   0.37185   0.72499   0.00000  Uiso   1.00
C548   C     0.65494   0.12821   0.27489   0.00000  Uiso   1.00
C549   C     0.62816   0.34514   0.72500   0.00000  Uiso   1.00
C550   C     0.87172   0.15501   0.27479   0.00000  Uiso   1.00
C551   C     0.65485   0.12815   0.72499   0.00000  Uiso   1.00
C552   C     0.84506   0.37179   0.27489   0.00000  Uiso   1.00
C553   C     0.87180   0.34510   0.27494   0.00000  Uiso   1.00
C554   C     0.98642   0.28008   0.54159   0.00000  Uiso   1.00
C555   C     0.62816   0.15489   0.72503   0.00000  Uiso   1.00
C556   C     0.84504   0.12827   0.27484   0.00000  Uiso   1.00
C557   C     0.65490   0.37183   0.72505   0.00000  Uiso   1.00
C558   C     0.62820   0.15490   0.27494   0.00000  Uiso   1.00
C559   C     0.87184   0.34511   0.72503   0.00000  Uiso   1.00
C560   C     0.65499   0.37171   0.27480   0.00000  Uiso   1.00
C561   C     0.84510   0.12817   0.72504   0.00000  Uiso   1.00
C562   C     0.59814   0.34813   0.24999   0.00000  Uiso   1.00
C563   C     0.90185   0.15185   0.75000   0.00000  Uiso   1.00
C564   C     0.65186   0.09814   0.25000   0.00000  Uiso   1.00
H565   H     0.61875   0.42802   0.20578   0.00000  Uiso   1.00
H566   H     0.88112   0.42794   0.20562   0.00000  Uiso   1.00
H567   H     0.59533   0.13623   0.87005   0.00000  Uiso   1.00
H568   H     0.56339   0.16835   0.92378   0.00000  Uiso   1.00
H569   H     0.53848   0.17174   0.87881   0.00000  Uiso   1.00
H570   H     0.56723   0.23447   0.86807   0.00000  Uiso   1.00
H571   H     0.58899   0.23078   0.91395   0.00000  Uiso   1.00
H572   H     0.92798   0.34725   0.65787   0.00000  Uiso   1.00
H573   H     0.92427   0.37230   0.61269   0.00000  Uiso   1.00
H574   H     0.88638   0.34548   0.63000   0.00000  Uiso   1.00
H575   H     0.91845   0.31350   0.57625   0.00000  Uiso   1.00
H576   H     0.92182   0.28859   0.62121   0.00000  Uiso   1.00
H577   H     0.57220   0.38103   0.79456   0.00000  Uiso   1.00
H578   H     0.98459   0.31726   0.63193   0.00000  Uiso   1.00
H579   H     0.98091   0.33902   0.58606   0.00000  Uiso   1.00
H580   H     0.57274   0.34683   0.34226   0.00000  Uiso   1.00
H581   H     0.57676   0.37173   0.38750   0.00000  Uiso   1.00
H582   H     0.61437   0.34461   0.37003   0.00000  Uiso   1.00
H583   H     0.58205   0.31284   0.42379   0.00000  Uiso   1.00
H584   H     0.57849   0.28802   0.37879   0.00000  Uiso   1.00
H585   H     0.51594   0.31714   0.36810   0.00000  Uiso   1.00
H586   H     0.51978   0.33887   0.41398   0.00000  Uiso   1.00
H587   H     0.65279   0.42789   0.65786   0.00000  Uiso   1.00
H588   H     0.92805   0.11877   0.20580   0.00000  Uiso   1.00
H589   H     0.62775   0.42417   0.61267   0.00000  Uiso   1.00
H590   H     0.65460   0.38630   0.62998   0.00000  Uiso   1.00
H591   H     0.68656   0.41840   0.57624   0.00000  Uiso   1.00
H592   H     0.71147   0.42178   0.62120   0.00000  Uiso   1.00
H593   H     0.68276   0.48453   0.63193   0.00000  Uiso   1.00
H594   H     0.66100   0.48084   0.58606   0.00000  Uiso   1.00
H595   H     0.65302   0.07259   0.34228   0.00000  Uiso   1.00
H596   H     0.62813   0.07650   0.38754   0.00000  Uiso   1.00
H597   H     0.65515   0.11419   0.37011   0.00000  Uiso   1.00
H598   H     0.68702   0.08192   0.42382   0.00000  Uiso   1.00
H599   H     0.88101   0.42778   0.79458   0.00000  Uiso   1.00
H600   H     0.71183   0.07843   0.37880   0.00000  Uiso   1.00
H601   H     0.68284   0.01583   0.36809   0.00000  Uiso   1.00
H602   H     0.66110   0.01960   0.41397   0.00000  Uiso   1.00
H603   H     0.57202   0.15275   0.65788   0.00000  Uiso   1.00
H604   H     0.57573   0.12770   0.61270   0.00000  Uiso   1.00
H605   H     0.61361   0.15452   0.63001   0.00000  Uiso   1.00
H606   H     0.58155   0.18649   0.57625   0.00000  Uiso   1.00
H607   H     0.57818   0.21142   0.62121   0.00000  Uiso   1.00
H608   H     0.51540   0.18274   0.63193   0.00000  Uiso   1.00
H609   H     0.51909   0.16098   0.58606   0.00000  Uiso   1.00
H610   H     0.61888   0.07206   0.20562   0.00000  Uiso   1.00
H611   H     0.92727   0.15313   0.34228   0.00000  Uiso   1.00
H612   H     0.92324   0.12826   0.38754   0.00000  Uiso   1.00
H613   H     0.88564   0.15538   0.37005   0.00000  Uiso   1.00
H614   H     0.91795   0.18717   0.42379   0.00000  Uiso   1.00
H615   H     0.92151   0.21197   0.37878   0.00000  Uiso   1.00
H616   H     0.98406   0.18285   0.36810   0.00000  Uiso   1.00
H617   H     0.98022   0.16113   0.41398   0.00000  Uiso   1.00
H618   H     0.84720   0.07212   0.65785   0.00000  Uiso   1.00
H619   H     0.87223   0.07585   0.61265   0.00000  Uiso   1.00
H620   H     0.84538   0.11371   0.62997   0.00000  Uiso   1.00
H621   H     0.92779   0.11898   0.79457   0.00000  Uiso   1.00
H622   H     0.81342   0.08161   0.57623   0.00000  Uiso   1.00
H623   H     0.78852   0.07822   0.62120   0.00000  Uiso   1.00
H624   H     0.81724   0.01548   0.63193   0.00000  Uiso   1.00
H625   H     0.83900   0.01917   0.58605   0.00000  Uiso   1.00
H626   H     0.84697   0.42742   0.34227   0.00000  Uiso   1.00
H627   H     0.87189   0.42354   0.38752   0.00000  Uiso   1.00
H628   H     0.84488   0.38582   0.37011   0.00000  Uiso   1.00
H629   H     0.81302   0.41809   0.42382   0.00000  Uiso   1.00
H630   H     0.78818   0.42157   0.37881   0.00000  Uiso   1.00
H631   H     0.81716   0.48417   0.36808   0.00000  Uiso   1.00
H632   H     0.57191   0.38127   0.20586   0.00000  Uiso   1.00
H633   H     0.83890   0.48042   0.41396   0.00000  Uiso   1.00
H634   H     0.86898   0.17779   0.70543   0.00000  Uiso   1.00
H635   H     0.63128   0.32190   0.29413   0.00000  Uiso   1.00
H636   H     0.82222   0.36899   0.70541   0.00000  Uiso   1.00
H637   H     0.88105   0.07213   0.79448   0.00000  Uiso   1.00
H638   H     0.67794   0.13112   0.29437   0.00000  Uiso   1.00
H639   H     0.63103   0.32220   0.70544   0.00000  Uiso   1.00
H640   H     0.86876   0.17806   0.29419   0.00000  Uiso   1.00
H641   H     0.67778   0.13101   0.70541   0.00000  Uiso   1.00
H642   H     0.82206   0.36888   0.29437   0.00000  Uiso   1.00
H643   H     0.86890   0.32213   0.29446   0.00000  Uiso   1.00
H644   H     0.63103   0.17785   0.70550   0.00000  Uiso   1.00
H645   H     0.82201   0.13122   0.29428   0.00000  Uiso   1.00
H646   H     0.67787   0.36895   0.70552   0.00000  Uiso   1.00
H647   H     0.63110   0.17787   0.29446   0.00000  Uiso   1.00
H648   H     0.57214   0.11891   0.20554   0.00000  Uiso   1.00
H649   H     0.86897   0.32215   0.70549   0.00000  Uiso   1.00
H650   H     0.67803   0.36874   0.29421   0.00000  Uiso   1.00
H651   H     0.82214   0.13104   0.70551   0.00000  Uiso   1.00
H652   H     0.72548   0.05314   0.02571   0.00000  Uiso   1.00
H653   H     0.77445   0.05317   0.97429   0.00000  Uiso   1.00
H654   H     0.94689   0.22541   0.02571   0.00000  Uiso   1.00
H655   H     0.94681   0.27441   0.97429   0.00000  Uiso   1.00
H656   H     0.77452   0.44686   0.02571   0.00000  Uiso   1.00
H657   H     0.72555   0.44683   0.97429   0.00000  Uiso   1.00
H658   H     0.55311   0.27459   0.02571   0.00000  Uiso   1.00
H659   H     0.92786   0.38104   0.79450   0.00000  Uiso   1.00
H660   H     0.55319   0.22560   0.97429   0.00000  Uiso   1.00
H661   H     0.97570   0.30324   0.52571   0.00000  Uiso   1.00
H662   H     0.52474   0.30303   0.47430   0.00000  Uiso   1.00
H663   H     0.69679   0.47564   0.52571   0.00000  Uiso   1.00
H664   H     0.69692   0.02464   0.47430   0.00000  Uiso   1.00
H665   H     0.52430   0.19676   0.52572   0.00000  Uiso   1.00
H666   H     0.97526   0.19696   0.47430   0.00000  Uiso   1.00
H667   H     0.80321   0.02435   0.52571   0.00000  Uiso   1.00
H668   H     0.80308   0.47536   0.47430   0.00000  Uiso   1.00
H669   H     0.67760   0.09705   0.15780   0.00000  Uiso   1.00
H670   H     0.88121   0.07202   0.20571   0.00000  Uiso   1.00
H671   H     0.67381   0.12204   0.11259   0.00000  Uiso   1.00
H672   H     0.63601   0.09510   0.12993   0.00000  Uiso   1.00
H673   H     0.66822   0.06321   0.07620   0.00000  Uiso   1.00
H674   H     0.67165   0.03833   0.12117   0.00000  Uiso   1.00
H675   H     0.73431   0.06719   0.13193   0.00000  Uiso   1.00
H676   H     0.73059   0.08895   0.08605   0.00000  Uiso   1.00
H677   H     0.82226   0.09715   0.84219   0.00000  Uiso   1.00
H678   H     0.82602   0.12215   0.88740   0.00000  Uiso   1.00
H679   H     0.86385   0.09525   0.87006   0.00000  Uiso   1.00
H680   H     0.83169   0.06332   0.92379   0.00000  Uiso   1.00
H681   H     0.61894   0.42788   0.79447   0.00000  Uiso   1.00
H682   H     0.82829   0.03843   0.87881   0.00000  Uiso   1.00
H683   H     0.76558   0.06722   0.86807   0.00000  Uiso   1.00
H684   H     0.76928   0.08898   0.91395   0.00000  Uiso   1.00
H685   H     0.90306   0.17751   0.15782   0.00000  Uiso   1.00
H686   H     0.87804   0.17368   0.11263   0.00000  Uiso   1.00
H687   H     0.90503   0.13592   0.12995   0.00000  Uiso   1.00
H688   H     0.93686   0.16815   0.07620   0.00000  Uiso   1.00
H689   H     0.96176   0.17161   0.12116   0.00000  Uiso   1.00
H690   H     0.93282   0.23425   0.13192   0.00000  Uiso   1.00
H691   H     0.91108   0.23050   0.08604   0.00000  Uiso   1.00
H692   H     0.92786   0.38109   0.20554   0.00000  Uiso   1.00
H693   H     0.90282   0.32218   0.84217   0.00000  Uiso   1.00
H694   H     0.87780   0.32591   0.88736   0.00000  Uiso   1.00
H695   H     0.90466   0.36377   0.87005   0.00000  Uiso   1.00
H696   H     0.93661   0.33164   0.92378   0.00000  Uiso   1.00
H697   H     0.96151   0.32826   0.87881   0.00000  Uiso   1.00
H698   H     0.93277   0.26552   0.86807   0.00000  Uiso   1.00
H699   H     0.91101   0.26921   0.91395   0.00000  Uiso   1.00
H700   H     0.82240   0.40294   0.15779   0.00000  Uiso   1.00
H701   H     0.82618   0.37795   0.11258   0.00000  Uiso   1.00
H702   H     0.86398   0.40488   0.12991   0.00000  Uiso   1.00
H703   H     0.57214   0.11896   0.79450   0.00000  Uiso   1.00
H704   H     0.83177   0.43678   0.07619   0.00000  Uiso   1.00
H705   H     0.82835   0.46166   0.12117   0.00000  Uiso   1.00
H706   H     0.76568   0.43281   0.13192   0.00000  Uiso   1.00
H707   H     0.76940   0.41105   0.08605   0.00000  Uiso   1.00
H708   H     0.67774   0.40286   0.84219   0.00000  Uiso   1.00
H709   H     0.67397   0.37786   0.88739   0.00000  Uiso   1.00
H710   H     0.63615   0.40476   0.87006   0.00000  Uiso   1.00
H711   H     0.66830   0.43669   0.92379   0.00000  Uiso   1.00
H712   H     0.67171   0.46158   0.87882   0.00000  Uiso   1.00
H713   H     0.73441   0.43278   0.86807   0.00000  Uiso   1.00
H714   H     0.61899   0.07222   0.79458   0.00000  Uiso   1.00
H715   H     0.73071   0.41103   0.91395   0.00000  Uiso   1.00
H716   H     0.59692   0.32250   0.15784   0.00000  Uiso   1.00
H717   H     0.62194   0.32633   0.11266   0.00000  Uiso   1.00
H718   H     0.59494   0.36409   0.12998   0.00000  Uiso   1.00
H719   H     0.56313   0.33186   0.07621   0.00000  Uiso   1.00
H720   H     0.53822   0.32839   0.12116   0.00000  Uiso   1.00
H721   H     0.56718   0.26575   0.13192   0.00000  Uiso   1.00
H722   H     0.58892   0.26952   0.08605   0.00000  Uiso   1.00
H723   H     0.59717   0.17781   0.84217   0.00000  Uiso   1.00
H724   H     0.62220   0.17408   0.88736   0.00000  Uiso   1.00
O725   O     0.75000   0.00000   0.25000   0.00000  Uiso   1.00
O726   O     0.75000   0.46964   0.66317   0.00000  Uiso   1.00
O727   O     0.96964   0.25000   0.33683   0.00000  Uiso   1.00
O728   O     0.53036   0.25000   0.66317   0.00000  Uiso   1.00
O729   O     0.50000   0.21964   0.83683   0.00000  Uiso   1.00
O730   O     0.50000   0.28036   0.16317   0.00000  Uiso   1.00
O731   O     0.78036   0.00000   0.83683   0.00000  Uiso   1.00
O732   O     0.71964   0.00000   0.16317   0.00000  Uiso   1.00
O733   O     0.50000   0.28036   0.83683   0.00000  Uiso   1.00
O734   O     0.50000   0.21964   0.16317   0.00000  Uiso   1.00
O735   O     0.71964   0.00000   0.83683   0.00000  Uiso   1.00
O736   O     0.75000   0.00000   0.75000   0.00000  Uiso   1.00
O737   O     0.78036   0.00000   0.16317   0.00000  Uiso   1.00
O738   O     0.70725   0.07307   0.27282   0.00000  Uiso   1.00
O739   O     0.79274   0.42693   0.72718   0.00000  Uiso   1.00
O740   O     0.92693   0.20726   0.27282   0.00000  Uiso   1.00
O741   O     0.57307   0.29274   0.72718   0.00000  Uiso   1.00
O742   O     0.79274   0.42693   0.27282   0.00000  Uiso   1.00
O743   O     0.70725   0.07307   0.72718   0.00000  Uiso   1.00
O744   O     0.57307   0.29274   0.27282   0.00000  Uiso   1.00
O745   O     0.92693   0.20726   0.72718   0.00000  Uiso   1.00
O746   O     0.70725   0.42693   0.72718   0.00000  Uiso   1.00
O747   O     0.50000   0.25000   0.25000   0.00000  Uiso   1.00
O748   O     0.79274   0.07307   0.27282   0.00000  Uiso   1.00
O749   O     0.92693   0.29275   0.72718   0.00000  Uiso   1.00
O750   O     0.57307   0.20725   0.27282   0.00000  Uiso   1.00
O751   O     0.79274   0.07307   0.72718   0.00000  Uiso   1.00
O752   O     0.70725   0.42693   0.27282   0.00000  Uiso   1.00
O753   O     0.57307   0.20725   0.72718   0.00000  Uiso   1.00
O754   O     0.92693   0.29275   0.27282   0.00000  Uiso   1.00
O755   O     0.95725   0.32307   0.77282   0.00000  Uiso   1.00
O756   O     0.54274   0.17693   0.22718   0.00000  Uiso   1.00
O757   O     0.67693   0.45725   0.77282   0.00000  Uiso   1.00
O758   O     0.50000   0.25000   0.75000   0.00000  Uiso   1.00
O759   O     0.82307   0.04275   0.22718   0.00000  Uiso   1.00
O760   O     0.54274   0.17693   0.77282   0.00000  Uiso   1.00
O761   O     0.95725   0.32307   0.22718   0.00000  Uiso   1.00
O762   O     0.82307   0.04275   0.77282   0.00000  Uiso   1.00
O763   O     0.67693   0.45725   0.22718   0.00000  Uiso   1.00
O764   O     0.95725   0.17693   0.22718   0.00000  Uiso   1.00
O765   O     0.54274   0.32307   0.77282   0.00000  Uiso   1.00
O766   O     0.67693   0.04275   0.22718   0.00000  Uiso   1.00
O767   O     0.82307   0.45726   0.77282   0.00000  Uiso   1.00
O768   O     0.54274   0.32307   0.22718   0.00000  Uiso   1.00
O769   O     0.75000   0.46964   0.33683   0.00000  Uiso   1.00
O770   O     0.95725   0.17693   0.77282   0.00000  Uiso   1.00
O771   O     0.82307   0.45726   0.22718   0.00000  Uiso   1.00
O772   O     0.67693   0.04275   0.77282   0.00000  Uiso   1.00
O773   O     0.75000   0.03036   0.66317   0.00000  Uiso   1.00
O774   O     0.53036   0.25000   0.33683   0.00000  Uiso   1.00
O775   O     0.96964   0.25000   0.66317   0.00000  Uiso   1.00
O776   O     0.75000   0.03036   0.33683   0.00000  Uiso   1.00
Zn777  Zn    0.70660   0.00000   0.21760   0.00000  Uiso   1.00
Zn778  Zn    0.54340   0.25000   0.28240   0.00000  Uiso   1.00
Zn779  Zn    0.75000   0.45660   0.71760   0.00000  Uiso   1.00
Zn780  Zn    0.75000   0.04340   0.28240   0.00000  Uiso   1.00
Zn781  Zn    0.54340   0.25000   0.71760   0.00000  Uiso   1.00
Zn782  Zn    0.95660   0.25000   0.28240   0.00000  Uiso   1.00
Zn783  Zn    0.75000   0.04340   0.71760   0.00000  Uiso   1.00
Zn784  Zn    0.75000   0.45660   0.28240   0.00000  Uiso   1.00
Zn785  Zn    0.79340   0.00000   0.78240   0.00000  Uiso   1.00
Zn786  Zn    0.50000   0.20660   0.21760   0.00000  Uiso   1.00
Zn787  Zn    0.50000   0.29340   0.78240   0.00000  Uiso   1.00
Zn788  Zn    0.79340   0.00000   0.21760   0.00000  Uiso   1.00
Zn789  Zn    0.70660   0.00000   0.78240   0.00000  Uiso   1.00
Zn790  Zn    0.50000   0.29340   0.21760   0.00000  Uiso   1.00
Zn791  Zn    0.50000   0.20660   0.78240   0.00000  Uiso   1.00
Zn792  Zn    0.95660   0.25000   0.71760   0.00000  Uiso   1.00
C793   C     0.23629   0.53003   0.04159   0.00000  Uiso   1.00
C794   C     0.01383   0.77997   0.45842   0.00000  Uiso   1.00
C795   C     0.34815   0.90185   0.75000   0.00000  Uiso   1.00
C796   C     0.40186   0.65187   0.25000   0.00000  Uiso   1.00
C797   C     0.09815   0.84815   0.75000   0.00000  Uiso   1.00
C798   C     0.34814   0.90186   0.25000   0.00000  Uiso   1.00
C799   C     0.15185   0.59815   0.75000   0.00000  Uiso   1.00
C800   C     0.09814   0.65186   0.75000   0.00000  Uiso   1.00
C801   C     0.40185   0.84815   0.25000   0.00000  Uiso   1.00
C802   C     0.15186   0.90186   0.75000   0.00000  Uiso   1.00
C803   C     0.34815   0.59815   0.25000   0.00000  Uiso   1.00
C804   C     0.40186   0.84814   0.75000   0.00000  Uiso   1.00
C805   C     0.21993   0.98638   0.54159   0.00000  Uiso   1.00
C806   C     0.09815   0.65185   0.25000   0.00000  Uiso   1.00
C807   C     0.34814   0.59814   0.75000   0.00000  Uiso   1.00
C808   C     0.15185   0.90185   0.25000   0.00000  Uiso   1.00
C809   C     0.25000   0.50000   0.10261   0.00000  Uiso   1.00
C810   C     0.25000   0.50000   0.89739   0.00000  Uiso   1.00
C811   C     0.00000   0.75000   0.10261   0.00000  Uiso   1.00
C812   C     0.00000   0.75000   0.89739   0.00000  Uiso   1.00
C813   C    -0.00000   0.75000   0.60261   0.00000  Uiso   1.00
C814   C     0.00000   0.75000   0.39740   0.00000  Uiso   1.00
C815   C     0.25000   0.50000   0.60261   0.00000  Uiso   1.00
C816   C     0.22001   0.51377   0.45842   0.00000  Uiso   1.00
C817   C     0.25000   0.50000   0.39740   0.00000  Uiso   1.00
C818   C     0.22210   0.56431   0.10256   0.00000  Uiso   1.00
C819   C     0.18044   0.56344   0.10576   0.00000  Uiso   1.00
C820   C     0.16618   0.59652   0.12791   0.00000  Uiso   1.00
C821   C     0.27781   0.56435   0.89743   0.00000  Uiso   1.00
C822   C     0.31947   0.56353   0.89423   0.00000  Uiso   1.00
C823   C     0.33368   0.59663   0.87208   0.00000  Uiso   1.00
C824   C     0.43572   0.72203   0.10256   0.00000  Uiso   1.00
C825   C     0.43664   0.68037   0.10576   0.00000  Uiso   1.00
C826   C     0.40358   0.66608   0.12794   0.00000  Uiso   1.00
C827   C     0.01358   0.71992   0.54160   0.00000  Uiso   1.00
C828   C     0.43563   0.77776   0.89743   0.00000  Uiso   1.00
C829   C     0.43641   0.81942   0.89422   0.00000  Uiso   1.00
C830   C     0.40331   0.83360   0.87206   0.00000  Uiso   1.00
C831   C     0.27790   0.93569   0.10256   0.00000  Uiso   1.00
C832   C     0.31956   0.93655   0.10575   0.00000  Uiso   1.00
C833   C     0.33381   0.90347   0.12790   0.00000  Uiso   1.00
C834   C     0.22219   0.93565   0.89743   0.00000  Uiso   1.00
C835   C     0.18053   0.93647   0.89423   0.00000  Uiso   1.00
C836   C     0.16631   0.90338   0.87207   0.00000  Uiso   1.00
C837   C     0.06428   0.77798   0.10256   0.00000  Uiso   1.00
C838   C     0.48617   0.72003   0.45842   0.00000  Uiso   1.00
C839   C     0.06335   0.81964   0.10577   0.00000  Uiso   1.00
C840   C     0.09640   0.83393   0.12796   0.00000  Uiso   1.00
C841   C     0.06437   0.72224   0.89743   0.00000  Uiso   1.00
C842   C     0.06358   0.68058   0.89423   0.00000  Uiso   1.00
C843   C     0.09668   0.66640   0.87205   0.00000  Uiso   1.00
C844   C     0.47235   0.81441   0.60258   0.00000  Uiso   1.00
C845   C     0.43069   0.81368   0.60580   0.00000  Uiso   1.00
C846   C     0.41655   0.84679   0.62799   0.00000  Uiso   1.00
C847   C     0.02817   0.81420   0.39745   0.00000  Uiso   1.00
C848   C     0.06982   0.81315   0.39424   0.00000  Uiso   1.00
C849   C     0.28007   0.51361   0.54159   0.00000  Uiso   1.00
C850   C     0.08421   0.84619   0.37212   0.00000  Uiso   1.00
C851   C     0.18561   0.97229   0.60257   0.00000  Uiso   1.00
C852   C     0.18637   0.93063   0.60579   0.00000  Uiso   1.00
C853   C     0.15327   0.91647   0.62797   0.00000  Uiso   1.00
C854   C     0.18575   0.52804   0.39745   0.00000  Uiso   1.00
C855   C     0.18672   0.56970   0.39426   0.00000  Uiso   1.00
C856   C     0.15364   0.58403   0.37216   0.00000  Uiso   1.00
C857   C     0.02765   0.68559   0.60258   0.00000  Uiso   1.00
C858   C     0.06931   0.68632   0.60580   0.00000  Uiso   1.00
C859   C     0.08344   0.65321   0.62799   0.00000  Uiso   1.00
C860   C     0.27999   0.98622   0.45842   0.00000  Uiso   1.00
C861   C     0.47184   0.68580   0.39745   0.00000  Uiso   1.00
C862   C     0.43018   0.68685   0.39424   0.00000  Uiso   1.00
C863   C     0.41579   0.65379   0.37214   0.00000  Uiso   1.00
C864   C     0.31439   0.52772   0.60257   0.00000  Uiso   1.00
C865   C     0.31361   0.56938   0.60579   0.00000  Uiso   1.00
C866   C     0.34672   0.58354   0.62796   0.00000  Uiso   1.00
C867   C     0.31425   0.97197   0.39745   0.00000  Uiso   1.00
C868   C     0.31330   0.93031   0.39426   0.00000  Uiso   1.00
C869   C     0.34637   0.91598   0.37215   0.00000  Uiso   1.00
C870   C     0.23621   0.53052   0.08217   0.00000  Uiso   1.00
C871   C     0.26374   0.53054   0.91783   0.00000  Uiso   1.00
C872   C     0.46950   0.73618   0.08217   0.00000  Uiso   1.00
C873   C     0.26366   0.53005   0.95841   0.00000  Uiso   1.00
C874   C     0.46945   0.76372   0.91783   0.00000  Uiso   1.00
C875   C     0.26379   0.96948   0.08217   0.00000  Uiso   1.00
C876   C     0.23626   0.96946   0.91783   0.00000  Uiso   1.00
C877   C     0.03050   0.76383   0.08217   0.00000  Uiso   1.00
C878   C     0.03055   0.73628   0.91783   0.00000  Uiso   1.00
C879   C     0.48634   0.78057   0.58218   0.00000  Uiso   1.00
C880   C     0.01391   0.78046   0.41784   0.00000  Uiso   1.00
C881   C     0.21944   0.98631   0.58218   0.00000  Uiso   1.00
C882   C     0.21951   0.51385   0.41784   0.00000  Uiso   1.00
C883   C     0.01366   0.71943   0.58218   0.00000  Uiso   1.00
C884   C     0.46999   0.73626   0.04159   0.00000  Uiso   1.00
C885   C     0.48609   0.71954   0.41784   0.00000  Uiso   1.00
C886   C     0.28056   0.51369   0.58217   0.00000  Uiso   1.00
C887   C     0.28049   0.98615   0.41783   0.00000  Uiso   1.00
C888   C     0.25000   0.50000   0.02130   0.00000  Uiso   1.00
C889   C     0.25000   0.50000   0.97870   0.00000  Uiso   1.00
C890   C     0.00000   0.75000   0.02130   0.00000  Uiso   1.00
C891   C     0.00000   0.75000   0.97869   0.00000  Uiso   1.00
C892   C     0.00000   0.75000   0.52131   0.00000  Uiso   1.00
C893   C     0.00000   0.75000   0.47870   0.00000  Uiso   1.00
C894   C     0.25000   0.50000   0.52131   0.00000  Uiso   1.00
C895   C     0.46995   0.76364   0.95841   0.00000  Uiso   1.00
C896   C     0.25000   0.50000   0.47870   0.00000  Uiso   1.00
C897   C     0.25000   0.50000   0.35505   0.00000  Uiso   1.00
C898   C     0.25000   0.50000   0.64495   0.00000  Uiso   1.00
C899   C     0.00000   0.75000   0.35505   0.00000  Uiso   1.00
C900   C    -0.00000   0.75000   0.64495   0.00000  Uiso   1.00
C901   C     0.00000   0.75000   0.85505   0.00000  Uiso   1.00
C902   C     0.00000   0.75000   0.14495   0.00000  Uiso   1.00
C903   C     0.25000   0.50000   0.85505   0.00000  Uiso   1.00
C904   C     0.25000   0.50000   0.14495   0.00000  Uiso   1.00
C905   C     0.17992   0.57008   0.25000   0.00000  Uiso   1.00
C906   C     0.26371   0.96998   0.04159   0.00000  Uiso   1.00
C907   C     0.32009   0.92991   0.75000   0.00000  Uiso   1.00
C908   C     0.42992   0.67992   0.25000   0.00000  Uiso   1.00
C909   C     0.07009   0.82009   0.75000   0.00000  Uiso   1.00
C910   C     0.32008   0.92992   0.25000   0.00000  Uiso   1.00
C911   C     0.17991   0.57009   0.75000   0.00000  Uiso   1.00
C912   C     0.07008   0.82008   0.25000   0.00000  Uiso   1.00
C913   C     0.42991   0.67991   0.75000   0.00000  Uiso   1.00
C914   C     0.17992   0.92992   0.75000   0.00000  Uiso   1.00
C915   C     0.32009   0.57009   0.25000   0.00000  Uiso   1.00
C916   C     0.42992   0.82008   0.75000   0.00000  Uiso   1.00
C917   C     0.23634   0.96996   0.95841   0.00000  Uiso   1.00
C918   C     0.07009   0.67991   0.25000   0.00000  Uiso   1.00
C919   C     0.32008   0.57008   0.75000   0.00000  Uiso   1.00
C920   C     0.17991   0.92991   0.25000   0.00000  Uiso   1.00
C921   C     0.07008   0.67992   0.75000   0.00000  Uiso   1.00
C922   C     0.42991   0.82009   0.25000   0.00000  Uiso   1.00
C923   C     0.12172   0.90498   0.22519   0.00000  Uiso   1.00
C924   C     0.37817   0.59510   0.77495   0.00000  Uiso   1.00
C925   C     0.09511   0.62180   0.22506   0.00000  Uiso   1.00
C926   C     0.40490   0.87816   0.77496   0.00000  Uiso   1.00
C927   C     0.37826   0.59504   0.22515   0.00000  Uiso   1.00
C928   C     0.03001   0.76375   0.04159   0.00000  Uiso   1.00
C929   C     0.12183   0.90491   0.77495   0.00000  Uiso   1.00
C930   C     0.40489   0.87820   0.22506   0.00000  Uiso   1.00
C931   C     0.09510   0.62184   0.77496   0.00000  Uiso   1.00
C932   C     0.12184   0.59515   0.77501   0.00000  Uiso   1.00
C933   C     0.37821   0.90494   0.22510   0.00000  Uiso   1.00
C934   C     0.09514   0.87816   0.77499   0.00000  Uiso   1.00
C935   C     0.40500   0.62173   0.22520   0.00000  Uiso   1.00
C936   C     0.37815   0.90485   0.77501   0.00000  Uiso   1.00
C937   C     0.12179   0.59506   0.22510   0.00000  Uiso   1.00
C938   C     0.40486   0.62184   0.77500   0.00000  Uiso   1.00
C939   C     0.03006   0.73636   0.95841   0.00000  Uiso   1.00
C940   C     0.09498   0.87829   0.22523   0.00000  Uiso   1.00
C941   C     0.37184   0.65485   0.72500   0.00000  Uiso   1.00
C942   C     0.12830   0.84497   0.27475   0.00000  Uiso   1.00
C943   C     0.34515   0.87185   0.72499   0.00000  Uiso   1.00
C944   C     0.15494   0.62821   0.27489   0.00000  Uiso   1.00
C945   C     0.12816   0.84514   0.72500   0.00000  Uiso   1.00
C946   C     0.37172   0.65501   0.27479   0.00000  Uiso   1.00
C947   C     0.15485   0.62815   0.72499   0.00000  Uiso   1.00
C948   C     0.34506   0.87179   0.27489   0.00000  Uiso   1.00
C949   C     0.37180   0.84510   0.27494   0.00000  Uiso   1.00
C950   C     0.48642   0.78008   0.54159   0.00000  Uiso   1.00
C951   C     0.12816   0.65489   0.72503   0.00000  Uiso   1.00
C952   C     0.34504   0.62827   0.27484   0.00000  Uiso   1.00
C953   C     0.15490   0.87183   0.72505   0.00000  Uiso   1.00
C954   C     0.12820   0.65490   0.27494   0.00000  Uiso   1.00
C955   C     0.37184   0.84511   0.72503   0.00000  Uiso   1.00
C956   C     0.15499   0.87171   0.27480   0.00000  Uiso   1.00
C957   C     0.34510   0.62817   0.72504   0.00000  Uiso   1.00
C958   C     0.09814   0.84813   0.24999   0.00000  Uiso   1.00
C959   C     0.40185   0.65185   0.75000   0.00000  Uiso   1.00
C960   C     0.15186   0.59814   0.25000   0.00000  Uiso   1.00
H961   H     0.11875   0.92802   0.20578   0.00000  Uiso   1.00
H962   H     0.38112   0.92794   0.20562   0.00000  Uiso   1.00
H963   H     0.09533   0.63623   0.87005   0.00000  Uiso   1.00
H964   H     0.06339   0.66835   0.92378   0.00000  Uiso   1.00
H965   H     0.03848   0.67174   0.87881   0.00000  Uiso   1.00
H966   H     0.06723   0.73447   0.86807   0.00000  Uiso   1.00
H967   H     0.08899   0.73078   0.91395   0.00000  Uiso   1.00
H968   H     0.42798   0.84725   0.65787   0.00000  Uiso   1.00
H969   H     0.42427   0.87230   0.61269   0.00000  Uiso   1.00
H970   H     0.38638   0.84548   0.63000   0.00000  Uiso   1.00
H971   H     0.41845   0.81350   0.57625   0.00000  Uiso   1.00
H972   H     0.42182   0.78859   0.62121   0.00000  Uiso   1.00
H973   H     0.07220   0.88103   0.79456   0.00000  Uiso   1.00
H974   H     0.48459   0.81726   0.63193   0.00000  Uiso   1.00
H975   H     0.48091   0.83902   0.58606   0.00000  Uiso   1.00
H976   H     0.07274   0.84683   0.34226   0.00000  Uiso   1.00
H977   H     0.07676   0.87173   0.38750   0.00000  Uiso   1.00
H978   H     0.11437   0.84461   0.37003   0.00000  Uiso   1.00
H979   H     0.08205   0.81284   0.42379   0.00000  Uiso   1.00
H980   H     0.07849   0.78802   0.37879   0.00000  Uiso   1.00
H981   H     0.01594   0.81714   0.36810   0.00000  Uiso   1.00
H982   H     0.01978   0.83887   0.41398   0.00000  Uiso   1.00
H983   H     0.15279   0.92789   0.65786   0.00000  Uiso   1.00
H984   H     0.42805   0.61877   0.20580   0.00000  Uiso   1.00
H985   H     0.12775   0.92417   0.61267   0.00000  Uiso   1.00
H986   H     0.15460   0.88630   0.62998   0.00000  Uiso   1.00
H987   H     0.18656   0.91840   0.57624   0.00000  Uiso   1.00
H988   H     0.21147   0.92178   0.62120   0.00000  Uiso   1.00
H989   H     0.18276   0.98453   0.63193   0.00000  Uiso   1.00
H990   H     0.16100   0.98084   0.58606   0.00000  Uiso   1.00
H991   H     0.15302   0.57259   0.34228   0.00000  Uiso   1.00
H992   H     0.12813   0.57650   0.38754   0.00000  Uiso   1.00
H993   H     0.15515   0.61419   0.37011   0.00000  Uiso   1.00
H994   H     0.18702   0.58192   0.42382   0.00000  Uiso   1.00
H995   H     0.38101   0.92778   0.79458   0.00000  Uiso   1.00
H996   H     0.21183   0.57843   0.37880   0.00000  Uiso   1.00
H997   H     0.18284   0.51583   0.36809   0.00000  Uiso   1.00
H998   H     0.16110   0.51960   0.41397   0.00000  Uiso   1.00
H999   H     0.07202   0.65275   0.65788   0.00000  Uiso   1.00
H1000  H     0.07573   0.62770   0.61270   0.00000  Uiso   1.00
H1001  H     0.11361   0.65452   0.63001   0.00000  Uiso   1.00
H1002  H     0.08155   0.68649   0.57625   0.00000  Uiso   1.00
H1003  H     0.07818   0.71142   0.62121   0.00000  Uiso   1.00
H1004  H     0.01540   0.68274   0.63193   0.00000  Uiso   1.00
H1005  H     0.01909   0.66098   0.58606   0.00000  Uiso   1.00
H1006  H     0.11888   0.57206   0.20562   0.00000  Uiso   1.00
H1007  H     0.42727   0.65313   0.34228   0.00000  Uiso   1.00
H1008  H     0.42324   0.62826   0.38754   0.00000  Uiso   1.00
H1009  H     0.38564   0.65538   0.37005   0.00000  Uiso   1.00
H1010  H     0.41795   0.68717   0.42379   0.00000  Uiso   1.00
H1011  H     0.42151   0.71197   0.37878   0.00000  Uiso   1.00
H1012  H     0.48406   0.68285   0.36810   0.00000  Uiso   1.00
H1013  H     0.48022   0.66113   0.41398   0.00000  Uiso   1.00
H1014  H     0.34720   0.57212   0.65785   0.00000  Uiso   1.00
H1015  H     0.37223   0.57585   0.61265   0.00000  Uiso   1.00
H1016  H     0.34538   0.61371   0.62997   0.00000  Uiso   1.00
H1017  H     0.42779   0.61898   0.79457   0.00000  Uiso   1.00
H1018  H     0.31342   0.58161   0.57623   0.00000  Uiso   1.00
H1019  H     0.28852   0.57822   0.62120   0.00000  Uiso   1.00
H1020  H     0.31724   0.51548   0.63193   0.00000  Uiso   1.00
H1021  H     0.33900   0.51917   0.58605   0.00000  Uiso   1.00
H1022  H     0.34697   0.92742   0.34227   0.00000  Uiso   1.00
H1023  H     0.37189   0.92354   0.38752   0.00000  Uiso   1.00
H1024  H     0.34488   0.88582   0.37011   0.00000  Uiso   1.00
H1025  H     0.31302   0.91809   0.42382   0.00000  Uiso   1.00
H1026  H     0.28818   0.92157   0.37881   0.00000  Uiso   1.00
H1027  H     0.31716   0.98417   0.36808   0.00000  Uiso   1.00
H1028  H     0.07191   0.88127   0.20586   0.00000  Uiso   1.00
H1029  H     0.33890   0.98042   0.41396   0.00000  Uiso   1.00
H1030  H     0.36898   0.67779   0.70543   0.00000  Uiso   1.00
H1031  H     0.13128   0.82190   0.29413   0.00000  Uiso   1.00
H1032  H     0.32222   0.86899   0.70541   0.00000  Uiso   1.00
H1033  H     0.38105   0.57213   0.79448   0.00000  Uiso   1.00
H1034  H     0.17794   0.63112   0.29437   0.00000  Uiso   1.00
H1035  H     0.13103   0.82220   0.70544   0.00000  Uiso   1.00
H1036  H     0.36876   0.67806   0.29419   0.00000  Uiso   1.00
H1037  H     0.17778   0.63101   0.70541   0.00000  Uiso   1.00
H1038  H     0.32206   0.86888   0.29437   0.00000  Uiso   1.00
H1039  H     0.36890   0.82213   0.29446   0.00000  Uiso   1.00
H1040  H     0.13103   0.67785   0.70550   0.00000  Uiso   1.00
H1041  H     0.32201   0.63122   0.29428   0.00000  Uiso   1.00
H1042  H     0.17787   0.86895   0.70552   0.00000  Uiso   1.00
H1043  H     0.13110   0.67787   0.29446   0.00000  Uiso   1.00
H1044  H     0.07214   0.61891   0.20554   0.00000  Uiso   1.00
H1045  H     0.36897   0.82215   0.70549   0.00000  Uiso   1.00
H1046  H     0.17803   0.86874   0.29421   0.00000  Uiso   1.00
H1047  H     0.32214   0.63104   0.70551   0.00000  Uiso   1.00
H1048  H     0.22548   0.55314   0.02571   0.00000  Uiso   1.00
H1049  H     0.27445   0.55317   0.97429   0.00000  Uiso   1.00
H1050  H     0.44689   0.72541   0.02571   0.00000  Uiso   1.00
H1051  H     0.44681   0.77441   0.97429   0.00000  Uiso   1.00
H1052  H     0.27452   0.94686   0.02571   0.00000  Uiso   1.00
H1053  H     0.22555   0.94683   0.97429   0.00000  Uiso   1.00
H1054  H     0.05311   0.77459   0.02571   0.00000  Uiso   1.00
H1055  H     0.42786   0.88104   0.79450   0.00000  Uiso   1.00
H1056  H     0.05319   0.72560   0.97429   0.00000  Uiso   1.00
H1057  H     0.47570   0.80324   0.52571   0.00000  Uiso   1.00
H1058  H     0.02474   0.80303   0.47430   0.00000  Uiso   1.00
H1059  H     0.19679   0.97564   0.52571   0.00000  Uiso   1.00
H1060  H     0.19692   0.52464   0.47430   0.00000  Uiso   1.00
H1061  H     0.02430   0.69676   0.52572   0.00000  Uiso   1.00
H1062  H     0.47526   0.69696   0.47430   0.00000  Uiso   1.00
H1063  H     0.30321   0.52435   0.52571   0.00000  Uiso   1.00
H1064  H     0.30308   0.97536   0.47430   0.00000  Uiso   1.00
H1065  H     0.17760   0.59705   0.15780   0.00000  Uiso   1.00
H1066  H     0.38121   0.57202   0.20571   0.00000  Uiso   1.00
H1067  H     0.17381   0.62204   0.11259   0.00000  Uiso   1.00
H1068  H     0.13601   0.59510   0.12993   0.00000  Uiso   1.00
H1069  H     0.16822   0.56321   0.07620   0.00000  Uiso   1.00
H1070  H     0.17165   0.53833   0.12117   0.00000  Uiso   1.00
H1071  H     0.23431   0.56719   0.13193   0.00000  Uiso   1.00
H1072  H     0.23059   0.58895   0.08605   0.00000  Uiso   1.00
H1073  H     0.32226   0.59715   0.84219   0.00000  Uiso   1.00
H1074  H     0.32602   0.62215   0.88740   0.00000  Uiso   1.00
H1075  H     0.36385   0.59525   0.87006   0.00000  Uiso   1.00
H1076  H     0.33169   0.56332   0.92379   0.00000  Uiso   1.00
H1077  H     0.11894   0.92788   0.79447   0.00000  Uiso   1.00
H1078  H     0.32829   0.53843   0.87881   0.00000  Uiso   1.00
H1079  H     0.26558   0.56722   0.86807   0.00000  Uiso   1.00
H1080  H     0.26928   0.58898   0.91395   0.00000  Uiso   1.00
H1081  H     0.40306   0.67751   0.15782   0.00000  Uiso   1.00
H1082  H     0.37804   0.67368   0.11263   0.00000  Uiso   1.00
H1083  H     0.40503   0.63592   0.12995   0.00000  Uiso   1.00
H1084  H     0.43686   0.66815   0.07620   0.00000  Uiso   1.00
H1085  H     0.46176   0.67161   0.12116   0.00000  Uiso   1.00
H1086  H     0.43282   0.73425   0.13192   0.00000  Uiso   1.00
H1087  H     0.41108   0.73050   0.08604   0.00000  Uiso   1.00
H1088  H     0.42786   0.88109   0.20554   0.00000  Uiso   1.00
H1089  H     0.40282   0.82218   0.84217   0.00000  Uiso   1.00
H1090  H     0.37780   0.82591   0.88736   0.00000  Uiso   1.00
H1091  H     0.40466   0.86377   0.87005   0.00000  Uiso   1.00
H1092  H     0.43661   0.83164   0.92378   0.00000  Uiso   1.00
H1093  H     0.46151   0.82826   0.87881   0.00000  Uiso   1.00
H1094  H     0.43277   0.76552   0.86807   0.00000  Uiso   1.00
H1095  H     0.41101   0.76921   0.91395   0.00000  Uiso   1.00
H1096  H     0.32240   0.90294   0.15779   0.00000  Uiso   1.00
H1097  H     0.32618   0.87795   0.11258   0.00000  Uiso   1.00
H1098  H     0.36398   0.90488   0.12991   0.00000  Uiso   1.00
H1099  H     0.07214   0.61896   0.79450   0.00000  Uiso   1.00
H1100  H     0.33177   0.93678   0.07619   0.00000  Uiso   1.00
H1101  H     0.32835   0.96166   0.12117   0.00000  Uiso   1.00
H1102  H     0.26568   0.93281   0.13192   0.00000  Uiso   1.00
H1103  H     0.26940   0.91105   0.08605   0.00000  Uiso   1.00
H1104  H     0.17774   0.90286   0.84219   0.00000  Uiso   1.00
H1105  H     0.17397   0.87786   0.88739   0.00000  Uiso   1.00
H1106  H     0.13615   0.90476   0.87006   0.00000  Uiso   1.00
H1107  H     0.16830   0.93669   0.92379   0.00000  Uiso   1.00
H1108  H     0.17171   0.96158   0.87882   0.00000  Uiso   1.00
H1109  H     0.23441   0.93278   0.86807   0.00000  Uiso   1.00
H1110  H     0.11899   0.57222   0.79458   0.00000  Uiso   1.00
H1111  H     0.23071   0.91103   0.91395   0.00000  Uiso   1.00
H1112  H     0.09692   0.82250   0.15784   0.00000  Uiso   1.00
H1113  H     0.12194   0.82633   0.11266   0.00000  Uiso   1.00
H1114  H     0.09494   0.86409   0.12998   0.00000  Uiso   1.00
H1115  H     0.06313   0.83186   0.07621   0.00000  Uiso   1.00
H1116  H     0.03822   0.82839   0.12116   0.00000  Uiso   1.00
H1117  H     0.06718   0.76575   0.13192   0.00000  Uiso   1.00
H1118  H     0.08892   0.76952   0.08605   0.00000  Uiso   1.00
H1119  H     0.09717   0.67781   0.84217   0.00000  Uiso   1.00
H1120  H     0.12220   0.67408   0.88736   0.00000  Uiso   1.00
O1121  O     0.25000   0.50000   0.25000   0.00000  Uiso   1.00
O1122  O     0.25000   0.96964   0.66317   0.00000  Uiso   1.00
O1123  O     0.46964   0.75000   0.33683   0.00000  Uiso   1.00
O1124  O     0.03036   0.75000   0.66317   0.00000  Uiso   1.00
O1125  O    -0.00000   0.71964   0.83683   0.00000  Uiso   1.00
O1126  O    -0.00000   0.78036   0.16317   0.00000  Uiso   1.00
O1127  O     0.28036   0.50000   0.83683   0.00000  Uiso   1.00
O1128  O     0.21964   0.50000   0.16317   0.00000  Uiso   1.00
O1129  O    -0.00000   0.78036   0.83683   0.00000  Uiso   1.00
O1130  O    -0.00000   0.71964   0.16317   0.00000  Uiso   1.00
O1131  O     0.21964   0.50000   0.83683   0.00000  Uiso   1.00
O1132  O     0.25000   0.50000   0.75000   0.00000  Uiso   1.00
O1133  O     0.28036   0.50000   0.16317   0.00000  Uiso   1.00
O1134  O     0.20725   0.57307   0.27282   0.00000  Uiso   1.00
O1135  O     0.29274   0.92693   0.72718   0.00000  Uiso   1.00
O1136  O     0.42693   0.70726   0.27282   0.00000  Uiso   1.00
O1137  O     0.07307   0.79274   0.72718   0.00000  Uiso   1.00
O1138  O     0.29274   0.92693   0.27282   0.00000  Uiso   1.00
O1139  O     0.20725   0.57307   0.72718   0.00000  Uiso   1.00
O1140  O     0.07307   0.79274   0.27282   0.00000  Uiso   1.00
O1141  O     0.42693   0.70726   0.72718   0.00000  Uiso   1.00
O1142  O     0.20725   0.92693   0.72718   0.00000  Uiso   1.00
O1143  O    -0.00000   0.75000   0.25000   0.00000  Uiso   1.00
O1144  O     0.29274   0.57307   0.27282   0.00000  Uiso   1.00
O1145  O     0.42693   0.79275   0.72718   0.00000  Uiso   1.00
O1146  O     0.07307   0.70725   0.27282   0.00000  Uiso   1.00
O1147  O     0.29274   0.57307   0.72718   0.00000  Uiso   1.00
O1148  O     0.20725   0.92693   0.27282   0.00000  Uiso   1.00
O1149  O     0.07307   0.70725   0.72718   0.00000  Uiso   1.00
O1150  O     0.42693   0.79275   0.27282   0.00000  Uiso   1.00
O1151  O     0.45725   0.82307   0.77282   0.00000  Uiso   1.00
O1152  O     0.04274   0.67693   0.22718   0.00000  Uiso   1.00
O1153  O     0.17693   0.95725   0.77282   0.00000  Uiso   1.00
O1154  O    -0.00000   0.75000   0.75000   0.00000  Uiso   1.00
O1155  O     0.32307   0.54275   0.22718   0.00000  Uiso   1.00
O1156  O     0.04274   0.67693   0.77282   0.00000  Uiso   1.00
O1157  O     0.45725   0.82307   0.22718   0.00000  Uiso   1.00
O1158  O     0.32307   0.54275   0.77282   0.00000  Uiso   1.00
O1159  O     0.17693   0.95725   0.22718   0.00000  Uiso   1.00
O1160  O     0.45725   0.67693   0.22718   0.00000  Uiso   1.00
O1161  O     0.04274   0.82307   0.77282   0.00000  Uiso   1.00
O1162  O     0.17693   0.54275   0.22718   0.00000  Uiso   1.00
O1163  O     0.32307   0.95726   0.77282   0.00000  Uiso   1.00
O1164  O     0.04274   0.82307   0.22718   0.00000  Uiso   1.00
O1165  O     0.25000   0.96964   0.33683   0.00000  Uiso   1.00
O1166  O     0.45725   0.67693   0.77282   0.00000  Uiso   1.00
O1167  O     0.32307   0.95726   0.22718   0.00000  Uiso   1.00
O1168  O     0.17693   0.54275   0.77282   0.00000  Uiso   1.00
O1169  O     0.25000   0.53036   0.66317   0.00000  Uiso   1.00
O1170  O     0.03036   0.75000   0.33683   0.00000  Uiso   1.00
O1171  O     0.46964   0.75000   0.66317   0.00000  Uiso   1.00
O1172  O     0.25000   0.53036   0.33683   0.00000  Uiso   1.00
Zn1173 Zn    0.20660   0.50000   0.21760   0.00000  Uiso   1.00
Zn1174 Zn    0.04340   0.75000   0.28240   0.00000  Uiso   1.00
Zn1175 Zn    0.25000   0.95660   0.71760   0.00000  Uiso   1.00
Zn1176 Zn    0.25000   0.54340   0.28240   0.00000  Uiso   1.00
Zn1177 Zn    0.04340   0.75000   0.71760   0.00000  Uiso   1.00
Zn1178 Zn    0.45660   0.75000   0.28240   0.00000  Uiso   1.00
Zn1179 Zn    0.25000   0.54340   0.71760   0.00000  Uiso   1.00
Zn1180 Zn    0.25000   0.95660   0.28240   0.00000  Uiso   1.00
Zn1181 Zn    0.29340   0.50000   0.78240   0.00000  Uiso   1.00
Zn1182 Zn   -0.00000   0.70660   0.21760   0.00000  Uiso   1.00
Zn1183 Zn   -0.00000   0.79340   0.78240   0.00000  Uiso   1.00
Zn1184 Zn    0.29340   0.50000   0.21760   0.00000  Uiso   1.00
Zn1185 Zn    0.20660   0.50000   0.78240   0.00000  Uiso   1.00
Zn1186 Zn   -0.00000   0.79340   0.21760   0.00000  Uiso   1.00
Zn1187 Zn   -0.00000   0.70660   0.78240   0.00000  Uiso   1.00
Zn1188 Zn    0.45660   0.75000   0.71760   0.00000  Uiso   1.00
C1189  C     0.73629   0.53003   0.04159   0.00000  Uiso   1.00
C1190  C     0.51383   0.77997   0.45842   0.00000  Uiso   1.00
C1191  C     0.84815   0.90185   0.75000   0.00000  Uiso   1.00
C1192  C     0.90186   0.65187   0.25000   0.00000  Uiso   1.00
C1193  C     0.59815   0.84815   0.75000   0.00000  Uiso   1.00
C1194  C     0.84814   0.90186   0.25000   0.00000  Uiso   1.00
C1195  C     0.65185   0.59815   0.75000   0.00000  Uiso   1.00
C1196  C     0.59814   0.65186   0.75000   0.00000  Uiso   1.00
C1197  C     0.90185   0.84815   0.25000   0.00000  Uiso   1.00
C1198  C     0.65186   0.90186   0.75000   0.00000  Uiso   1.00
C1199  C     0.84815   0.59815   0.25000   0.00000  Uiso   1.00
C1200  C     0.90186   0.84814   0.75000   0.00000  Uiso   1.00
C1201  C     0.71993   0.98638   0.54159   0.00000  Uiso   1.00
C1202  C     0.59815   0.65185   0.25000   0.00000  Uiso   1.00
C1203  C     0.84814   0.59814   0.75000   0.00000  Uiso   1.00
C1204  C     0.65185   0.90185   0.25000   0.00000  Uiso   1.00
C1205  C     0.75000   0.50000   0.10261   0.00000  Uiso   1.00
C1206  C     0.75000   0.50000   0.89739   0.00000  Uiso   1.00
C1207  C     0.50000   0.75000   0.10261   0.00000  Uiso   1.00
C1208  C     0.50000   0.75000   0.89739   0.00000  Uiso   1.00
C1209  C     0.50000   0.75000   0.60261   0.00000  Uiso   1.00
C1210  C     0.50000   0.75000   0.39740   0.00000  Uiso   1.00
C1211  C     0.75000   0.50000   0.60261   0.00000  Uiso   1.00
C1212  C     0.72001   0.51377   0.45842   0.00000  Uiso   1.00
C1213  C     0.75000   0.50000   0.39740   0.00000  Uiso   1.00
C1214  C     0.72210   0.56431   0.10256   0.00000  Uiso   1.00
C1215  C     0.68044   0.56344   0.10576   0.00000  Uiso   1.00
C1216  C     0.66618   0.59652   0.12791   0.00000  Uiso   1.00
C1217  C     0.77781   0.56435   0.89743   0.00000  Uiso   1.00
C1218  C     0.81947   0.56353   0.89423   0.00000  Uiso   1.00
C1219  C     0.83368   0.59663   0.87208   0.00000  Uiso   1.00
C1220  C     0.93572   0.72203   0.10256   0.00000  Uiso   1.00
C1221  C     0.93664   0.68037   0.10576   0.00000  Uiso   1.00
C1222  C     0.90358   0.66608   0.12794   0.00000  Uiso   1.00
C1223  C     0.51358   0.71992   0.54160   0.00000  Uiso   1.00
C1224  C     0.93563   0.77776   0.89743   0.00000  Uiso   1.00
C1225  C     0.93641   0.81942   0.89422   0.00000  Uiso   1.00
C1226  C     0.90331   0.83360   0.87206   0.00000  Uiso   1.00
C1227  C     0.77790   0.93569   0.10256   0.00000  Uiso   1.00
C1228  C     0.81956   0.93655   0.10575   0.00000  Uiso   1.00
C1229  C     0.83381   0.90347   0.12790   0.00000  Uiso   1.00
C1230  C     0.72219   0.93565   0.89743   0.00000  Uiso   1.00
C1231  C     0.68053   0.93647   0.89423   0.00000  Uiso   1.00
C1232  C     0.66631   0.90338   0.87207   0.00000  Uiso   1.00
C1233  C     0.56428   0.77798   0.10256   0.00000  Uiso   1.00
C1234  C     0.98617   0.72003   0.45842   0.00000  Uiso   1.00
C1235  C     0.56335   0.81964   0.10577   0.00000  Uiso   1.00
C1236  C     0.59640   0.83393   0.12796   0.00000  Uiso   1.00
C1237  C     0.56437   0.72224   0.89743   0.00000  Uiso   1.00
C1238  C     0.56358   0.68058   0.89423   0.00000  Uiso   1.00
C1239  C     0.59668   0.66640   0.87205   0.00000  Uiso   1.00
C1240  C     0.97235   0.81441   0.60258   0.00000  Uiso   1.00
C1241  C     0.93069   0.81368   0.60580   0.00000  Uiso   1.00
C1242  C     0.91655   0.84679   0.62799   0.00000  Uiso   1.00
C1243  C     0.52817   0.81420   0.39745   0.00000  Uiso   1.00
C1244  C     0.56982   0.81315   0.39424   0.00000  Uiso   1.00
C1245  C     0.78007   0.51361   0.54159   0.00000  Uiso   1.00
C1246  C     0.58421   0.84619   0.37212   0.00000  Uiso   1.00
C1247  C     0.68561   0.97229   0.60257   0.00000  Uiso   1.00
C1248  C     0.68637   0.93063   0.60579   0.00000  Uiso   1.00
C1249  C     0.65327   0.91647   0.62797   0.00000  Uiso   1.00
C1250  C     0.68575   0.52804   0.39745   0.00000  Uiso   1.00
C1251  C     0.68672   0.56970   0.39426   0.00000  Uiso   1.00
C1252  C     0.65364   0.58403   0.37216   0.00000  Uiso   1.00
C1253  C     0.52765   0.68559   0.60258   0.00000  Uiso   1.00
C1254  C     0.56931   0.68632   0.60580   0.00000  Uiso   1.00
C1255  C     0.58344   0.65321   0.62799   0.00000  Uiso   1.00
C1256  C     0.77999   0.98622   0.45842   0.00000  Uiso   1.00
C1257  C     0.97184   0.68580   0.39745   0.00000  Uiso   1.00
C1258  C     0.93018   0.68685   0.39424   0.00000  Uiso   1.00
C1259  C     0.91579   0.65379   0.37214   0.00000  Uiso   1.00
C1260  C     0.81439   0.52772   0.60257   0.00000  Uiso   1.00
C1261  C     0.81361   0.56938   0.60579   0.00000  Uiso   1.00
C1262  C     0.84672   0.58354   0.62796   0.00000  Uiso   1.00
C1263  C     0.81425   0.97197   0.39745   0.00000  Uiso   1.00
C1264  C     0.81330   0.93031   0.39426   0.00000  Uiso   1.00
C1265  C     0.84637   0.91598   0.37215   0.00000  Uiso   1.00
C1266  C     0.73621   0.53052   0.08217   0.00000  Uiso   1.00
C1267  C     0.76374   0.53054   0.91783   0.00000  Uiso   1.00
C1268  C     0.96950   0.73618   0.08217   0.00000  Uiso   1.00
C1269  C     0.76366   0.53005   0.95841   0.00000  Uiso   1.00
C1270  C     0.96945   0.76372   0.91783   0.00000  Uiso   1.00
C1271  C     0.76379   0.96948   0.08217   0.00000  Uiso   1.00
C1272  C     0.73626   0.96946   0.91783   0.00000  Uiso   1.00
C1273  C     0.53050   0.76383   0.08217   0.00000  Uiso   1.00
C1274  C     0.53055   0.73628   0.91783   0.00000  Uiso   1.00
C1275  C     0.98634   0.78057   0.58218   0.00000  Uiso   1.00
C1276  C     0.51391   0.78046   0.41784   0.00000  Uiso   1.00
C1277  C     0.71944   0.98631   0.58218   0.00000  Uiso   1.00
C1278  C     0.71951   0.51385   0.41784   0.00000  Uiso   1.00
C1279  C     0.51366   0.71943   0.58218   0.00000  Uiso   1.00
C1280  C     0.96999   0.73626   0.04159   0.00000  Uiso   1.00
C1281  C     0.98609   0.71954   0.41784   0.00000  Uiso   1.00
C1282  C     0.78056   0.51369   0.58217   0.00000  Uiso   1.00
C1283  C     0.78049   0.98615   0.41783   0.00000  Uiso   1.00
C1284  C     0.75000   0.50000   0.02130   0.00000  Uiso   1.00
C1285  C     0.75000   0.50000   0.97870   0.00000  Uiso   1.00
C1286  C     0.50000   0.75000   0.02130   0.00000  Uiso   1.00
C1287  C     0.50000   0.75000   0.97869   0.00000  Uiso   1.00
C1288  C     0.50000   0.75000   0.52131   0.00000  Uiso   1.00
C1289  C     0.50000   0.75000   0.47870   0.00000  Uiso   1.00
C1290  C     0.75000   0.50000   0.52131   0.00000  Uiso   1.00
C1291  C     0.96995   0.76364   0.95841   0.00000  Uiso   1.00
C1292  C     0.75000   0.50000   0.47870   0.00000  Uiso   1.00
C1293  C     0.75000   0.50000   0.35505   0.00000  Uiso   1.00
C1294  C     0.75000   0.50000   0.64495   0.00000  Uiso   1.00
C1295  C     0.50000   0.75000   0.35505   0.00000  Uiso   1.00
C1296  C     0.50000   0.75000   0.64495   0.00000  Uiso   1.00
C1297  C     0.50000   0.75000   0.85505   0.00000  Uiso   1.00
C1298  C     0.50000   0.75000   0.14495   0.00000  Uiso   1.00
C1299  C     0.75000   0.50000   0.85505   0.00000  Uiso   1.00
C1300  C     0.75000   0.50000   0.14495   0.00000  Uiso   1.00
C1301  C     0.67992   0.57008   0.25000   0.00000  Uiso   1.00
C1302  C     0.76371   0.96998   0.04159   0.00000  Uiso   1.00
C1303  C     0.82009   0.92991   0.75000   0.00000  Uiso   1.00
C1304  C     0.92992   0.67992   0.25000   0.00000  Uiso   1.00
C1305  C     0.57009   0.82009   0.75000   0.00000  Uiso   1.00
C1306  C     0.82008   0.92992   0.25000   0.00000  Uiso   1.00
C1307  C     0.67991   0.57009   0.75000   0.00000  Uiso   1.00
C1308  C     0.57008   0.82008   0.25000   0.00000  Uiso   1.00
C1309  C     0.92991   0.67991   0.75000   0.00000  Uiso   1.00
C1310  C     0.67992   0.92992   0.75000   0.00000  Uiso   1.00
C1311  C     0.82009   0.57009   0.25000   0.00000  Uiso   1.00
C1312  C     0.92992   0.82008   0.75000   0.00000  Uiso   1.00
C1313  C     0.73634   0.96996   0.95841   0.00000  Uiso   1.00
C1314  C     0.57009   0.67991   0.25000   0.00000  Uiso   1.00
C1315  C     0.82008   0.57008   0.75000   0.00000  Uiso   1.00
C1316  C     0.67991   0.92991   0.25000   0.00000  Uiso   1.00
C1317  C     0.57008   0.67992   0.75000   0.00000  Uiso   1.00
C1318  C     0.92991   0.82009   0.25000   0.00000  Uiso   1.00
C1319  C     0.62172   0.90498   0.22519   0.00000  Uiso   1.00
C1320  C     0.87817   0.59510   0.77495   0.00000  Uiso   1.00
C1321  C     0.59511   0.62180   0.22506   0.00000  Uiso   1.00
C1322  C     0.90490   0.87816   0.77496   0.00000  Uiso   1.00
C1323  C     0.87826   0.59504   0.22515   0.00000  Uiso   1.00
C1324  C     0.53001   0.76375   0.04159   0.00000  Uiso   1.00
C1325  C     0.62183   0.90491   0.77495   0.00000  Uiso   1.00
C1326  C     0.90489   0.87820   0.22506   0.00000  Uiso   1.00
C1327  C     0.59510   0.62184   0.77496   0.00000  Uiso   1.00
C1328  C     0.62184   0.59515   0.77501   0.00000  Uiso   1.00
C1329  C     0.87821   0.90494   0.22510   0.00000  Uiso   1.00
C1330  C     0.59514   0.87816   0.77499   0.00000  Uiso   1.00
C1331  C     0.90500   0.62173   0.22520   0.00000  Uiso   1.00
C1332  C     0.87815   0.90485   0.77501   0.00000  Uiso   1.00
C1333  C     0.62179   0.59506   0.22510   0.00000  Uiso   1.00
C1334  C     0.90486   0.62184   0.77500   0.00000  Uiso   1.00
C1335  C     0.53006   0.73636   0.95841   0.00000  Uiso   1.00
C1336  C     0.59498   0.87829   0.22523   0.00000  Uiso   1.00
C1337  C     0.87184   0.65485   0.72500   0.00000  Uiso   1.00
C1338  C     0.62830   0.84497   0.27475   0.00000  Uiso   1.00
C1339  C     0.84515   0.87185   0.72499   0.00000  Uiso   1.00
C1340  C     0.65494   0.62821   0.27489   0.00000  Uiso   1.00
C1341  C     0.62816   0.84514   0.72500   0.00000  Uiso   1.00
C1342  C     0.87172   0.65501   0.27479   0.00000  Uiso   1.00
C1343  C     0.65485   0.62815   0.72499   0.00000  Uiso   1.00
C1344  C     0.84506   0.87179   0.27489   0.00000  Uiso   1.00
C1345  C     0.87180   0.84510   0.27494   0.00000  Uiso   1.00
C1346  C     0.98642   0.78008   0.54159   0.00000  Uiso   1.00
C1347  C     0.62816   0.65489   0.72503   0.00000  Uiso   1.00
C1348  C     0.84504   0.62827   0.27484   0.00000  Uiso   1.00
C1349  C     0.65490   0.87183   0.72505   0.00000  Uiso   1.00
C1350  C     0.62820   0.65490   0.27494   0.00000  Uiso   1.00
C1351  C     0.87184   0.84511   0.72503   0.00000  Uiso   1.00
C1352  C     0.65499   0.87171   0.27480   0.00000  Uiso   1.00
C1353  C     0.84510   0.62817   0.72504   0.00000  Uiso   1.00
C1354  C     0.59814   0.84813   0.24999   0.00000  Uiso   1.00
C1355  C     0.90185   0.65185   0.75000   0.00000  Uiso   1.00
C1356  C     0.65186   0.59814   0.25000   0.00000  Uiso   1.00
H1357  H     0.61875   0.92802   0.20578   0.00000  Uiso   1.00
H1358  H     0.88112   0.92794   0.20562   0.00000  Uiso   1.00
H1359  H     0.59533   0.63623   0.87005   0.00000  Uiso   1.00
H1360  H     0.56339   0.66835   0.92378   0.00000  Uiso   1.00
H1361  H     0.53848   0.67174   0.87881   0.00000  Uiso   1.00
H1362  H     0.56723   0.73447   0.86807   0.00000  Uiso   1.00
H1363  H     0.58899   0.73078   0.91395   0.00000  Uiso   1.00
H1364  H     0.92798   0.84725   0.65787   0.00000  Uiso   1.00
H1365  H     0.92427   0.87230   0.61269   0.00000  Uiso   1.00
H1366  H     0.88638   0.84548   0.63000   0.00000  Uiso   1.00
H1367  H     0.91845   0.81350   0.57625   0.00000  Uiso   1.00
H1368  H     0.92182   0.78859   0.62121   0.00000  Uiso   1.00
H1369  H     0.57220   0.88103   0.79456   0.00000  Uiso   1.00
H1370  H     0.98459   0.81726   0.63193   0.00000  Uiso   1.00
H1371  H     0.98091   0.83902   0.58606   0.00000  Uiso   1.00
H1372  H     0.57274   0.84683   0.34226   0.00000  Uiso   1.00
H1373  H     0.57676   0.87173   0.38750   0.00000  Uiso   1.00
H1374  H     0.61437   0.84461   0.37003   0.00000  Uiso   1.00
H1375  H     0.58205   0.81284   0.42379   0.00000  Uiso   1.00
H1376  H     0.57849   0.78802   0.37879   0.00000  Uiso   1.00
H1377  H     0.51594   0.81714   0.36810   0.00000  Uiso   1.00
H1378  H     0.51978   0.83887   0.41398   0.00000  Uiso   1.00
H1379  H     0.65279   0.92789   0.65786   0.00000  Uiso   1.00
H1380  H     0.92805   0.61877   0.20580   0.00000  Uiso   1.00
H1381  H     0.62775   0.92417   0.61267   0.00000  Uiso   1.00
H1382  H     0.65460   0.88630   0.62998   0.00000  Uiso   1.00
H1383  H     0.68656   0.91840   0.57624   0.00000  Uiso   1.00
H1384  H     0.71147   0.92178   0.62120   0.00000  Uiso   1.00
H1385  H     0.68276   0.98453   0.63193   0.00000  Uiso   1.00
H1386  H     0.66100   0.98084   0.58606   0.00000  Uiso   1.00
H1387  H     0.65302   0.57259   0.34228   0.00000  Uiso   1.00
H1388  H     0.62813   0.57650   0.38754   0.00000  Uiso   1.00
H1389  H     0.65515   0.61419   0.37011   0.00000  Uiso   1.00
H1390  H     0.68702   0.58192   0.42382   0.00000  Uiso   1.00
H1391  H     0.88101   0.92778   0.79458   0.00000  Uiso   1.00
H1392  H     0.71183   0.57843   0.37880   0.00000  Uiso   1.00
H1393  H     0.68284   0.51583   0.36809   0.00000  Uiso   1.00
H1394  H     0.66110   0.51960   0.41397   0.00000  Uiso   1.00
H1395  H     0.57202   0.65275   0.65788   0.00000  Uiso   1.00
H1396  H     0.57573   0.62770   0.61270   0.00000  Uiso   1.00
H1397  H     0.61361   0.65452   0.63001   0.00000  Uiso   1.00
H1398  H     0.58155   0.68649   0.57625   0.00000  Uiso   1.00
H1399  H     0.57818   0.71142   0.62121   0.00000  Uiso   1.00
H1400  H     0.51540   0.68274   0.63193   0.00000  Uiso   1.00
H1401  H     0.51909   0.66098   0.58606   0.00000  Uiso   1.00
H1402  H     0.61888   0.57206   0.20562   0.00000  Uiso   1.00
H1403  H     0.92727   0.65313   0.34228   0.00000  Uiso   1.00
H1404  H     0.92324   0.62826   0.38754   0.00000  Uiso   1.00
H1405  H     0.88564   0.65538   0.37005   0.00000  Uiso   1.00
H1406  H     0.91795   0.68717   0.42379   0.00000  Uiso   1.00
H1407  H     0.92151   0.71197   0.37878   0.00000  Uiso   1.00
H1408  H     0.98406   0.68285   0.36810   0.00000  Uiso   1.00
H1409  H     0.98022   0.66113   0.41398   0.00000  Uiso   1.00
H1410  H     0.84720   0.57212   0.65785   0.00000  Uiso   1.00
H1411  H     0.87223   0.57585   0.61265   0.00000  Uiso   1.00
H1412  H     0.84538   0.61371   0.62997   0.00000  Uiso   1.00
H1413  H     0.92779   0.61898   0.79457   0.00000  Uiso   1.00
H1414  H     0.81342   0.58161   0.57623   0.00000  Uiso   1.00
H1415  H     0.78852   0.57822   0.62120   0.00000  Uiso   1.00
H1416  H     0.81724   0.51548   0.63193   0.00000  Uiso   1.00
H1417  H     0.83900   0.51917   0.58605   0.00000  Uiso   1.00
H1418  H     0.84697   0.92742   0.34227   0.00000  Uiso   1.00
H1419  H     0.87189   0.92354   0.38752   0.00000  Uiso   1.00
H1420  H     0.84488   0.88582   0.37011   0.00000  Uiso   1.00
H1421  H     0.81302   0.91809   0.42382   0.00000  Uiso   1.00
H1422  H     0.78818   0.92157   0.37881   0.00000  Uiso   1.00
H1423  H     0.81716   0.98417   0.36808   0.00000  Uiso   1.00
H1424  H     0.57191   0.88127   0.20586   0.00000  Uiso   1.00
H1425  H     0.83890   0.98042   0.41396   0.00000  Uiso   1.00
H1426  H     0.86898   0.67779   0.70543   0.00000  Uiso   1.00
H1427  H     0.63128   0.82190   0.29413   0.00000  Uiso   1.00
H1428  H     0.82222   0.86899   0.70541   0.00000  Uiso   1.00
H1429  H     0.88105   0.57213   0.79448   0.00000  Uiso   1.00
H1430  H     0.67794   0.63112   0.29437   0.00000  Uiso   1.00
H1431  H     0.63103   0.82220   0.70544   0.00000  Uiso   1.00
H1432  H     0.86876   0.67806   0.29419   0.00000  Uiso   1.00
H1433  H     0.67778   0.63101   0.70541   0.00000  Uiso   1.00
H1434  H     0.82206   0.86888   0.29437   0.00000  Uiso   1.00
H1435  H     0.86890   0.82213   0.29446   0.00000  Uiso   1.00
H1436  H     0.63103   0.67785   0.70550   0.00000  Uiso   1.00
H1437  H     0.82201   0.63122   0.29428   0.00000  Uiso   1.00
H1438  H     0.67787   0.86895   0.70552   0.00000  Uiso   1.00
H1439  H     0.63110   0.67787   0.29446   0.00000  Uiso   1.00
H1440  H     0.57214   0.61891   0.20554   0.00000  Uiso   1.00
H1441  H     0.86897   0.82215   0.70549   0.00000  Uiso   1.00
H1442  H     0.67803   0.86874   0.29421   0.00000  Uiso   1.00
H1443  H     0.82214   0.63104   0.70551   0.00000  Uiso   1.00
H1444  H     0.72548   0.55314   0.02571   0.00000  Uiso   1.00
H1445  H     0.77445   0.55317   0.97429   0.00000  Uiso   1.00
H1446  H     0.94689   0.72541   0.02571   0.00000  Uiso   1.00
H1447  H     0.94681   0.77441   0.97429   0.00000  Uiso   1.00
H1448  H     0.77452   0.94686   0.02571   0.00000  Uiso   1.00
H1449  H     0.72555   0.94683   0.97429   0.00000  Uiso   1.00
H1450  H     0.55311   0.77459   0.02571   0.00000  Uiso   1.00
H1451  H     0.92786   0.88104   0.79450   0.00000  Uiso   1.00
H1452  H     0.55319   0.72560   0.97429   0.00000  Uiso   1.00
H1453  H     0.97570   0.80324   0.52571   0.00000  Uiso   1.00
H1454  H     0.52474   0.80303   0.47430   0.00000  Uiso   1.00
H1455  H     0.69679   0.97564   0.52571   0.00000  Uiso   1.00
H1456  H     0.69692   0.52464   0.47430   0.00000  Uiso   1.00
H1457  H     0.52430   0.69676   0.52572   0.00000  Uiso   1.00
H1458  H     0.97526   0.69696   0.47430   0.00000  Uiso   1.00
H1459  H     0.80321   0.52435   0.52571   0.00000  Uiso   1.00
H1460  H     0.80308   0.97536   0.47430   0.00000  Uiso   1.00
H1461  H     0.67760   0.59705   0.15780   0.00000  Uiso   1.00
H1462  H     0.88121   0.57202   0.20571   0.00000  Uiso   1.00
H1463  H     0.67381   0.62204   0.11259   0.00000  Uiso   1.00
H1464  H     0.63601   0.59510   0.12993   0.00000  Uiso   1.00
H1465  H     0.66822   0.56321   0.07620   0.00000  Uiso   1.00
H1466  H     0.67165   0.53833   0.12117   0.00000  Uiso   1.00
H1467  H     0.73431   0.56719   0.13193   0.00000  Uiso   1.00
H1468  H     0.73059   0.58895   0.08605   0.00000  Uiso   1.00
H1469  H     0.82226   0.59715   0.84219   0.00000  Uiso   1.00
H1470  H     0.82602   0.62215   0.88740   0.00000  Uiso   1.00
H1471  H     0.86385   0.59525   0.87006   0.00000  Uiso   1.00
H1472  H     0.83169   0.56332   0.92379   0.00000  Uiso   1.00
H1473  H     0.61894   0.92788   0.79447   0.00000  Uiso   1.00
H1474  H     0.82829   0.53843   0.87881   0.00000  Uiso   1.00
H1475  H     0.76558   0.56722   0.86807   0.00000  Uiso   1.00
H1476  H     0.76928   0.58898   0.91395   0.00000  Uiso   1.00
H1477  H     0.90306   0.67751   0.15782   0.00000  Uiso   1.00
H1478  H     0.87804   0.67368   0.11263   0.00000  Uiso   1.00
H1479  H     0.90503   0.63592   0.12995   0.00000  Uiso   1.00
H1480  H     0.93686   0.66815   0.07620   0.00000  Uiso   1.00
H1481  H     0.96176   0.67161   0.12116   0.00000  Uiso   1.00
H1482  H     0.93282   0.73425   0.13192   0.00000  Uiso   1.00
H1483  H     0.91108   0.73050   0.08604   0.00000  Uiso   1.00
H1484  H     0.92786   0.88109   0.20554   0.00000  Uiso   1.00
H1485  H     0.90282   0.82218   0.84217   0.00000  Uiso   1.00
H1486  H     0.87780   0.82591   0.88736   0.00000  Uiso   1.00
H1487  H     0.90466   0.86377   0.87005   0.00000  Uiso   1.00
H1488  H     0.93661   0.83164   0.92378   0.00000  Uiso   1.00
H1489  H     0.96151   0.82826   0.87881   0.00000  Uiso   1.00
H1490  H     0.93277   0.76552   0.86807   0.00000  Uiso   1.00
H1491  H     0.91101   0.76921   0.91395   0.00000  Uiso   1.00
H1492  H     0.82240   0.90294   0.15779   0.00000  Uiso   1.00
H1493  H     0.82618   0.87795   0.11258   0.00000  Uiso   1.00
H1494  H     0.86398   0.90488   0.12991   0.00000  Uiso   1.00
H1495  H     0.57214   0.61896   0.79450   0.00000  Uiso   1.00
H1496  H     0.83177   0.93678   0.07619   0.00000  Uiso   1.00
H1497  H     0.82835   0.96166   0.12117   0.00000  Uiso   1.00
H1498  H     0.76568   0.93281   0.13192   0.00000  Uiso   1.00
H1499  H     0.76940   0.91105   0.08605   0.00000  Uiso   1.00
H1500  H     0.67774   0.90286   0.84219   0.00000  Uiso   1.00
H1501  H     0.67397   0.87786   0.88739   0.00000  Uiso   1.00
H1502  H     0.63615   0.90476   0.87006   0.00000  Uiso   1.00
H1503  H     0.66830   0.93669   0.92379   0.00000  Uiso   1.00
H1504  H     0.67171   0.96158   0.87882   0.00000  Uiso   1.00
H1505  H     0.73441   0.93278   0.86807   0.00000  Uiso   1.00
H1506  H     0.61899   0.57222   0.79458   0.00000  Uiso   1.00
H1507  H     0.73071   0.91103   0.91395   0.00000  Uiso   1.00
H1508  H     0.59692   0.82250   0.15784   0.00000  Uiso   1.00
H1509  H     0.62194   0.82633   0.11266   0.00000  Uiso   1.00
H1510  H     0.59494   0.86409   0.12998   0.00000  Uiso   1.00
H1511  H     0.56313   0.83186   0.07621   0.00000  Uiso   1.00
H1512  H     0.53822   0.82839   0.12116   0.00000  Uiso   1.00
H1513  H     0.56718   0.76575   0.13192   0.00000  Uiso   1.00
H1514  H     0.58892   0.76952   0.08605   0.00000  Uiso   1.00
H1515  H     0.59717   0.67781   0.84217   0.00000  Uiso   1.00
H1516  H     0.62220   0.67408   0.88736   0.00000  Uiso   1.00
O1517  O     0.75000   0.50000   0.25000   0.00000  Uiso   1.00
O1518  O     0.75000   0.96964   0.66317   0.00000  Uiso   1.00
O1519  O     0.96964   0.75000   0.33683   0.00000  Uiso   1.00
O1520  O     0.53036   0.75000   0.66317   0.00000  Uiso   1.00
O1521  O     0.50000   0.71964   0.83683   0.00000  Uiso   1.00
O1522  O     0.50000   0.78036   0.16317   0.00000  Uiso   1.00
O1523  O     0.78036   0.50000   0.83683   0.00000  Uiso   1.00
O1524  O     0.71964   0.50000   0.16317   0.00000  Uiso   1.00
O1525  O     0.50000   0.78036   0.83683   0.00000  Uiso   1.00
O1526  O     0.50000   0.71964   0.16317   0.00000  Uiso   1.00
O1527  O     0.71964   0.50000   0.83683   0.00000  Uiso   1.00
O1528  O     0.75000   0.50000   0.75000   0.00000  Uiso   1.00
O1529  O     0.78036   0.50000   0.16317   0.00000  Uiso   1.00
O1530  O     0.70725   0.57307   0.27282   0.00000  Uiso   1.00
O1531  O     0.79274   0.92693   0.72718   0.00000  Uiso   1.00
O1532  O     0.92693   0.70726   0.27282   0.00000  Uiso   1.00
O1533  O     0.57307   0.79274   0.72718   0.00000  Uiso   1.00
O1534  O     0.79274   0.92693   0.27282   0.00000  Uiso   1.00
O1535  O     0.70725   0.57307   0.72718   0.00000  Uiso   1.00
O1536  O     0.57307   0.79274   0.27282   0.00000  Uiso   1.00
O1537  O     0.92693   0.70726   0.72718   0.00000  Uiso   1.00
O1538  O     0.70725   0.92693   0.72718   0.00000  Uiso   1.00
O1539  O     0.50000   0.75000   0.25000   0.00000  Uiso   1.00
O1540  O     0.79274   0.57307   0.27282   0.00000  Uiso   1.00
O1541  O     0.92693   0.79275   0.72718   0.00000  Uiso   1.00
O1542  O     0.57307   0.70725   0.27282   0.00000  Uiso   1.00
O1543  O     0.79274   0.57307   0.72718   0.00000  Uiso   1.00
O1544  O     0.70725   0.92693   0.27282   0.00000  Uiso   1.00
O1545  O     0.57307   0.70725   0.72718   0.00000  Uiso   1.00
O1546  O     0.92693   0.79275   0.27282   0.00000  Uiso   1.00
O1547  O     0.95725   0.82307   0.77282   0.00000  Uiso   1.00
O1548  O     0.54274   0.67693   0.22718   0.00000  Uiso   1.00
O1549  O     0.67693   0.95725   0.77282   0.00000  Uiso   1.00
O1550  O     0.50000   0.75000   0.75000   0.00000  Uiso   1.00
O1551  O     0.82307   0.54275   0.22718   0.00000  Uiso   1.00
O1552  O     0.54274   0.67693   0.77282   0.00000  Uiso   1.00
O1553  O     0.95725   0.82307   0.22718   0.00000  Uiso   1.00
O1554  O     0.82307   0.54275   0.77282   0.00000  Uiso   1.00
O1555  O     0.67693   0.95725   0.22718   0.00000  Uiso   1.00
O1556  O     0.95725   0.67693   0.22718   0.00000  Uiso   1.00
O1557  O     0.54274   0.82307   0.77282   0.00000  Uiso   1.00
O1558  O     0.67693   0.54275   0.22718   0.00000  Uiso   1.00
O1559  O     0.82307   0.95726   0.77282   0.00000  Uiso   1.00
O1560  O     0.54274   0.82307   0.22718   0.00000  Uiso   1.00
O1561  O     0.75000   0.96964   0.33683   0.00000  Uiso   1.00
O1562  O     0.95725   0.67693   0.77282   0.00000  Uiso   1.00
O1563  O     0.82307   0.95726   0.22718   0.00000  Uiso   1.00
O1564  O     0.67693   0.54275   0.77282   0.00000  Uiso   1.00
O1565  O     0.75000   0.53036   0.66317   0.00000  Uiso   1.00
O1566  O     0.53036   0.75000   0.33683   0.00000  Uiso   1.00
O1567  O     0.96964   0.75000   0.66317   0.00000  Uiso   1.00
O1568  O     0.75000   0.53036   0.33683   0.00000  Uiso   1.00
Zn1569 Zn    0.70660   0.50000   0.21760   0.00000  Uiso   1.00
Zn1570 Zn    0.54340   0.75000   0.28240   0.00000  Uiso   1.00
Zn1571 Zn    0.75000   0.95660   0.71760   0.00000  Uiso   1.00
Zn1572 Zn    0.75000   0.54340   0.28240   0.00000  Uiso   1.00
Zn1573 Zn    0.54340   0.75000   0.71760   0.00000  Uiso   1.00
Zn1574 Zn    0.95660   0.75000   0.28240   0.00000  Uiso   1.00
Zn1575 Zn    0.75000   0.54340   0.71760   0.00000  Uiso   1.00
Zn1576 Zn    0.75000   0.95660   0.28240   0.00000  Uiso   1.00
Zn1577 Zn    0.79340   0.50000   0.78240   0.00000  Uiso   1.00
Zn1578 Zn    0.50000   0.70660   0.21760   0.00000  Uiso   1.00
Zn1579 Zn    0.50000   0.79340   0.78240   0.00000  Uiso   1.00
Zn1580 Zn    0.79340   0.50000   0.21760   0.00000  Uiso   1.00
Zn1581 Zn    0.70660   0.50000   0.78240   0.00000  Uiso   1.00
Zn1582 Zn    0.50000   0.79340   0.21760   0.00000  Uiso   1.00
Zn1583 Zn    0.50000   0.70660   0.78240   0.00000  Uiso   1.00
Zn1584 Zn    0.95660   0.75000   0.71760   0.00000  Uiso   1.00
loop_
_geom_bond_atom_site_label_1
_geom_bond_atom_site_label_2
_geom_bond_distance
_geom_bond_site_symmetry_2
_ccdc_geom_bond_type
C1     H256    1.084   .     S
C1     C78     1.397   .     A
C1     C96     1.398   .     A
C2     H266    1.084   .     S
C2     C88     1.397   .     A
C2     C101    1.398   .     A
C3     C144    1.402   .     A
C3     C115    1.456   .     S
C3     C151    1.402   .     A
C4     C154    1.402   .     A
C4     C116    1.456   .     S
C4     C143    1.402   .     A
C5     C142    1.402   .     A
C5     C117    1.456   .     S
C5     C153    1.402   .     A
C6     C141    1.402   .     A
C6     C156    1.402   .     A
C6     C118    1.456   .     S
C7     C119    1.456   .     S
C7     C140    1.402   .     A
C7     C155    1.402   .     A
C8     C129    1.456   .     S
C8     C159    1.402   .     A
C8     C139    1.402   .     A
C9     C130    1.456   .     S
C9     C157    1.402   .     A
C9     C138    1.402   .     A
C10    C122    1.456   .     S
C10    C161    1.402   .     A
C10    C137    1.402   .     A
C11    C160    1.402   .     A
C11    C135    1.402   .     A
C11    C123    1.456   .     S
C12    C163    1.402   .     A
C12    C134    1.402   .     A
C12    C124    1.456   .     S
C13    C894    1.398   .     A
C13    H267    1.084   .     S
C13    C89     1.397   .     A
C14    C126    1.456   .     S
C14    C133    1.402   .     A
C14    C162    1.402   .     A
C15    C132    1.402   .     A
C15    C127    1.456   .     S
C15    C165    1.402   .     A
C16    C164    1.402   .     A
C16    C131    1.402   .     A
C16    C128    1.456   .     S
C17    C78     1.416   .     A
C17    C875    1.416   1_545 S
C17    C112    1.457   .     S
C18    C111    1.457   .     S
C18    C79     1.416   .     A
C18    C876    1.416   1_545 S
C19    C85     1.416   .     A
C19    C110    1.457   .     S
C19    C476    1.416   1_455 S
C20    C86     1.416   .     A
C20    C109    1.457   .     S
C20    C478    1.416   1_455 S
C21    C108    1.457   .     S
C21    C483    1.416   1_455 A
C21    C91     1.416   .     S
C22    C107    1.457   .     S
C22    C88     1.416   .     A
C22    C489    1.416   1_455 S
C23    C881    1.416   1_545 A
C23    C106    1.457   .     S
C23    C94     1.416   .     S
C24    C90     1.397   .     A
C24    H268    1.084   .     S
C24    C104    1.398   .     S
C25    C105    1.457   .     S
C25    C90     1.416   .     A
C25    C887    1.416   1_545 S
C26    H280    1.113   .     S
C26    C27     1.533   .     S
C26    H279    1.111   .     S
C26    C78     1.516   .     S
C27    H277    1.112   .     S
C27    H278    1.111   .     S
C27    C28     1.526   .     S
C28    H273    1.111   .     S
C28    H275    1.111   .     S
C28    H276    1.110   .     S
C29    H288    1.113   .     S
C29    C30     1.533   .     S
C29    H287    1.111   .     S
C29    C79     1.516   .     S
C30    C31     1.526   .     S
C30    H286    1.111   .     S
C30    H284    1.112   .     S
C31    H283    1.110   .     S
C31    H281    1.111   .     S
C31    H282    1.111   .     S
C32    C80     1.516   .     S
C32    H295    1.113   .     S
C32    H294    1.111   .     S
C32    C33     1.533   .     S
C33    H292    1.112   .     S
C33    C34     1.526   .     S
C33    H293    1.111   .     S
C34    H291    1.110   .     S
C34    H289    1.111   .     S
C34    H290    1.111   .     S
C35    H269    1.084   .     S
C35    C100    1.398   .     A
C35    C91     1.397   .     A
C36    C37     1.533   .     S
C36    H303    1.113   .     S
C36    H302    1.111   .     S
C36    C82     1.516   .     S
C37    C38     1.526   .     S
C37    H301    1.111   .     S
C37    H300    1.112   .     S
C38    H298    1.111   .     S
C38    H299    1.110   .     S
C38    H297    1.111   .     S
C39    H311    1.113   .     S
C39    C40     1.533   .     S
C39    C83     1.516   .     S
C39    H310    1.111   .     S
C40    H308    1.112   .     S
C40    H309    1.111   .     S
C40    C41     1.526   .     S
C41    H306    1.110   .     S
C41    H304    1.111   .     S
C41    H305    1.111   .     S
C42    H317    1.111   .     S
C42    C84     1.516   .     S
C42    C43     1.533   .     S
C42    H319    1.113   .     S
C43    H316    1.111   .     S
C43    H315    1.112   .     S
C43    C44     1.526   .     S
C44    H312    1.111   .     S
C44    H313    1.111   .     S
C44    H314    1.110   .     S
C45    H326    1.113   .     S
C45    C47     1.533   .     S
C45    H325    1.111   .     S
C45    C85     1.516   .     S
C46    H270    1.084   .     S
C46    C93     1.397   .     A
C46    C497    1.398   .     S
C47    H324    1.111   .     S
C47    H323    1.112   .     S
C47    C48     1.526   .     S
C48    H322    1.110   .     S
C48    H320    1.111   .     S
C48    H321    1.111   .     S
C49    H175    1.113   .     S
C49    C86     1.516   .     S
C49    C50     1.533   .     S
C49    H174    1.111   .     S
C50    C51     1.526   .     S
C50    H172    1.112   .     S
C50    H173    1.111   .     S
C51    H328    1.111   .     S
C51    H327    1.111   .     S
C51    H171    1.110   .     S
C52    H182    1.111   .     S
C52    C53     1.533   .     S
C52    H183    1.113   .     S
C52    C87     1.516   .     S
C53    H179    1.112   .     S
C53    C54     1.526   .     S
C53    H180    1.111   .     S
C54    H176    1.111   .     S
C54    H178    1.110   .     S
C54    H177    1.111   .     S
C55    C88     1.516   .     S
C55    H189    1.111   .     S
C55    C56     1.533   .     S
C55    H190    1.113   .     S
C56    H187    1.112   .     S
C56    C58     1.526   .     S
C56    H188    1.111   .     S
C57    H271    1.084   .     S
C57    C94     1.397   .     A
C57    C102    1.398   .     S
C58    H186    1.110   .     S
C58    H184    1.111   .     S
C58    H185    1.111   .     S
C59    C60     1.533   .     S
C59    C89     1.516   .     S
C59    H198    1.113   .     S
C59    H197    1.111   .     S
C60    H195    1.112   .     S
C60    C61     1.526   .     S
C60    H196    1.111   .     S
C61    H191    1.111   .     S
C61    H193    1.111   .     S
C61    H194    1.110   .     S
C62    H206    1.113   .     S
C62    C63     1.533   .     S
C62    H205    1.111   .     S
C62    C90     1.516   .     S
C63    H202    1.112   .     S
C63    C64     1.526   .     S
C63    H204    1.111   .     S
C64    H201    1.110   .     S
C64    H200    1.111   .     S
C64    H199    1.111   .     S
C65    H213    1.113   .     S
C65    C91     1.516   .     S
C65    H212    1.111   .     S
C65    C66     1.533   .     S
C66    H210    1.112   .     S
C66    C67     1.526   .     S
C66    H211    1.111   .     S
C67    H209    1.110   .     S
C67    H208    1.111   .     S
C67    H207    1.111   .     S
C68    H272    1.084   .     S
C68    C95     1.397   .     A
C68    C896    1.398   .     A
C69    C93     1.516   .     S
C69    H221    1.113   .     S
C69    H220    1.111   .     S
C69    C70     1.533   .     S
C70    H218    1.112   .     S
C70    H219    1.111   .     S
C70    C71     1.526   .     S
C71    H216    1.111   .     S
C71    H215    1.111   .     S
C71    H217    1.110   .     S
C72    C94     1.516   .     S
C72    C73     1.533   .     S
C72    H228    1.111   .     S
C72    H229    1.113   .     S
C73    H227    1.111   .     S
C73    H226    1.112   .     S
C73    C74     1.526   .     S
C74    H223    1.111   .     S
C74    H224    1.110   .     S
C74    H222    1.111   .     S
C75    C95     1.516   .     S
C75    C76     1.533   .     S
C75    H237    1.113   .     S
C75    H235    1.111   .     S
C76    C77     1.526   .     S
C76    H234    1.111   .     S
C76    H233    1.112   .     S
C77    H231    1.111   .     S
C77    H230    1.111   .     S
C77    H232    1.110   .     S
C79    C81     1.397   .     A
C80    C92     1.397   .     A
C80    C415    1.416   .     S
C81    H257    1.084   .     S
C81    C97     1.398   .     A
C82    C103    1.397   .     A
C82    C416    1.416   .     S
C83    C114    1.397   .     A
C83    C809    1.416   .     S
C84    C125    1.397   .     A
C84    C810    1.416   .     S
C85    C136    1.397   .     A
C86    C147    1.397   .     A
C87    C417    1.416   .     A
C87    C158    1.397   .     A
C89    C815    1.416   .     A
C92    H258    1.084   .     S
C92    C494    1.398   .     S
C93    C418    1.416   .     S
C95    C817    1.416   .     S
C96    C97     1.467   1_554 S
C96    C906    1.398   1_545 S
C97    C96     1.467   1_556 S
C97    C917    1.398   1_545 S
C98    C136    1.398   .     A
C98    C488    1.398   1_455 S
C98    C99     1.467   1_554 S
C99    C147    1.398   .     A
C99    C98     1.467   1_556 S
C99    C499    1.398   1_455 S
C100   C101    1.466   .     S
C100   C554    1.398   1_455 S
C101   C442    1.398   1_455 S
C102   C104    1.467   .     S
C102   C805    1.398   1_545 A
C103   H259    1.084   .     S
C103   C495    1.398   .     S
C104   C860    1.398   1_545 A
C105   O380    1.279   .     A
C105   O1165   1.279   1_545 S
C106   O1122   1.279   1_545 A
C106   O377    1.279   .     S
C107   O378    1.279   .     A
C107   O727    1.279   1_455 S
C108   O775    1.279   1_455 A
C108   O332    1.279   .     S
C109   O333    1.279   .     S
C109   O337    1.279   .     S
C110   O334    1.279   .     S
C110   O338    1.279   .     S
C111   O335    1.279   .     A
C111   O339    1.279   .     A
C112   O336    1.279   .     S
C112   O341    1.279   .     S
C113   O342    1.279   .     A
C113   C168    1.456   .     S
C113   O370    1.279   .     A
C114   H260    1.084   .     S
C114   C888    1.398   .     S
C115   O371    1.279   .     A
C115   O343    1.279   .     A
C116   O368    1.279   .     A
C116   O344    1.279   .     A
C117   O369    1.279   .     A
C117   O345    1.279   .     A
C118   O346    1.279   .     A
C118   O375    1.279   .     A
C119   O347    1.279   .     A
C119   O376    1.279   .     A
C120   C166    1.456   .     S
C120   O348    1.279   .     A
C120   O372    1.279   .     A
C121   O349    1.279   .     A
C121   C167    1.456   .     S
C121   O374    1.279   .     A
C122   O350    1.279   .     A
C122   O361    1.279   .     A
C123   O363    1.279   .     A
C123   O352    1.279   .     A
C124   O359    1.279   .     A
C124   O353    1.279   .     A
C125   H261    1.084   .     S
C125   C889    1.398   .     S
C126   O360    1.279   .     A
C126   O354    1.279   .     A
C127   O366    1.279   .     A
C127   O355    1.279   .     A
C128   O367    1.279   .     A
C128   O356    1.279   .     A
C129   O364    1.279   .     A
C129   O357    1.279   .     A
C130   O365    1.279   .     A
C130   O358    1.279   .     A
C131   H169    1.083   .     S
C131   C148    1.386   .     A
C132   C146    1.386   .     A
C132   H241    1.083   .     S
C133   H252    1.083   .     S
C133   C145    1.386   .     A
C134   H263    1.083   .     S
C134   C144    1.386   .     A
C135   C143    1.386   .     A
C135   H274    1.083   .     S
C136   H262    1.084   .     S
C137   C142    1.386   .     A
C137   H285    1.083   .     S
C138   C141    1.386   .     A
C138   H296    1.083   .     S
C139   C140    1.386   .     A
C139   H307    1.083   .     S
C140   H318    1.083   .     S
C141   H170    1.083   .     S
C142   H181    1.083   .     S
C143   H192    1.083   .     S
C144   H203    1.083   .     S
C145   H214    1.083   .     S
C145   C168    1.402   .     A
C146   H225    1.083   .     S
C146   C167    1.402   .     A
C147   H264    1.084   .     S
C148   C166    1.402   .     A
C148   H236    1.083   .     S
C149   C165    1.386   .     A
C149   C167    1.402   .     A
C149   H238    1.083   .     S
C150   H239    1.083   .     S
C150   C166    1.402   .     A
C150   C164    1.386   .     A
C151   H240    1.083   .     S
C151   C163    1.386   .     A
C152   H242    1.083   .     S
C152   C168    1.402   .     A
C152   C162    1.386   .     A
C153   C161    1.386   .     A
C153   H243    1.083   .     S
C154   H244    1.083   .     S
C154   C160    1.386   .     A
C155   H245    1.083   .     S
C155   C159    1.386   .     A
C156   H246    1.083   .     S
C156   C157    1.386   .     A
C157   H247    1.083   .     S
C158   H265    1.084   .     S
C158   C496    1.398   .     S
C159   H248    1.083   .     S
C160   H249    1.083   .     S
C161   H250    1.083   .     S
C162   H251    1.083   .     S
C163   H253    1.083   .     S
C164   H254    1.083   .     S
C165   H255    1.083   .     S
O329   Zn384   1.944   .     S
O329   Zn381   1.944   .     S
O329   Zn392   1.944   .     S
O329   Zn1180  1.944   1_545 S
O330   Zn383   1.934   .     S
O330   C898    1.279   .     A
O331   Zn386   1.934   .     S
O331   C503    1.279   .     S
O332   Zn385   1.934   .     S
O333   Zn395   1.934   .     S
O334   Zn394   1.934   .     S
O335   Zn389   1.934   .     S
O336   Zn381   1.934   .     S
O337   Zn391   1.934   .     S
O338   Zn390   1.934   .     S
O339   Zn393   1.934   .     S
O340   Zn387   1.944   .     S
O340   Zn389   1.944   .     S
O340   Zn393   1.944   .     S
O340   Zn1175  1.944   1_545 S
O341   Zn392   1.934   .     S
O342   Zn384   1.938   .     S
O343   Zn383   1.938   .     S
O344   Zn386   1.938   .     S
O345   Zn385   1.938   .     S
O346   Zn388   1.938   .     S
O347   Zn387   1.938   .     S
O348   Zn382   1.938   .     S
O349   Zn396   1.938   .     S
O350   Zn383   1.938   .     S
O351   Zn390   1.944   .     S
O351   Zn394   1.944   .     S
O351   Zn782   1.944   1_455 S
O351   Zn382   1.944   .     S
O352   Zn384   1.938   .     S
O353   Zn396   1.938   .     S
O354   Zn382   1.938   .     S
O355   Zn387   1.938   .     S
O356   Zn388   1.938   .     S
O357   Zn385   1.938   .     S
O358   Zn386   1.938   .     S
O359   Zn787   1.938   .     S
O360   Zn390   1.938   .     S
O361   Zn1185  1.938   .     S
O362   Zn391   1.944   .     S
O362   Zn395   1.944   .     S
O362   Zn792   1.944   1_455 S
O362   Zn385   1.944   .     S
O363   Zn392   1.938   .     S
O364   Zn395   1.938   .     S
O365   Zn790   1.938   .     S
O366   Zn389   1.938   .     S
O367   Zn1173  1.938   .     S
O368   Zn786   1.938   .     S
O369   Zn391   1.938   .     S
O370   Zn381   1.938   .     S
O371   Zn1181  1.938   .     S
O372   Zn394   1.938   .     S
O373   Zn388   1.934   .     S
O373   C897    1.279   .     S
O374   Zn791   1.938   .     S
O375   Zn1184  1.938   .     S
O376   Zn393   1.938   .     S
O377   Zn387   1.934   .     S
O378   Zn382   1.934   .     S
O379   C504    1.279   .     A
O379   Zn396   1.934   .     S
O380   Zn384   1.934   .     S
Zn381  O1159   1.938   1_545 S
Zn383  O1132   1.944   .     S
Zn386  O747    1.944   .     S
Zn388  O1121   1.944   .     S
Zn389  O1163   1.938   1_545 S
Zn390  O764    1.938   1_455 S
Zn391  O755    1.938   1_455 S
Zn392  O1167   1.938   1_545 S
Zn393  O1153   1.938   1_545 S
Zn394  O761    1.938   1_455 S
Zn395  O770    1.938   1_455 S
Zn396  O758    1.944   .     S
C397   H652    1.084   .     S
C397   C474    1.397   .     A
C397   C492    1.398   .     A
C398   H662    1.084   .     S
C398   C484    1.397   .     A
C398   C497    1.398   .     A
C399   C540    1.402   .     A
C399   C511    1.456   .     S
C399   C547    1.402   .     A
C400   C550    1.402   .     A
C400   C512    1.456   .     S
C400   C539    1.402   .     A
C401   C538    1.402   .     A
C401   C513    1.456   .     S
C401   C549    1.402   .     A
C402   C537    1.402   .     A
C402   C552    1.402   .     A
C402   C514    1.456   .     S
C403   C515    1.456   .     S
C403   C536    1.402   .     A
C403   C551    1.402   .     A
C404   C525    1.456   .     S
C404   C555    1.402   .     A
C404   C535    1.402   .     A
C405   C526    1.456   .     S
C405   C553    1.402   .     A
C405   C534    1.402   .     A
C406   C518    1.456   .     S
C406   C557    1.402   .     A
C406   C533    1.402   .     A
C407   C556    1.402   .     A
C407   C531    1.402   .     A
C407   C519    1.456   .     S
C408   C559    1.402   .     A
C408   C530    1.402   .     A
C408   C520    1.456   .     S
C409   C1290   1.398   .     A
C409   H663    1.084   .     S
C409   C485    1.397   .     A
C410   C522    1.456   .     S
C410   C529    1.402   .     A
C410   C558    1.402   .     A
C411   C528    1.402   .     A
C411   C523    1.456   .     S
C411   C561    1.402   .     A
C412   C560    1.402   .     A
C412   C527    1.402   .     A
C412   C524    1.456   .     S
C413   C474    1.416   .     A
C413   C1271   1.416   1_545 S
C413   C508    1.457   .     S
C414   C507    1.457   .     S
C414   C475    1.416   .     A
C414   C1272   1.416   1_545 S
C415   C481    1.416   .     A
C415   C506    1.457   .     S
C416   C482    1.416   .     A
C416   C505    1.457   .     S
C417   C504    1.457   .     S
C417   C487    1.416   .     S
C418   C503    1.457   .     S
C418   C484    1.416   .     A
C419   C1277   1.416   1_545 A
C419   C502    1.457   .     S
C419   C490    1.416   .     S
C420   C486    1.397   .     A
C420   H664    1.084   .     S
C420   C500    1.398   .     S
C421   C501    1.457   .     S
C421   C486    1.416   .     A
C421   C1283   1.416   1_545 S
C422   H676    1.113   .     S
C422   C423    1.533   .     S
C422   H675    1.111   .     S
C422   C474    1.516   .     S
C423   H673    1.112   .     S
C423   H674    1.111   .     S
C423   C424    1.526   .     S
C424   H669    1.111   .     S
C424   H671    1.111   .     S
C424   H672    1.110   .     S
C425   H684    1.113   .     S
C425   C426    1.533   .     S
C425   H683    1.111   .     S
C425   C475    1.516   .     S
C426   C427    1.526   .     S
C426   H682    1.111   .     S
C426   H680    1.112   .     S
C427   H679    1.110   .     S
C427   H677    1.111   .     S
C427   H678    1.111   .     S
C428   C476    1.516   .     S
C428   H691    1.113   .     S
C428   H690    1.111   .     S
C428   C429    1.533   .     S
C429   H688    1.112   .     S
C429   C430    1.526   .     S
C429   H689    1.111   .     S
C430   H687    1.110   .     S
C430   H685    1.111   .     S
C430   H686    1.111   .     S
C431   H665    1.084   .     S
C431   C496    1.398   .     A
C431   C487    1.397   .     A
C432   C433    1.533   .     S
C432   H699    1.113   .     S
C432   H698    1.111   .     S
C432   C478    1.516   .     S
C433   C434    1.526   .     S
C433   H697    1.111   .     S
C433   H696    1.112   .     S
C434   H694    1.111   .     S
C434   H695    1.110   .     S
C434   H693    1.111   .     S
C435   H707    1.113   .     S
C435   C436    1.533   .     S
C435   C479    1.516   .     S
C435   H706    1.111   .     S
C436   H704    1.112   .     S
C436   H705    1.111   .     S
C436   C437    1.526   .     S
C437   H702    1.110   .     S
C437   H700    1.111   .     S
C437   H701    1.111   .     S
C438   H713    1.111   .     S
C438   C480    1.516   .     S
C438   C439    1.533   .     S
C438   H715    1.113   .     S
C439   H712    1.111   .     S
C439   H711    1.112   .     S
C439   C440    1.526   .     S
C440   H708    1.111   .     S
C440   H709    1.111   .     S
C440   H710    1.110   .     S
C441   H722    1.113   .     S
C441   C443    1.533   .     S
C441   H721    1.111   .     S
C441   C481    1.516   .     S
C442   H666    1.084   .     S
C442   C489    1.397   .     A
C442   C101    1.398   1_655 S
C443   H720    1.111   .     S
C443   H719    1.112   .     S
C443   C444    1.526   .     S
C444   H718    1.110   .     S
C444   H716    1.111   .     S
C444   H717    1.111   .     S
C445   H571    1.113   .     S
C445   C482    1.516   .     S
C445   C446    1.533   .     S
C445   H570    1.111   .     S
C446   C447    1.526   .     S
C446   H568    1.112   .     S
C446   H569    1.111   .     S
C447   H724    1.111   .     S
C447   H723    1.111   .     S
C447   H567    1.110   .     S
C448   H578    1.111   .     S
C448   C449    1.533   .     S
C448   H579    1.113   .     S
C448   C483    1.516   .     S
C449   H575    1.112   .     S
C449   C450    1.526   .     S
C449   H576    1.111   .     S
C450   H572    1.111   .     S
C450   H574    1.110   .     S
C450   H573    1.111   .     S
C451   C484    1.516   .     S
C451   H585    1.111   .     S
C451   C452    1.533   .     S
C451   H586    1.113   .     S
C452   H583    1.112   .     S
C452   C454    1.526   .     S
C452   H584    1.111   .     S
C453   H667    1.084   .     S
C453   C490    1.397   .     A
C453   C498    1.398   .     S
C454   H582    1.110   .     S
C454   H580    1.111   .     S
C454   H581    1.111   .     S
C455   C456    1.533   .     S
C455   C485    1.516   .     S
C455   H594    1.113   .     S
C455   H593    1.111   .     S
C456   H591    1.112   .     S
C456   C457    1.526   .     S
C456   H592    1.111   .     S
C457   H587    1.111   .     S
C457   H589    1.111   .     S
C457   H590    1.110   .     S
C458   H602    1.113   .     S
C458   C459    1.533   .     S
C458   H601    1.111   .     S
C458   C486    1.516   .     S
C459   H598    1.112   .     S
C459   C460    1.526   .     S
C459   H600    1.111   .     S
C460   H597    1.110   .     S
C460   H596    1.111   .     S
C460   H595    1.111   .     S
C461   H609    1.113   .     S
C461   C487    1.516   .     S
C461   H608    1.111   .     S
C461   C462    1.533   .     S
C462   H606    1.112   .     S
C462   C463    1.526   .     S
C462   H607    1.111   .     S
C463   H605    1.110   .     S
C463   H604    1.111   .     S
C463   H603    1.111   .     S
C464   H668    1.084   .     S
C464   C491    1.397   .     A
C464   C1292   1.398   .     A
C465   C489    1.516   .     S
C465   H617    1.113   .     S
C465   H616    1.111   .     S
C465   C466    1.533   .     S
C466   H614    1.112   .     S
C466   H615    1.111   .     S
C466   C467    1.526   .     S
C467   H612    1.111   .     S
C467   H611    1.111   .     S
C467   H613    1.110   .     S
C468   C490    1.516   .     S
C468   C469    1.533   .     S
C468   H624    1.111   .     S
C468   H625    1.113   .     S
C469   H623    1.111   .     S
C469   H622    1.112   .     S
C469   C470    1.526   .     S
C470   H619    1.111   .     S
C470   H620    1.110   .     S
C470   H618    1.111   .     S
C471   C491    1.516   .     S
C471   C472    1.533   .     S
C471   H633    1.113   .     S
C471   H631    1.111   .     S
C472   C473    1.526   .     S
C472   H630    1.111   .     S
C472   H629    1.112   .     S
C473   H627    1.111   .     S
C473   H626    1.111   .     S
C473   H628    1.110   .     S
C475   C477    1.397   .     A
C476   C488    1.397   .     A
C476   C19     1.416   1_655 S
C477   H653    1.084   .     S
C477   C493    1.398   .     A
C478   C499    1.397   .     A
C478   C20     1.416   1_655 S
C479   C510    1.397   .     A
C479   C1205   1.416   .     S
C480   C521    1.397   .     A
C480   C1206   1.416   .     S
C481   C532    1.397   .     A
C482   C543    1.397   .     A
C483   C21     1.416   1_655 A
C483   C554    1.397   .     A
C485   C1211   1.416   .     A
C488   H654    1.084   .     S
C488   C98     1.398   1_655 S
C489   C22     1.416   1_655 S
C491   C1213   1.416   .     S
C492   C493    1.467   1_554 S
C492   C1302   1.398   1_545 S
C493   C492    1.467   1_556 S
C493   C1313   1.398   1_545 S
C494   C532    1.398   .     A
C494   C495    1.467   1_554 S
C495   C543    1.398   .     A
C495   C494    1.467   1_556 S
C496   C497    1.466   .     S
C498   C500    1.467   .     S
C498   C1201   1.398   1_545 A
C499   H655    1.084   .     S
C499   C99     1.398   1_655 S
C500   C1256   1.398   1_545 A
C501   O776    1.279   .     A
C501   O1561   1.279   1_545 S
C502   O1518   1.279   1_545 A
C502   O773    1.279   .     S
C503   O774    1.279   .     A
C504   O728    1.279   .     S
C505   O729    1.279   .     S
C505   O733    1.279   .     S
C506   O730    1.279   .     S
C506   O734    1.279   .     S
C507   O731    1.279   .     A
C507   O735    1.279   .     A
C508   O732    1.279   .     S
C508   O737    1.279   .     S
C509   O738    1.279   .     A
C509   C564    1.456   .     S
C509   O766    1.279   .     A
C510   H656    1.084   .     S
C510   C1284   1.398   .     S
C511   O767    1.279   .     A
C511   O739    1.279   .     A
C512   O764    1.279   .     A
C512   O740    1.279   .     A
C513   O765    1.279   .     A
C513   O741    1.279   .     A
C514   O742    1.279   .     A
C514   O771    1.279   .     A
C515   O743    1.279   .     A
C515   O772    1.279   .     A
C516   C562    1.456   .     S
C516   O744    1.279   .     A
C516   O768    1.279   .     A
C517   O745    1.279   .     A
C517   C563    1.456   .     S
C517   O770    1.279   .     A
C518   O746    1.279   .     A
C518   O757    1.279   .     A
C519   O759    1.279   .     A
C519   O748    1.279   .     A
C520   O755    1.279   .     A
C520   O749    1.279   .     A
C521   H657    1.084   .     S
C521   C1285   1.398   .     S
C522   O756    1.279   .     A
C522   O750    1.279   .     A
C523   O762    1.279   .     A
C523   O751    1.279   .     A
C524   O763    1.279   .     A
C524   O752    1.279   .     A
C525   O760    1.279   .     A
C525   O753    1.279   .     A
C526   O761    1.279   .     A
C526   O754    1.279   .     A
C527   H565    1.083   .     S
C527   C544    1.386   .     A
C528   C542    1.386   .     A
C528   H637    1.083   .     S
C529   H648    1.083   .     S
C529   C541    1.386   .     A
C530   H659    1.083   .     S
C530   C540    1.386   .     A
C531   C539    1.386   .     A
C531   H670    1.083   .     S
C532   H658    1.084   .     S
C533   C538    1.386   .     A
C533   H681    1.083   .     S
C534   C537    1.386   .     A
C534   H692    1.083   .     S
C535   C536    1.386   .     A
C535   H703    1.083   .     S
C536   H714    1.083   .     S
C537   H566    1.083   .     S
C538   H577    1.083   .     S
C539   H588    1.083   .     S
C540   H599    1.083   .     S
C541   H610    1.083   .     S
C541   C564    1.402   .     A
C542   H621    1.083   .     S
C542   C563    1.402   .     A
C543   H660    1.084   .     S
C544   C562    1.402   .     A
C544   H632    1.083   .     S
C545   C561    1.386   .     A
C545   C563    1.402   .     A
C545   H634    1.083   .     S
C546   H635    1.083   .     S
C546   C562    1.402   .     A
C546   C560    1.386   .     A
C547   H636    1.083   .     S
C547   C559    1.386   .     A
C548   H638    1.083   .     S
C548   C564    1.402   .     A
C548   C558    1.386   .     A
C549   C557    1.386   .     A
C549   H639    1.083   .     S
C550   H640    1.083   .     S
C550   C556    1.386   .     A
C551   H641    1.083   .     S
C551   C555    1.386   .     A
C552   H642    1.083   .     S
C552   C553    1.386   .     A
C553   H643    1.083   .     S
C554   H661    1.084   .     S
C554   C100    1.398   1_655 S
C555   H644    1.083   .     S
C556   H645    1.083   .     S
C557   H646    1.083   .     S
C558   H647    1.083   .     S
C559   H649    1.083   .     S
C560   H650    1.083   .     S
C561   H651    1.083   .     S
O725   Zn780   1.944   .     S
O725   Zn777   1.944   .     S
O725   Zn788   1.944   .     S
O725   Zn1576  1.944   1_545 S
O726   Zn779   1.934   .     S
O726   C1294   1.279   .     A
O727   Zn782   1.934   .     S
O727   C107    1.279   1_655 S
O728   Zn781   1.934   .     S
O729   Zn791   1.934   .     S
O730   Zn790   1.934   .     S
O731   Zn785   1.934   .     S
O732   Zn777   1.934   .     S
O733   Zn787   1.934   .     S
O734   Zn786   1.934   .     S
O735   Zn789   1.934   .     S
O736   Zn783   1.944   .     S
O736   Zn785   1.944   .     S
O736   Zn789   1.944   .     S
O736   Zn1571  1.944   1_545 S
O737   Zn788   1.934   .     S
O738   Zn780   1.938   .     S
O739   Zn779   1.938   .     S
O740   Zn782   1.938   .     S
O741   Zn781   1.938   .     S
O742   Zn784   1.938   .     S
O743   Zn783   1.938   .     S
O744   Zn778   1.938   .     S
O745   Zn792   1.938   .     S
O746   Zn779   1.938   .     S
O747   Zn786   1.944   .     S
O747   Zn790   1.944   .     S
O747   Zn778   1.944   .     S
O748   Zn780   1.938   .     S
O749   Zn792   1.938   .     S
O750   Zn778   1.938   .     S
O751   Zn783   1.938   .     S
O752   Zn784   1.938   .     S
O753   Zn781   1.938   .     S
O754   Zn782   1.938   .     S
O755   Zn391   1.938   1_655 S
O756   Zn786   1.938   .     S
O757   Zn1581  1.938   .     S
O758   Zn787   1.944   .     S
O758   Zn791   1.944   .     S
O758   Zn781   1.944   .     S
O759   Zn788   1.938   .     S
O760   Zn791   1.938   .     S
O761   Zn394   1.938   1_655 S
O762   Zn785   1.938   .     S
O763   Zn1569  1.938   .     S
O764   Zn390   1.938   1_655 S
O765   Zn787   1.938   .     S
O766   Zn777   1.938   .     S
O767   Zn1577  1.938   .     S
O768   Zn790   1.938   .     S
O769   Zn784   1.934   .     S
O769   C1293   1.279   .     S
O770   Zn395   1.938   1_655 S
O771   Zn1580  1.938   .     S
O772   Zn789   1.938   .     S
O773   Zn783   1.934   .     S
O774   Zn778   1.934   .     S
O775   C108    1.279   1_655 A
O775   Zn792   1.934   .     S
O776   Zn780   1.934   .     S
Zn777  O1555   1.938   1_545 S
Zn779  O1528   1.944   .     S
Zn782  O351    1.944   1_655 S
Zn784  O1517   1.944   .     S
Zn785  O1559   1.938   1_545 S
Zn788  O1563   1.938   1_545 S
Zn789  O1549   1.938   1_545 S
Zn792  O362    1.944   1_655 S
C793   H1048   1.084   .     S
C793   C870    1.397   .     A
C793   C888    1.398   .     A
C794   H1058   1.084   .     S
C794   C880    1.397   .     A
C794   C893    1.398   .     A
C795   C936    1.402   .     A
C795   C907    1.456   .     S
C795   C943    1.402   .     A
C796   C946    1.402   .     A
C796   C908    1.456   .     S
C796   C935    1.402   .     A
C797   C934    1.402   .     A
C797   C909    1.456   .     S
C797   C945    1.402   .     A
C798   C933    1.402   .     A
C798   C948    1.402   .     A
C798   C910    1.456   .     S
C799   C911    1.456   .     S
C799   C932    1.402   .     A
C799   C947    1.402   .     A
C800   C921    1.456   .     S
C800   C951    1.402   .     A
C800   C931    1.402   .     A
C801   C922    1.456   .     S
C801   C949    1.402   .     A
C801   C930    1.402   .     A
C802   C914    1.456   .     S
C802   C953    1.402   .     A
C802   C929    1.402   .     A
C803   C952    1.402   .     A
C803   C927    1.402   .     A
C803   C915    1.456   .     S
C804   C955    1.402   .     A
C804   C926    1.402   .     A
C804   C916    1.456   .     S
C805   C102    1.398   1_565 A
C805   H1059   1.084   .     S
C805   C881    1.397   .     A
C806   C918    1.456   .     S
C806   C925    1.402   .     A
C806   C954    1.402   .     A
C807   C924    1.402   .     A
C807   C919    1.456   .     S
C807   C957    1.402   .     A
C808   C956    1.402   .     A
C808   C923    1.402   .     A
C808   C920    1.456   .     S
C809   C870    1.416   .     A
C809   C904    1.457   .     S
C810   C903    1.457   .     S
C810   C871    1.416   .     A
C811   C877    1.416   .     A
C811   C902    1.457   .     S
C811   C1268   1.416   1_455 S
C812   C878    1.416   .     A
C812   C901    1.457   .     S
C812   C1270   1.416   1_455 S
C813   C900    1.457   .     S
C813   C1275   1.416   1_455 A
C813   C883    1.416   .     S
C814   C899    1.457   .     S
C814   C880    1.416   .     A
C814   C1281   1.416   1_455 S
C815   C898    1.457   .     S
C815   C886    1.416   .     S
C816   C882    1.397   .     A
C816   H1060   1.084   .     S
C816   C896    1.398   .     S
C817   C897    1.457   .     S
C817   C882    1.416   .     A
C818   H1072   1.113   .     S
C818   C819    1.533   .     S
C818   H1071   1.111   .     S
C818   C870    1.516   .     S
C819   H1069   1.112   .     S
C819   H1070   1.111   .     S
C819   C820    1.526   .     S
C820   H1065   1.111   .     S
C820   H1067   1.111   .     S
C820   H1068   1.110   .     S
C821   H1080   1.113   .     S
C821   C822    1.533   .     S
C821   H1079   1.111   .     S
C821   C871    1.516   .     S
C822   C823    1.526   .     S
C822   H1078   1.111   .     S
C822   H1076   1.112   .     S
C823   H1075   1.110   .     S
C823   H1073   1.111   .     S
C823   H1074   1.111   .     S
C824   C872    1.516   .     S
C824   H1087   1.113   .     S
C824   H1086   1.111   .     S
C824   C825    1.533   .     S
C825   H1084   1.112   .     S
C825   C826    1.526   .     S
C825   H1085   1.111   .     S
C826   H1083   1.110   .     S
C826   H1081   1.111   .     S
C826   H1082   1.111   .     S
C827   H1061   1.084   .     S
C827   C892    1.398   .     A
C827   C883    1.397   .     A
C828   C829    1.533   .     S
C828   H1095   1.113   .     S
C828   H1094   1.111   .     S
C828   C874    1.516   .     S
C829   C830    1.526   .     S
C829   H1093   1.111   .     S
C829   H1092   1.112   .     S
C830   H1090   1.111   .     S
C830   H1091   1.110   .     S
C830   H1089   1.111   .     S
C831   H1103   1.113   .     S
C831   C832    1.533   .     S
C831   C875    1.516   .     S
C831   H1102   1.111   .     S
C832   H1100   1.112   .     S
C832   H1101   1.111   .     S
C832   C833    1.526   .     S
C833   H1098   1.110   .     S
C833   H1096   1.111   .     S
C833   H1097   1.111   .     S
C834   H1109   1.111   .     S
C834   C876    1.516   .     S
C834   C835    1.533   .     S
C834   H1111   1.113   .     S
C835   H1108   1.111   .     S
C835   H1107   1.112   .     S
C835   C836    1.526   .     S
C836   H1104   1.111   .     S
C836   H1105   1.111   .     S
C836   H1106   1.110   .     S
C837   H1118   1.113   .     S
C837   C839    1.533   .     S
C837   H1117   1.111   .     S
C837   C877    1.516   .     S
C838   H1062   1.084   .     S
C838   C885    1.397   .     A
C838   C1289   1.398   .     S
C839   H1116   1.111   .     S
C839   H1115   1.112   .     S
C839   C840    1.526   .     S
C840   H1114   1.110   .     S
C840   H1112   1.111   .     S
C840   H1113   1.111   .     S
C841   H967    1.113   .     S
C841   C878    1.516   .     S
C841   C842    1.533   .     S
C841   H966    1.111   .     S
C842   C843    1.526   .     S
C842   H964    1.112   .     S
C842   H965    1.111   .     S
C843   H1120   1.111   .     S
C843   H1119   1.111   .     S
C843   H963    1.110   .     S
C844   H974    1.111   .     S
C844   C845    1.533   .     S
C844   H975    1.113   .     S
C844   C879    1.516   .     S
C845   H971    1.112   .     S
C845   C846    1.526   .     S
C845   H972    1.111   .     S
C846   H968    1.111   .     S
C846   H970    1.110   .     S
C846   H969    1.111   .     S
C847   C880    1.516   .     S
C847   H981    1.111   .     S
C847   C848    1.533   .     S
C847   H982    1.113   .     S
C848   H979    1.112   .     S
C848   C850    1.526   .     S
C848   H980    1.111   .     S
C849   H1063   1.084   .     S
C849   C886    1.397   .     A
C849   C894    1.398   .     S
C850   H978    1.110   .     S
C850   H976    1.111   .     S
C850   H977    1.111   .     S
C851   C852    1.533   .     S
C851   C881    1.516   .     S
C851   H990    1.113   .     S
C851   H989    1.111   .     S
C852   H987    1.112   .     S
C852   C853    1.526   .     S
C852   H988    1.111   .     S
C853   H983    1.111   .     S
C853   H985    1.111   .     S
C853   H986    1.110   .     S
C854   H998    1.113   .     S
C854   C855    1.533   .     S
C854   H997    1.111   .     S
C854   C882    1.516   .     S
C855   H994    1.112   .     S
C855   C856    1.526   .     S
C855   H996    1.111   .     S
C856   H993    1.110   .     S
C856   H992    1.111   .     S
C856   H991    1.111   .     S
C857   H1005   1.113   .     S
C857   C883    1.516   .     S
C857   H1004   1.111   .     S
C857   C858    1.533   .     S
C858   H1002   1.112   .     S
C858   C859    1.526   .     S
C858   H1003   1.111   .     S
C859   H1001   1.110   .     S
C859   H1000   1.111   .     S
C859   H999    1.111   .     S
C860   H1064   1.084   .     S
C860   C887    1.397   .     A
C860   C104    1.398   1_565 A
C861   C885    1.516   .     S
C861   H1013   1.113   .     S
C861   H1012   1.111   .     S
C861   C862    1.533   .     S
C862   H1010   1.112   .     S
C862   H1011   1.111   .     S
C862   C863    1.526   .     S
C863   H1008   1.111   .     S
C863   H1007   1.111   .     S
C863   H1009   1.110   .     S
C864   C886    1.516   .     S
C864   C865    1.533   .     S
C864   H1020   1.111   .     S
C864   H1021   1.113   .     S
C865   H1019   1.111   .     S
C865   H1018   1.112   .     S
C865   C866    1.526   .     S
C866   H1015   1.111   .     S
C866   H1016   1.110   .     S
C866   H1014   1.111   .     S
C867   C887    1.516   .     S
C867   C868    1.533   .     S
C867   H1029   1.113   .     S
C867   H1027   1.111   .     S
C868   C869    1.526   .     S
C868   H1026   1.111   .     S
C868   H1025   1.112   .     S
C869   H1023   1.111   .     S
C869   H1022   1.111   .     S
C869   H1024   1.110   .     S
C871   C873    1.397   .     A
C872   C884    1.397   .     A
C872   C1207   1.416   .     S
C873   H1049   1.084   .     S
C873   C889    1.398   .     A
C874   C895    1.397   .     A
C874   C1208   1.416   .     S
C875   C906    1.397   .     A
C875   C17     1.416   1_565 S
C876   C917    1.397   .     A
C876   C18     1.416   1_565 S
C877   C928    1.397   .     A
C878   C939    1.397   .     A
C879   C1209   1.416   .     A
C879   C950    1.397   .     A
C881   C23     1.416   1_565 A
C884   H1050   1.084   .     S
C884   C1286   1.398   .     S
C885   C1210   1.416   .     S
C887   C25     1.416   1_565 S
C888   C889    1.467   1_554 S
C889   C888    1.467   1_556 S
C890   C928    1.398   .     A
C890   C1280   1.398   1_455 S
C890   C891    1.467   1_554 S
C891   C939    1.398   .     A
C891   C890    1.467   1_556 S
C891   C1291   1.398   1_455 S
C892   C893    1.466   .     S
C892   C1346   1.398   1_455 S
C893   C1234   1.398   1_455 S
C894   C896    1.467   .     S
C895   H1051   1.084   .     S
C895   C1287   1.398   .     S
C897   O1172   1.279   .     A
C898   O1169   1.279   .     S
C899   O1170   1.279   .     A
C899   O1519   1.279   1_455 S
C900   O1567   1.279   1_455 A
C900   O1124   1.279   .     S
C901   O1125   1.279   .     S
C901   O1129   1.279   .     S
C902   O1126   1.279   .     S
C902   O1130   1.279   .     S
C903   O1127   1.279   .     A
C903   O1131   1.279   .     A
C904   O1128   1.279   .     S
C904   O1133   1.279   .     S
C905   O1134   1.279   .     A
C905   C960    1.456   .     S
C905   O1162   1.279   .     A
C906   H1052   1.084   .     S
C906   C96     1.398   1_565 S
C907   O1163   1.279   .     A
C907   O1135   1.279   .     A
C908   O1160   1.279   .     A
C908   O1136   1.279   .     A
C909   O1161   1.279   .     A
C909   O1137   1.279   .     A
C910   O1138   1.279   .     A
C910   O1167   1.279   .     A
C911   O1139   1.279   .     A
C911   O1168   1.279   .     A
C912   C958    1.456   .     S
C912   O1140   1.279   .     A
C912   O1164   1.279   .     A
C913   O1141   1.279   .     A
C913   C959    1.456   .     S
C913   O1166   1.279   .     A
C914   O1142   1.279   .     A
C914   O1153   1.279   .     A
C915   O1155   1.279   .     A
C915   O1144   1.279   .     A
C916   O1151   1.279   .     A
C916   O1145   1.279   .     A
C917   H1053   1.084   .     S
C917   C97     1.398   1_565 S
C918   O1152   1.279   .     A
C918   O1146   1.279   .     A
C919   O1158   1.279   .     A
C919   O1147   1.279   .     A
C920   O1159   1.279   .     A
C920   O1148   1.279   .     A
C921   O1156   1.279   .     A
C921   O1149   1.279   .     A
C922   O1157   1.279   .     A
C922   O1150   1.279   .     A
C923   H961    1.083   .     S
C923   C940    1.386   .     A
C924   C938    1.386   .     A
C924   H1033   1.083   .     S
C925   H1044   1.083   .     S
C925   C937    1.386   .     A
C926   H1055   1.083   .     S
C926   C936    1.386   .     A
C927   C935    1.386   .     A
C927   H1066   1.083   .     S
C928   H1054   1.084   .     S
C929   C934    1.386   .     A
C929   H1077   1.083   .     S
C930   C933    1.386   .     A
C930   H1088   1.083   .     S
C931   C932    1.386   .     A
C931   H1099   1.083   .     S
C932   H1110   1.083   .     S
C933   H962    1.083   .     S
C934   H973    1.083   .     S
C935   H984    1.083   .     S
C936   H995    1.083   .     S
C937   H1006   1.083   .     S
C937   C960    1.402   .     A
C938   H1017   1.083   .     S
C938   C959    1.402   .     A
C939   H1056   1.084   .     S
C940   C958    1.402   .     A
C940   H1028   1.083   .     S
C941   C957    1.386   .     A
C941   C959    1.402   .     A
C941   H1030   1.083   .     S
C942   H1031   1.083   .     S
C942   C958    1.402   .     A
C942   C956    1.386   .     A
C943   H1032   1.083   .     S
C943   C955    1.386   .     A
C944   H1034   1.083   .     S
C944   C960    1.402   .     A
C944   C954    1.386   .     A
C945   C953    1.386   .     A
C945   H1035   1.083   .     S
C946   H1036   1.083   .     S
C946   C952    1.386   .     A
C947   H1037   1.083   .     S
C947   C951    1.386   .     A
C948   H1038   1.083   .     S
C948   C949    1.386   .     A
C949   H1039   1.083   .     S
C950   H1057   1.084   .     S
C950   C1288   1.398   .     S
C951   H1040   1.083   .     S
C952   H1041   1.083   .     S
C953   H1042   1.083   .     S
C954   H1043   1.083   .     S
C955   H1045   1.083   .     S
C956   H1046   1.083   .     S
C957   H1047   1.083   .     S
O1121  Zn1176  1.944   .     S
O1121  Zn1173  1.944   .     S
O1121  Zn1184  1.944   .     S
O1122  Zn1175  1.934   .     S
O1122  C106    1.279   1_565 A
O1123  Zn1178  1.934   .     S
O1123  C1295   1.279   .     S
O1124  Zn1177  1.934   .     S
O1125  Zn1187  1.934   .     S
O1126  Zn1186  1.934   .     S
O1127  Zn1181  1.934   .     S
O1128  Zn1173  1.934   .     S
O1129  Zn1183  1.934   .     S
O1130  Zn1182  1.934   .     S
O1131  Zn1185  1.934   .     S
O1132  Zn1179  1.944   .     S
O1132  Zn1181  1.944   .     S
O1132  Zn1185  1.944   .     S
O1133  Zn1184  1.934   .     S
O1134  Zn1176  1.938   .     S
O1135  Zn1175  1.938   .     S
O1136  Zn1178  1.938   .     S
O1137  Zn1177  1.938   .     S
O1138  Zn1180  1.938   .     S
O1139  Zn1179  1.938   .     S
O1140  Zn1174  1.938   .     S
O1141  Zn1188  1.938   .     S
O1142  Zn1175  1.938   .     S
O1143  Zn1182  1.944   .     S
O1143  Zn1186  1.944   .     S
O1143  Zn1574  1.944   1_455 S
O1143  Zn1174  1.944   .     S
O1144  Zn1176  1.938   .     S
O1145  Zn1188  1.938   .     S
O1146  Zn1174  1.938   .     S
O1147  Zn1179  1.938   .     S
O1148  Zn1180  1.938   .     S
O1149  Zn1177  1.938   .     S
O1150  Zn1178  1.938   .     S
O1151  Zn1579  1.938   .     S
O1152  Zn1182  1.938   .     S
O1153  Zn393   1.938   1_565 S
O1154  Zn1183  1.944   .     S
O1154  Zn1187  1.944   .     S
O1154  Zn1584  1.944   1_455 S
O1154  Zn1177  1.944   .     S
O1155  Zn1184  1.938   .     S
O1156  Zn1187  1.938   .     S
O1157  Zn1582  1.938   .     S
O1158  Zn1181  1.938   .     S
O1159  Zn381   1.938   1_565 S
O1160  Zn1578  1.938   .     S
O1161  Zn1183  1.938   .     S
O1162  Zn1173  1.938   .     S
O1163  Zn389   1.938   1_565 S
O1164  Zn1186  1.938   .     S
O1165  Zn1180  1.934   .     S
O1165  C105    1.279   1_565 S
O1166  Zn1583  1.938   .     S
O1167  Zn392   1.938   1_565 S
O1168  Zn1185  1.938   .     S
O1169  Zn1179  1.934   .     S
O1170  Zn1174  1.934   .     S
O1171  C1296   1.279   .     A
O1171  Zn1188  1.934   .     S
O1172  Zn1176  1.934   .     S
Zn1175 O340    1.944   1_565 S
Zn1178 O1539   1.944   .     S
Zn1180 O329    1.944   1_565 S
Zn1182 O1556   1.938   1_455 S
Zn1183 O1547   1.938   1_455 S
Zn1186 O1553   1.938   1_455 S
Zn1187 O1562   1.938   1_455 S
Zn1188 O1550   1.944   .     S
C1189  H1444   1.084   .     S
C1189  C1266   1.397   .     A
C1189  C1284   1.398   .     A
C1190  H1454   1.084   .     S
C1190  C1276   1.397   .     A
C1190  C1289   1.398   .     A
C1191  C1332   1.402   .     A
C1191  C1303   1.456   .     S
C1191  C1339   1.402   .     A
C1192  C1342   1.402   .     A
C1192  C1304   1.456   .     S
C1192  C1331   1.402   .     A
C1193  C1330   1.402   .     A
C1193  C1305   1.456   .     S
C1193  C1341   1.402   .     A
C1194  C1329   1.402   .     A
C1194  C1344   1.402   .     A
C1194  C1306   1.456   .     S
C1195  C1307   1.456   .     S
C1195  C1328   1.402   .     A
C1195  C1343   1.402   .     A
C1196  C1317   1.456   .     S
C1196  C1347   1.402   .     A
C1196  C1327   1.402   .     A
C1197  C1318   1.456   .     S
C1197  C1345   1.402   .     A
C1197  C1326   1.402   .     A
C1198  C1310   1.456   .     S
C1198  C1349   1.402   .     A
C1198  C1325   1.402   .     A
C1199  C1348   1.402   .     A
C1199  C1323   1.402   .     A
C1199  C1311   1.456   .     S
C1200  C1351   1.402   .     A
C1200  C1322   1.402   .     A
C1200  C1312   1.456   .     S
C1201  C498    1.398   1_565 A
C1201  H1455   1.084   .     S
C1201  C1277   1.397   .     A
C1202  C1314   1.456   .     S
C1202  C1321   1.402   .     A
C1202  C1350   1.402   .     A
C1203  C1320   1.402   .     A
C1203  C1315   1.456   .     S
C1203  C1353   1.402   .     A
C1204  C1352   1.402   .     A
C1204  C1319   1.402   .     A
C1204  C1316   1.456   .     S
C1205  C1266   1.416   .     A
C1205  C1300   1.457   .     S
C1206  C1299   1.457   .     S
C1206  C1267   1.416   .     A
C1207  C1273   1.416   .     A
C1207  C1298   1.457   .     S
C1208  C1274   1.416   .     A
C1208  C1297   1.457   .     S
C1209  C1296   1.457   .     S
C1209  C1279   1.416   .     S
C1210  C1295   1.457   .     S
C1210  C1276   1.416   .     A
C1211  C1294   1.457   .     S
C1211  C1282   1.416   .     S
C1212  C1278   1.397   .     A
C1212  H1456   1.084   .     S
C1212  C1292   1.398   .     S
C1213  C1293   1.457   .     S
C1213  C1278   1.416   .     A
C1214  H1468   1.113   .     S
C1214  C1215   1.533   .     S
C1214  H1467   1.111   .     S
C1214  C1266   1.516   .     S
C1215  H1465   1.112   .     S
C1215  H1466   1.111   .     S
C1215  C1216   1.526   .     S
C1216  H1461   1.111   .     S
C1216  H1463   1.111   .     S
C1216  H1464   1.110   .     S
C1217  H1476   1.113   .     S
C1217  C1218   1.533   .     S
C1217  H1475   1.111   .     S
C1217  C1267   1.516   .     S
C1218  C1219   1.526   .     S
C1218  H1474   1.111   .     S
C1218  H1472   1.112   .     S
C1219  H1471   1.110   .     S
C1219  H1469   1.111   .     S
C1219  H1470   1.111   .     S
C1220  C1268   1.516   .     S
C1220  H1483   1.113   .     S
C1220  H1482   1.111   .     S
C1220  C1221   1.533   .     S
C1221  H1480   1.112   .     S
C1221  C1222   1.526   .     S
C1221  H1481   1.111   .     S
C1222  H1479   1.110   .     S
C1222  H1477   1.111   .     S
C1222  H1478   1.111   .     S
C1223  H1457   1.084   .     S
C1223  C1288   1.398   .     A
C1223  C1279   1.397   .     A
C1224  C1225   1.533   .     S
C1224  H1491   1.113   .     S
C1224  H1490   1.111   .     S
C1224  C1270   1.516   .     S
C1225  C1226   1.526   .     S
C1225  H1489   1.111   .     S
C1225  H1488   1.112   .     S
C1226  H1486   1.111   .     S
C1226  H1487   1.110   .     S
C1226  H1485   1.111   .     S
C1227  H1499   1.113   .     S
C1227  C1228   1.533   .     S
C1227  C1271   1.516   .     S
C1227  H1498   1.111   .     S
C1228  H1496   1.112   .     S
C1228  H1497   1.111   .     S
C1228  C1229   1.526   .     S
C1229  H1494   1.110   .     S
C1229  H1492   1.111   .     S
C1229  H1493   1.111   .     S
C1230  H1505   1.111   .     S
C1230  C1272   1.516   .     S
C1230  C1231   1.533   .     S
C1230  H1507   1.113   .     S
C1231  H1504   1.111   .     S
C1231  H1503   1.112   .     S
C1231  C1232   1.526   .     S
C1232  H1500   1.111   .     S
C1232  H1501   1.111   .     S
C1232  H1502   1.110   .     S
C1233  H1514   1.113   .     S
C1233  C1235   1.533   .     S
C1233  H1513   1.111   .     S
C1233  C1273   1.516   .     S
C1234  H1458   1.084   .     S
C1234  C1281   1.397   .     A
C1234  C893    1.398   1_655 S
C1235  H1512   1.111   .     S
C1235  H1511   1.112   .     S
C1235  C1236   1.526   .     S
C1236  H1510   1.110   .     S
C1236  H1508   1.111   .     S
C1236  H1509   1.111   .     S
C1237  H1363   1.113   .     S
C1237  C1274   1.516   .     S
C1237  C1238   1.533   .     S
C1237  H1362   1.111   .     S
C1238  C1239   1.526   .     S
C1238  H1360   1.112   .     S
C1238  H1361   1.111   .     S
C1239  H1516   1.111   .     S
C1239  H1515   1.111   .     S
C1239  H1359   1.110   .     S
C1240  H1370   1.111   .     S
C1240  C1241   1.533   .     S
C1240  H1371   1.113   .     S
C1240  C1275   1.516   .     S
C1241  H1367   1.112   .     S
C1241  C1242   1.526   .     S
C1241  H1368   1.111   .     S
C1242  H1364   1.111   .     S
C1242  H1366   1.110   .     S
C1242  H1365   1.111   .     S
C1243  C1276   1.516   .     S
C1243  H1377   1.111   .     S
C1243  C1244   1.533   .     S
C1243  H1378   1.113   .     S
C1244  H1375   1.112   .     S
C1244  C1246   1.526   .     S
C1244  H1376   1.111   .     S
C1245  H1459   1.084   .     S
C1245  C1282   1.397   .     A
C1245  C1290   1.398   .     S
C1246  H1374   1.110   .     S
C1246  H1372   1.111   .     S
C1246  H1373   1.111   .     S
C1247  C1248   1.533   .     S
C1247  C1277   1.516   .     S
C1247  H1386   1.113   .     S
C1247  H1385   1.111   .     S
C1248  H1383   1.112   .     S
C1248  C1249   1.526   .     S
C1248  H1384   1.111   .     S
C1249  H1379   1.111   .     S
C1249  H1381   1.111   .     S
C1249  H1382   1.110   .     S
C1250  H1394   1.113   .     S
C1250  C1251   1.533   .     S
C1250  H1393   1.111   .     S
C1250  C1278   1.516   .     S
C1251  H1390   1.112   .     S
C1251  C1252   1.526   .     S
C1251  H1392   1.111   .     S
C1252  H1389   1.110   .     S
C1252  H1388   1.111   .     S
C1252  H1387   1.111   .     S
C1253  H1401   1.113   .     S
C1253  C1279   1.516   .     S
C1253  H1400   1.111   .     S
C1253  C1254   1.533   .     S
C1254  H1398   1.112   .     S
C1254  C1255   1.526   .     S
C1254  H1399   1.111   .     S
C1255  H1397   1.110   .     S
C1255  H1396   1.111   .     S
C1255  H1395   1.111   .     S
C1256  H1460   1.084   .     S
C1256  C1283   1.397   .     A
C1256  C500    1.398   1_565 A
C1257  C1281   1.516   .     S
C1257  H1409   1.113   .     S
C1257  H1408   1.111   .     S
C1257  C1258   1.533   .     S
C1258  H1406   1.112   .     S
C1258  H1407   1.111   .     S
C1258  C1259   1.526   .     S
C1259  H1404   1.111   .     S
C1259  H1403   1.111   .     S
C1259  H1405   1.110   .     S
C1260  C1282   1.516   .     S
C1260  C1261   1.533   .     S
C1260  H1416   1.111   .     S
C1260  H1417   1.113   .     S
C1261  H1415   1.111   .     S
C1261  H1414   1.112   .     S
C1261  C1262   1.526   .     S
C1262  H1411   1.111   .     S
C1262  H1412   1.110   .     S
C1262  H1410   1.111   .     S
C1263  C1283   1.516   .     S
C1263  C1264   1.533   .     S
C1263  H1425   1.113   .     S
C1263  H1423   1.111   .     S
C1264  C1265   1.526   .     S
C1264  H1422   1.111   .     S
C1264  H1421   1.112   .     S
C1265  H1419   1.111   .     S
C1265  H1418   1.111   .     S
C1265  H1420   1.110   .     S
C1267  C1269   1.397   .     A
C1268  C1280   1.397   .     A
C1268  C811    1.416   1_655 S
C1269  H1445   1.084   .     S
C1269  C1285   1.398   .     A
C1270  C1291   1.397   .     A
C1270  C812    1.416   1_655 S
C1271  C1302   1.397   .     A
C1271  C413    1.416   1_565 S
C1272  C1313   1.397   .     A
C1272  C414    1.416   1_565 S
C1273  C1324   1.397   .     A
C1274  C1335   1.397   .     A
C1275  C813    1.416   1_655 A
C1275  C1346   1.397   .     A
C1277  C419    1.416   1_565 A
C1280  H1446   1.084   .     S
C1280  C890    1.398   1_655 S
C1281  C814    1.416   1_655 S
C1283  C421    1.416   1_565 S
C1284  C1285   1.467   1_554 S
C1285  C1284   1.467   1_556 S
C1286  C1324   1.398   .     A
C1286  C1287   1.467   1_554 S
C1287  C1335   1.398   .     A
C1287  C1286   1.467   1_556 S
C1288  C1289   1.466   .     S
C1290  C1292   1.467   .     S
C1291  H1447   1.084   .     S
C1291  C891    1.398   1_655 S
C1293  O1568   1.279   .     A
C1294  O1565   1.279   .     S
C1295  O1566   1.279   .     A
C1296  O1520   1.279   .     S
C1297  O1521   1.279   .     S
C1297  O1525   1.279   .     S
C1298  O1522   1.279   .     S
C1298  O1526   1.279   .     S
C1299  O1523   1.279   .     A
C1299  O1527   1.279   .     A
C1300  O1524   1.279   .     S
C1300  O1529   1.279   .     S
C1301  O1530   1.279   .     A
C1301  C1356   1.456   .     S
C1301  O1558   1.279   .     A
C1302  H1448   1.084   .     S
C1302  C492    1.398   1_565 S
C1303  O1559   1.279   .     A
C1303  O1531   1.279   .     A
C1304  O1556   1.279   .     A
C1304  O1532   1.279   .     A
C1305  O1557   1.279   .     A
C1305  O1533   1.279   .     A
C1306  O1534   1.279   .     A
C1306  O1563   1.279   .     A
C1307  O1535   1.279   .     A
C1307  O1564   1.279   .     A
C1308  C1354   1.456   .     S
C1308  O1536   1.279   .     A
C1308  O1560   1.279   .     A
C1309  O1537   1.279   .     A
C1309  C1355   1.456   .     S
C1309  O1562   1.279   .     A
C1310  O1538   1.279   .     A
C1310  O1549   1.279   .     A
C1311  O1551   1.279   .     A
C1311  O1540   1.279   .     A
C1312  O1547   1.279   .     A
C1312  O1541   1.279   .     A
C1313  H1449   1.084   .     S
C1313  C493    1.398   1_565 S
C1314  O1548   1.279   .     A
C1314  O1542   1.279   .     A
C1315  O1554   1.279   .     A
C1315  O1543   1.279   .     A
C1316  O1555   1.279   .     A
C1316  O1544   1.279   .     A
C1317  O1552   1.279   .     A
C1317  O1545   1.279   .     A
C1318  O1553   1.279   .     A
C1318  O1546   1.279   .     A
C1319  H1357   1.083   .     S
C1319  C1336   1.386   .     A
C1320  C1334   1.386   .     A
C1320  H1429   1.083   .     S
C1321  H1440   1.083   .     S
C1321  C1333   1.386   .     A
C1322  H1451   1.083   .     S
C1322  C1332   1.386   .     A
C1323  C1331   1.386   .     A
C1323  H1462   1.083   .     S
C1324  H1450   1.084   .     S
C1325  C1330   1.386   .     A
C1325  H1473   1.083   .     S
C1326  C1329   1.386   .     A
C1326  H1484   1.083   .     S
C1327  C1328   1.386   .     A
C1327  H1495   1.083   .     S
C1328  H1506   1.083   .     S
C1329  H1358   1.083   .     S
C1330  H1369   1.083   .     S
C1331  H1380   1.083   .     S
C1332  H1391   1.083   .     S
C1333  H1402   1.083   .     S
C1333  C1356   1.402   .     A
C1334  H1413   1.083   .     S
C1334  C1355   1.402   .     A
C1335  H1452   1.084   .     S
C1336  C1354   1.402   .     A
C1336  H1424   1.083   .     S
C1337  C1353   1.386   .     A
C1337  C1355   1.402   .     A
C1337  H1426   1.083   .     S
C1338  H1427   1.083   .     S
C1338  C1354   1.402   .     A
C1338  C1352   1.386   .     A
C1339  H1428   1.083   .     S
C1339  C1351   1.386   .     A
C1340  H1430   1.083   .     S
C1340  C1356   1.402   .     A
C1340  C1350   1.386   .     A
C1341  C1349   1.386   .     A
C1341  H1431   1.083   .     S
C1342  H1432   1.083   .     S
C1342  C1348   1.386   .     A
C1343  H1433   1.083   .     S
C1343  C1347   1.386   .     A
C1344  H1434   1.083   .     S
C1344  C1345   1.386   .     A
C1345  H1435   1.083   .     S
C1346  H1453   1.084   .     S
C1346  C892    1.398   1_655 S
C1347  H1436   1.083   .     S
C1348  H1437   1.083   .     S
C1349  H1438   1.083   .     S
C1350  H1439   1.083   .     S
C1351  H1441   1.083   .     S
C1352  H1442   1.083   .     S
C1353  H1443   1.083   .     S
O1517  Zn1572  1.944   .     S
O1517  Zn1569  1.944   .     S
O1517  Zn1580  1.944   .     S
O1518  Zn1571  1.934   .     S
O1518  C502    1.279   1_565 A
O1519  Zn1574  1.934   .     S
O1519  C899    1.279   1_655 S
O1520  Zn1573  1.934   .     S
O1521  Zn1583  1.934   .     S
O1522  Zn1582  1.934   .     S
O1523  Zn1577  1.934   .     S
O1524  Zn1569  1.934   .     S
O1525  Zn1579  1.934   .     S
O1526  Zn1578  1.934   .     S
O1527  Zn1581  1.934   .     S
O1528  Zn1575  1.944   .     S
O1528  Zn1577  1.944   .     S
O1528  Zn1581  1.944   .     S
O1529  Zn1580  1.934   .     S
O1530  Zn1572  1.938   .     S
O1531  Zn1571  1.938   .     S
O1532  Zn1574  1.938   .     S
O1533  Zn1573  1.938   .     S
O1534  Zn1576  1.938   .     S
O1535  Zn1575  1.938   .     S
O1536  Zn1570  1.938   .     S
O1537  Zn1584  1.938   .     S
O1538  Zn1571  1.938   .     S
O1539  Zn1578  1.944   .     S
O1539  Zn1582  1.944   .     S
O1539  Zn1570  1.944   .     S
O1540  Zn1572  1.938   .     S
O1541  Zn1584  1.938   .     S
O1542  Zn1570  1.938   .     S
O1543  Zn1575  1.938   .     S
O1544  Zn1576  1.938   .     S
O1545  Zn1573  1.938   .     S
O1546  Zn1574  1.938   .     S
O1547  Zn1183  1.938   1_655 S
O1548  Zn1578  1.938   .     S
O1549  Zn789   1.938   1_565 S
O1550  Zn1579  1.944   .     S
O1550  Zn1583  1.944   .     S
O1550  Zn1573  1.944   .     S
O1551  Zn1580  1.938   .     S
O1552  Zn1583  1.938   .     S
O1553  Zn1186  1.938   1_655 S
O1554  Zn1577  1.938   .     S
O1555  Zn777   1.938   1_565 S
O1556  Zn1182  1.938   1_655 S
O1557  Zn1579  1.938   .     S
O1558  Zn1569  1.938   .     S
O1559  Zn785   1.938   1_565 S
O1560  Zn1582  1.938   .     S
O1561  Zn1576  1.934   .     S
O1561  C501    1.279   1_565 S
O1562  Zn1187  1.938   1_655 S
O1563  Zn788   1.938   1_565 S
O1564  Zn1581  1.938   .     S
O1565  Zn1575  1.934   .     S
O1566  Zn1570  1.934   .     S
O1567  C900    1.279   1_655 A
O1567  Zn1584  1.934   .     S
O1568  Zn1572  1.934   .     S
Zn1571 O736    1.944   1_565 S
Zn1574 O1143   1.944   1_655 S
Zn1576 O725    1.944   1_565 S
Zn1584 O1154   1.944   1_655 S
