data_str_m1_o2_o5_pcu_sym.8
_audit_creation_date              2020-01-03
_audit_creation_method            'Materials Studio'
_symmetry_space_group_name_H-M    'P1'
_symmetry_Int_Tables_number       1
_symmetry_cell_setting            triclinic
loop_
_symmetry_equiv_pos_as_xyz
  x,y,z
_cell_length_a                    24.4794
_cell_length_b                    24.5069
_cell_length_c                    22.3815
_cell_angle_alpha                 89.9989
_cell_angle_beta                  90.0273
_cell_angle_gamma                 90.0055
loop_
_atom_site_label
_atom_site_type_symbol
_atom_site_fract_x
_atom_site_fract_y
_atom_site_fract_z
_atom_site_U_iso_or_equiv
_atom_site_adp_type
_atom_site_occupancy
C1     C     0.22845   0.27024   0.25010   0.00000  Uiso   1.00
C2     C     0.22841   0.72864   0.24964   0.00000  Uiso   1.00
C3     C     0.17277   0.66322   0.30424   0.00000  Uiso   1.00
C4     C     0.33007   0.16469   0.69564   0.00000  Uiso   1.00
C5     C     0.63367   0.79762   0.26407   0.00000  Uiso   1.00
C6     C     0.19581   0.64184   0.71506   0.00000  Uiso   1.00
C7     C     0.80888   0.35374   0.29241   0.00000  Uiso   1.00
C8     C     0.36281   0.79983   0.27445   0.00000  Uiso   1.00
C9     C     0.63676   0.19995   0.72540   0.00000  Uiso   1.00
C10    C     0.19891   0.36141   0.27742   0.00000  Uiso   1.00
C11    C     0.79819   0.63497   0.73069   0.00000  Uiso   1.00
C12    C     0.66669   0.16822   0.30432   0.00000  Uiso   1.00
C13    C     0.72827   0.77070   0.75166   0.00000  Uiso   1.00
C14    C     0.33780   0.82659   0.69675   0.00000  Uiso   1.00
C15    C     0.81516   0.65222   0.29831   0.00000  Uiso   1.00
C16    C     0.18635   0.34863   0.70287   0.00000  Uiso   1.00
C17    C     0.14728   0.35136   0.25121   0.00000  Uiso   1.00
C18    C     0.85204   0.64782   0.74911   0.00000  Uiso   1.00
C19    C     0.35158   0.85237   0.25117   0.00000  Uiso   1.00
C20    C     0.64806   0.14771   0.74932   0.00000  Uiso   1.00
C21    C     0.85220   0.64794   0.25000   0.00000  Uiso   1.00
C22    C     0.14690   0.35078   0.74901   0.00000  Uiso   1.00
C23    C     0.64699   0.14742   0.24978   0.00000  Uiso   1.00
C24    C     0.27093   0.22797   0.24981   0.00000  Uiso   1.00
C25    C     0.35252   0.85288   0.75041   0.00000  Uiso   1.00
C26    C     0.85204   0.35261   0.75023   0.00000  Uiso   1.00
C27    C     0.14749   0.64770   0.25016   0.00000  Uiso   1.00
C28    C     0.64747   0.85183   0.75100   0.00000  Uiso   1.00
C29    C     0.35219   0.14744   0.24970   0.00000  Uiso   1.00
C30    C     0.14873   0.64736   0.75133   0.00000  Uiso   1.00
C31    C     0.85122   0.35259   0.24927   0.00000  Uiso   1.00
C32    C     0.35282   0.14731   0.75013   0.00000  Uiso   1.00
C33    C     0.64721   0.85194   0.24876   0.00000  Uiso   1.00
C34    C     0.05802   0.24908   0.24011   0.00000  Uiso   1.00
C35    C     0.23006   0.72858   0.75181   0.00000  Uiso   1.00
C36    C     0.99752   0.24865   0.22480   0.00000  Uiso   1.00
C37    C     0.94106   0.74632   0.73261   0.00000  Uiso   1.00
C38    C     0.00251   0.75023   0.74113   0.00000  Uiso   1.00
C39    C     0.25830   0.94297   0.26059   0.00000  Uiso   1.00
C40    C     0.24736   0.00214   0.24421   0.00000  Uiso   1.00
C41    C     0.74110   0.05571   0.74761   0.00000  Uiso   1.00
C42    C     0.75152   0.99772   0.76882   0.00000  Uiso   1.00
C43    C     0.92067   0.72357   0.15261   0.00000  Uiso   1.00
C44    C     0.96447   0.71183   0.10611   0.00000  Uiso   1.00
C45    C     0.06974   0.27091   0.83106   0.00000  Uiso   1.00
C46    C     0.76953   0.27164   0.24927   0.00000  Uiso   1.00
C47    C     0.02339   0.27945   0.87540   0.00000  Uiso   1.00
C48    C     0.68460   0.12960   0.10269   0.00000  Uiso   1.00
C49    C     0.65796   0.09394   0.05525   0.00000  Uiso   1.00
C50    C     0.29876   0.89600   0.88005   0.00000  Uiso   1.00
C51    C     0.32037   0.93135   0.93071   0.00000  Uiso   1.00
C52    C     0.84167   0.35150   0.89981   0.00000  Uiso   1.00
C53    C     0.87871   0.38006   0.94456   0.00000  Uiso   1.00
C54    C     0.16877   0.61709   0.11500   0.00000  Uiso   1.00
C55    C     0.14207   0.60222   0.05582   0.00000  Uiso   1.00
C56    C     0.71405   0.89133   0.88443   0.00000  Uiso   1.00
C57    C     0.27075   0.22688   0.74967   0.00000  Uiso   1.00
C58    C     0.69922   0.94124   0.92150   0.00000  Uiso   1.00
C59    C     0.28233   0.10210   0.12276   0.00000  Uiso   1.00
C60    C     0.29642   0.04761   0.09387   0.00000  Uiso   1.00
C61    C     0.11060   0.68920   0.88440   0.00000  Uiso   1.00
C62    C     0.05835   0.69171   0.92109   0.00000  Uiso   1.00
C63    C     0.87148   0.31528   0.10404   0.00000  Uiso   1.00
C64    C     0.88935   0.26722   0.06566   0.00000  Uiso   1.00
C65    C     0.33315   0.16090   0.90916   0.00000  Uiso   1.00
C66    C     0.36019   0.12835   0.95884   0.00000  Uiso   1.00
C67    C     0.72672   0.92244   0.15646   0.00000  Uiso   1.00
C68    C     0.72795   0.77068   0.24883   0.00000  Uiso   1.00
C69    C     0.73097   0.98246   0.13994   0.00000  Uiso   1.00
C70    C     0.59129   0.78584   0.63592   0.00000  Uiso   1.00
C71    C     0.55196   0.80254   0.58652   0.00000  Uiso   1.00
C72    C     0.40109   0.21698   0.37270   0.00000  Uiso   1.00
C73    C     0.45733   0.20115   0.39600   0.00000  Uiso   1.00
C74    C     0.79026   0.40638   0.63078   0.00000  Uiso   1.00
C75    C     0.80570   0.43681   0.57399   0.00000  Uiso   1.00
C76    C     0.19315   0.61543   0.38949   0.00000  Uiso   1.00
C77    C     0.16815   0.59068   0.44553   0.00000  Uiso   1.00
C78    C     0.37302   0.18078   0.60703   0.00000  Uiso   1.00
C79    C     0.00001   0.50006   0.47329   0.00000  Uiso   1.00
C80    C     0.40170   0.15298   0.55510   0.00000  Uiso   1.00
C81    C     0.54955   0.77314   0.22788   0.00000  Uiso   1.00
C82    C     0.53821   0.71231   0.22197   0.00000  Uiso   1.00
C83    C     0.23768   0.56039   0.69896   0.00000  Uiso   1.00
C84    C     0.23967   0.51135   0.65747   0.00000  Uiso   1.00
C85    C     0.76861   0.43119   0.32747   0.00000  Uiso   1.00
C86    C     0.77590   0.47803   0.37139   0.00000  Uiso   1.00
C87    C     0.41353   0.78296   0.35772   0.00000  Uiso   1.00
C88    C     0.47184   0.77961   0.38097   0.00000  Uiso   1.00
C89    C     0.58641   0.21815   0.64203   0.00000  Uiso   1.00
C90    C    -0.00001   0.50004   0.52671   0.00000  Uiso   1.00
C91    C     0.52822   0.21861   0.61822   0.00000  Uiso   1.00
C92    C     0.21461   0.40655   0.36460   0.00000  Uiso   1.00
C93    C     0.21505   0.46303   0.39243   0.00000  Uiso   1.00
C94    C     0.76204   0.57790   0.65788   0.00000  Uiso   1.00
C95    C     0.80519   0.58547   0.60924   0.00000  Uiso   1.00
C96    C     0.62069   0.18585   0.39103   0.00000  Uiso   1.00
C97    C     0.59307   0.15880   0.44421   0.00000  Uiso   1.00
C98    C     0.33348   0.87727   0.61196   0.00000  Uiso   1.00
C99    C     0.36378   0.89242   0.55498   0.00000  Uiso   1.00
C100   C     0.84263   0.64070   0.39450   0.00000  Uiso   1.00
C101   C     0.49990   0.00003   0.47329   0.00000  Uiso   1.00
C102   C     0.84838   0.59923   0.44466   0.00000  Uiso   1.00
C103   C     0.16423   0.36497   0.60591   0.00000  Uiso   1.00
C104   C     0.16286   0.40837   0.55733   0.00000  Uiso   1.00
C105   C     0.77067   0.72847   0.75150   0.00000  Uiso   1.00
C106   C     0.49989   0.00003   0.52672   0.00000  Uiso   1.00
C107   C     0.50000   0.00009   0.97329   0.00000  Uiso   1.00
C108   C     0.49998   0.00010   0.02671   0.00000  Uiso   1.00
C109   C     0.00001   0.50001   0.97329   0.00000  Uiso   1.00
C110   C     0.00001   0.50001   0.02671   0.00000  Uiso   1.00
C111   C     0.00001   0.50000   0.09006   0.00000  Uiso   1.00
C112   C     0.00001   0.50000   0.90994   0.00000  Uiso   1.00
C113   C     0.49999   0.00006   0.09005   0.00000  Uiso   1.00
C114   C     0.50000   0.00003   0.90995   0.00000  Uiso   1.00
C115   C     0.49994   0.00001   0.59006   0.00000  Uiso   1.00
C116   C     0.27061   0.77104   0.24977   0.00000  Uiso   1.00
C117   C     0.49996   0.00001   0.40994   0.00000  Uiso   1.00
C118   C    -0.00001   0.50000   0.59005   0.00000  Uiso   1.00
C119   C     0.00001   0.50004   0.40995   0.00000  Uiso   1.00
C120   C     0.10501   0.60536   0.25027   0.00000  Uiso   1.00
C121   C     0.89484   0.39472   0.74987   0.00000  Uiso   1.00
C122   C     0.60518   0.89477   0.24987   0.00000  Uiso   1.00
C123   C     0.39495   0.10506   0.74998   0.00000  Uiso   1.00
C124   C     0.89457   0.39470   0.24995   0.00000  Uiso   1.00
C125   C     0.10542   0.60528   0.75013   0.00000  Uiso   1.00
C126   C     0.39479   0.10519   0.24989   0.00000  Uiso   1.00
C127   C     0.72870   0.22928   0.75056   0.00000  Uiso   1.00
C128   C     0.60519   0.89466   0.75021   0.00000  Uiso   1.00
C129   C     0.89471   0.60530   0.74978   0.00000  Uiso   1.00
C130   C     0.10515   0.39450   0.25032   0.00000  Uiso   1.00
C131   C     0.39497   0.89486   0.75017   0.00000  Uiso   1.00
C132   C     0.60505   0.10504   0.25001   0.00000  Uiso   1.00
C133   C     0.10518   0.39446   0.74982   0.00000  Uiso   1.00
C134   C     0.89467   0.60524   0.24994   0.00000  Uiso   1.00
C135   C     0.60534   0.10524   0.74988   0.00000  Uiso   1.00
C136   C     0.39455   0.89477   0.25025   0.00000  Uiso   1.00
C137   C     0.17692   0.25946   0.22591   0.00000  Uiso   1.00
C138   C     0.77054   0.72851   0.24936   0.00000  Uiso   1.00
C139   C     0.82417   0.74154   0.76767   0.00000  Uiso   1.00
C140   C     0.25885   0.82319   0.22816   0.00000  Uiso   1.00
C141   C     0.74041   0.17732   0.77290   0.00000  Uiso   1.00
C142   C     0.80750   0.72483   0.20190   0.00000  Uiso   1.00
C143   C     0.18761   0.26974   0.79357   0.00000  Uiso   1.00
C144   C     0.70584   0.20937   0.19548   0.00000  Uiso   1.00
C145   C     0.28659   0.79804   0.80430   0.00000  Uiso   1.00
C146   C     0.80190   0.28146   0.80225   0.00000  Uiso   1.00
C147   C     0.20307   0.71343   0.19622   0.00000  Uiso   1.00
C148   C     0.71925   0.80211   0.80279   0.00000  Uiso   1.00
C149   C     0.22775   0.26897   0.74911   0.00000  Uiso   1.00
C150   C     0.27993   0.19662   0.19854   0.00000  Uiso   1.00
C151   C     0.18395   0.73382   0.78825   0.00000  Uiso   1.00
C152   C     0.81104   0.27069   0.20640   0.00000  Uiso   1.00
C153   C     0.29549   0.21138   0.80358   0.00000  Uiso   1.00
C154   C     0.74120   0.82416   0.23249   0.00000  Uiso   1.00
C155   C     0.69695   0.77945   0.70040   0.00000  Uiso   1.00
C156   C     0.30249   0.21904   0.30100   0.00000  Uiso   1.00
C157   C     0.78023   0.30266   0.69928   0.00000  Uiso   1.00
C158   C     0.21288   0.70411   0.30340   0.00000  Uiso   1.00
C159   C     0.28767   0.20284   0.69610   0.00000  Uiso   1.00
C160   C     0.72728   0.22883   0.24952   0.00000  Uiso   1.00
C161   C     0.67422   0.75771   0.26475   0.00000  Uiso   1.00
C162   C     0.23574   0.68245   0.71558   0.00000  Uiso   1.00
C163   C     0.76873   0.31323   0.29206   0.00000  Uiso   1.00
C164   C     0.32232   0.75956   0.27299   0.00000  Uiso   1.00
C165   C     0.67696   0.24042   0.72711   0.00000  Uiso   1.00
C166   C     0.23928   0.32121   0.27537   0.00000  Uiso   1.00
C167   C     0.75766   0.67534   0.73395   0.00000  Uiso   1.00
C168   C     0.70826   0.20738   0.30367   0.00000  Uiso   1.00
C169   C     0.29762   0.78630   0.69750   0.00000  Uiso   1.00
C170   C     0.77431   0.69195   0.29712   0.00000  Uiso   1.00
C171   C     0.27191   0.77168   0.75111   0.00000  Uiso   1.00
C172   C     0.22700   0.30868   0.70420   0.00000  Uiso   1.00
C173   C     0.13584   0.29914   0.22726   0.00000  Uiso   1.00
C174   C     0.86522   0.70193   0.76551   0.00000  Uiso   1.00
C175   C     0.29834   0.86439   0.23034   0.00000  Uiso   1.00
C176   C     0.70095   0.13618   0.77145   0.00000  Uiso   1.00
C177   C     0.84879   0.68549   0.20212   0.00000  Uiso   1.00
C178   C     0.14698   0.30981   0.79370   0.00000  Uiso   1.00
C179   C     0.66710   0.16724   0.19501   0.00000  Uiso   1.00
C180   C     0.32557   0.83971   0.80415   0.00000  Uiso   1.00
C181   C     0.84208   0.32208   0.80265   0.00000  Uiso   1.00
C182   C     0.77073   0.27198   0.75091   0.00000  Uiso   1.00
C183   C     0.16331   0.67255   0.19590   0.00000  Uiso   1.00
C184   C     0.67947   0.84353   0.80292   0.00000  Uiso   1.00
C185   C     0.31942   0.15518   0.19838   0.00000  Uiso   1.00
C186   C     0.14406   0.69318   0.78959   0.00000  Uiso   1.00
C187   C     0.85091   0.31155   0.20475   0.00000  Uiso   1.00
C188   C     0.33589   0.17028   0.80477   0.00000  Uiso   1.00
C189   C     0.70113   0.86473   0.23121   0.00000  Uiso   1.00
C190   C     0.65589   0.81906   0.69988   0.00000  Uiso   1.00
C191   C     0.34414   0.17999   0.30095   0.00000  Uiso   1.00
C192   C     0.82007   0.34351   0.69863   0.00000  Uiso   1.00
H1     H     0.16827   0.21990   0.20652   0.00000  Uiso   1.00
H2     H     0.21459   0.73284   0.15459   0.00000  Uiso   1.00
H3     H     0.87345   0.22852   0.08468   0.00000  Uiso   1.00
H4     H     0.87319   0.27198   0.01961   0.00000  Uiso   1.00
H5     H     0.93465   0.26525   0.06383   0.00000  Uiso   1.00
H6     H     0.29065   0.14537   0.90348   0.00000  Uiso   1.00
H7     H     0.33263   0.20443   0.92315   0.00000  Uiso   1.00
H8     H     0.40331   0.14150   0.96448   0.00000  Uiso   1.00
H9     H     0.33808   0.13549   0.00138   0.00000  Uiso   1.00
H10    H     0.35923   0.08411   0.94803   0.00000  Uiso   1.00
H11    H     0.69338   0.90407   0.12900   0.00000  Uiso   1.00
H12    H     0.76616   0.90231   0.14530   0.00000  Uiso   1.00
H13    H     0.74250   0.79329   0.84279   0.00000  Uiso   1.00
H14    H     0.76494   0.00192   0.16502   0.00000  Uiso   1.00
H15    H     0.73880   0.98669   0.09128   0.00000  Uiso   1.00
H16    H     0.69217   0.00358   0.15108   0.00000  Uiso   1.00
H17    H     0.56662   0.77516   0.67618   0.00000  Uiso   1.00
H18    H     0.61424   0.74921   0.62069   0.00000  Uiso   1.00
H19    H     0.52361   0.76836   0.57649   0.00000  Uiso   1.00
H20    H     0.52769   0.83853   0.60082   0.00000  Uiso   1.00
H21    H     0.57503   0.81300   0.54536   0.00000  Uiso   1.00
H22    H     0.37720   0.23536   0.40981   0.00000  Uiso   1.00
H23    H     0.40715   0.24850   0.33724   0.00000  Uiso   1.00
H24    H     0.25678   0.20495   0.15832   0.00000  Uiso   1.00
H25    H     0.45389   0.16730   0.42873   0.00000  Uiso   1.00
H26    H     0.48353   0.18750   0.35839   0.00000  Uiso   1.00
H27    H     0.47692   0.23677   0.41796   0.00000  Uiso   1.00
H28    H     0.78419   0.43686   0.66714   0.00000  Uiso   1.00
H29    H     0.75115   0.38452   0.62235   0.00000  Uiso   1.00
H30    H     0.77336   0.46682   0.56253   0.00000  Uiso   1.00
H31    H     0.84495   0.45873   0.58052   0.00000  Uiso   1.00
H32    H     0.81022   0.40759   0.53638   0.00000  Uiso   1.00
H33    H     0.22676   0.64300   0.40381   0.00000  Uiso   1.00
H34    H     0.21026   0.58195   0.36154   0.00000  Uiso   1.00
H35    H     0.17809   0.77012   0.81510   0.00000  Uiso   1.00
H36    H     0.15242   0.62352   0.47507   0.00000  Uiso   1.00
H37    H     0.13389   0.56313   0.43339   0.00000  Uiso   1.00
H38    H     0.19955   0.56698   0.47022   0.00000  Uiso   1.00
H39    H     0.40439   0.20363   0.63316   0.00000  Uiso   1.00
H40    H     0.34281   0.21010   0.58837   0.00000  Uiso   1.00
H41    H     0.37140   0.13202   0.52614   0.00000  Uiso   1.00
H42    H     0.42377   0.18407   0.52836   0.00000  Uiso   1.00
H43    H     0.43159   0.12264   0.57203   0.00000  Uiso   1.00
H44    H     0.56813   0.78842   0.18543   0.00000  Uiso   1.00
H45    H     0.50991   0.79466   0.23285   0.00000  Uiso   1.00
H46    H     0.81310   0.23769   0.17431   0.00000  Uiso   1.00
H47    H     0.51767   0.69692   0.26287   0.00000  Uiso   1.00
H48    H     0.51120   0.70487   0.18294   0.00000  Uiso   1.00
H49    H     0.57707   0.68976   0.21535   0.00000  Uiso   1.00
H50    H     0.22390   0.54609   0.74380   0.00000  Uiso   1.00
H51    H     0.27964   0.57763   0.70259   0.00000  Uiso   1.00
H52    H     0.26661   0.47937   0.67663   0.00000  Uiso   1.00
H53    H     0.19792   0.49450   0.65178   0.00000  Uiso   1.00
H54    H     0.25573   0.52367   0.61307   0.00000  Uiso   1.00
H55    H     0.72719   0.41346   0.33403   0.00000  Uiso   1.00
H56    H     0.77179   0.44819   0.28135   0.00000  Uiso   1.00
H57    H     0.28378   0.23245   0.84401   0.00000  Uiso   1.00
H58    H     0.77200   0.46287   0.41796   0.00000  Uiso   1.00
H59    H     0.81688   0.49669   0.36551   0.00000  Uiso   1.00
H60    H     0.74426   0.50966   0.36334   0.00000  Uiso   1.00
H61    H     0.39130   0.74561   0.37216   0.00000  Uiso   1.00
H62    H     0.39393   0.81955   0.37822   0.00000  Uiso   1.00
H63    H     0.49507   0.81649   0.36730   0.00000  Uiso   1.00
H64    H     0.47158   0.77710   0.43052   0.00000  Uiso   1.00
H65    H     0.49236   0.74280   0.36277   0.00000  Uiso   1.00
H66    H     0.60835   0.18339   0.62052   0.00000  Uiso   1.00
H67    H     0.60647   0.25716   0.62915   0.00000  Uiso   1.00
H68    H     0.78305   0.83479   0.22190   0.00000  Uiso   1.00
H69    H     0.50764   0.17956   0.62948   0.00000  Uiso   1.00
H70    H     0.50499   0.25293   0.63831   0.00000  Uiso   1.00
H71    H     0.52859   0.22356   0.56891   0.00000  Uiso   1.00
H72    H     0.25299   0.38528   0.37753   0.00000  Uiso   1.00
H73    H     0.17887   0.38394   0.38323   0.00000  Uiso   1.00
H74    H     0.17682   0.48480   0.38047   0.00000  Uiso   1.00
H75    H     0.21775   0.45967   0.44179   0.00000  Uiso   1.00
H76    H     0.25069   0.48661   0.37585   0.00000  Uiso   1.00
H77    H     0.72756   0.60654   0.65044   0.00000  Uiso   1.00
H78    H     0.74456   0.53636   0.65275   0.00000  Uiso   1.00
H79    H     0.70503   0.75599   0.66033   0.00000  Uiso   1.00
H80    H     0.83835   0.55504   0.61459   0.00000  Uiso   1.00
H81    H     0.78600   0.57954   0.56481   0.00000  Uiso   1.00
H82    H     0.82276   0.62720   0.61110   0.00000  Uiso   1.00
H83    H     0.58847   0.20594   0.36349   0.00000  Uiso   1.00
H84    H     0.64931   0.21735   0.40838   0.00000  Uiso   1.00
H85    H     0.62412   0.13915   0.47332   0.00000  Uiso   1.00
H86    H     0.57060   0.18987   0.47063   0.00000  Uiso   1.00
H87    H     0.56370   0.12740   0.42852   0.00000  Uiso   1.00
H88    H     0.32769   0.91513   0.63884   0.00000  Uiso   1.00
H89    H     0.29283   0.86037   0.59934   0.00000  Uiso   1.00
H90    H     0.29440   0.24201   0.34140   0.00000  Uiso   1.00
H91    H     0.36949   0.85567   0.52661   0.00000  Uiso   1.00
H92    H     0.33997   0.92323   0.52957   0.00000  Uiso   1.00
H93    H     0.40440   0.90983   0.56614   0.00000  Uiso   1.00
H94    H     0.81793   0.67559   0.41141   0.00000  Uiso   1.00
H95    H     0.88429   0.65535   0.38228   0.00000  Uiso   1.00
H96    H     0.87480   0.56494   0.43008   0.00000  Uiso   1.00
H97    H     0.86711   0.61886   0.48443   0.00000  Uiso   1.00
H98    H     0.80758   0.58297   0.45698   0.00000  Uiso   1.00
H99    H     0.12153   0.35113   0.61430   0.00000  Uiso   1.00
H100   H     0.18899   0.33000   0.58929   0.00000  Uiso   1.00
H101   H     0.75774   0.29371   0.65874   0.00000  Uiso   1.00
H102   H     0.20491   0.42318   0.54815   0.00000  Uiso   1.00
H103   H     0.14547   0.39097   0.51564   0.00000  Uiso   1.00
H104   H     0.13717   0.44330   0.57177   0.00000  Uiso   1.00
H105   H     0.83430   0.78281   0.78108   0.00000  Uiso   1.00
H106   H     0.23062   0.71843   0.34487   0.00000  Uiso   1.00
H107   H     0.26776   0.21345   0.65448   0.00000  Uiso   1.00
H108   H     0.66340   0.71629   0.27684   0.00000  Uiso   1.00
H109   H     0.27126   0.67767   0.68724   0.00000  Uiso   1.00
H110   H     0.73695   0.31436   0.32569   0.00000  Uiso   1.00
H111   H     0.33153   0.71892   0.28919   0.00000  Uiso   1.00
H112   H     0.66737   0.28100   0.71100   0.00000  Uiso   1.00
H113   H     0.27952   0.33020   0.29299   0.00000  Uiso   1.00
H114   H     0.71551   0.66527   0.72427   0.00000  Uiso   1.00
H115   H     0.72613   0.22049   0.34553   0.00000  Uiso   1.00
H116   H     0.21843   0.83245   0.21118   0.00000  Uiso   1.00
H117   H     0.28644   0.76679   0.65583   0.00000  Uiso   1.00
H118   H     0.74581   0.69447   0.33404   0.00000  Uiso   1.00
H119   H     0.25847   0.30931   0.67018   0.00000  Uiso   1.00
H120   H     0.06198   0.25932   0.28852   0.00000  Uiso   1.00
H121   H     0.07465   0.20750   0.23204   0.00000  Uiso   1.00
H122   H     0.99167   0.23940   0.17664   0.00000  Uiso   1.00
H123   H     0.97620   0.21715   0.25178   0.00000  Uiso   1.00
H124   H     0.97947   0.28911   0.23502   0.00000  Uiso   1.00
H125   H     0.92395   0.78839   0.73217   0.00000  Uiso   1.00
H126   H     0.93341   0.72654   0.68845   0.00000  Uiso   1.00
H127   H     0.78063   0.16819   0.79050   0.00000  Uiso   1.00
H128   H     0.02078   0.70882   0.73906   0.00000  Uiso   1.00
H129   H     0.02062   0.77567   0.70517   0.00000  Uiso   1.00
H130   H     0.01198   0.76908   0.78507   0.00000  Uiso   1.00
H131   H     0.28441   0.94255   0.30146   0.00000  Uiso   1.00
H132   H     0.21843   0.92311   0.27071   0.00000  Uiso   1.00
H133   H     0.22538   0.02275   0.28127   0.00000  Uiso   1.00
H134   H     0.28656   0.02373   0.23641   0.00000  Uiso   1.00
H135   H     0.22187   0.00418   0.20322   0.00000  Uiso   1.00
H136   H     0.78120   0.07486   0.73693   0.00000  Uiso   1.00
H137   H     0.71573   0.05361   0.70627   0.00000  Uiso   1.00
H138   H     0.80362   0.75186   0.16383   0.00000  Uiso   1.00
H139   H     0.77677   0.99822   0.81006   0.00000  Uiso   1.00
H140   H     0.71211   0.97710   0.77829   0.00000  Uiso   1.00
H141   H     0.77345   0.97444   0.73367   0.00000  Uiso   1.00
H142   H     0.94124   0.72785   0.19687   0.00000  Uiso   1.00
H143   H     0.90035   0.76273   0.14078   0.00000  Uiso   1.00
H144   H     0.94563   0.70797   0.06116   0.00000  Uiso   1.00
H145   H     0.99463   0.74567   0.10528   0.00000  Uiso   1.00
H146   H     0.98605   0.67327   0.11723   0.00000  Uiso   1.00
H147   H     0.08717   0.22948   0.83829   0.00000  Uiso   1.00
H148   H     0.05219   0.27339   0.78511   0.00000  Uiso   1.00
H149   H     0.18764   0.23917   0.82853   0.00000  Uiso   1.00
H150   H     0.00483   0.32039   0.86887   0.00000  Uiso   1.00
H151   H     0.99143   0.24791   0.86852   0.00000  Uiso   1.00
H152   H     0.03908   0.27629   0.92184   0.00000  Uiso   1.00
H153   H     0.71580   0.10451   0.12648   0.00000  Uiso   1.00
H154   H     0.70509   0.16421   0.07971   0.00000  Uiso   1.00
H155   H     0.68957   0.07800   0.02425   0.00000  Uiso   1.00
H156   H     0.63676   0.05897   0.07660   0.00000  Uiso   1.00
H157   H     0.62778   0.11813   0.02932   0.00000  Uiso   1.00
H158   H     0.26552   0.86981   0.89809   0.00000  Uiso   1.00
H159   H     0.28175   0.92362   0.84503   0.00000  Uiso   1.00
H160   H     0.71853   0.22766   0.15372   0.00000  Uiso   1.00
H161   H     0.33748   0.90523   0.96671   0.00000  Uiso   1.00
H162   H     0.35285   0.95896   0.91383   0.00000  Uiso   1.00
H163   H     0.28673   0.95645   0.94948   0.00000  Uiso   1.00
H164   H     0.81995   0.31780   0.92308   0.00000  Uiso   1.00
H165   H     0.81122   0.38204   0.88361   0.00000  Uiso   1.00
H166   H     0.89872   0.41567   0.92308   0.00000  Uiso   1.00
H167   H     0.85428   0.39458   0.98320   0.00000  Uiso   1.00
H168   H     0.91071   0.35155   0.96079   0.00000  Uiso   1.00
H169   H     0.16979   0.57985   0.14355   0.00000  Uiso   1.00
H170   H     0.21138   0.63074   0.10576   0.00000  Uiso   1.00
H171   H     0.26871   0.78547   0.84634   0.00000  Uiso   1.00
H172   H     0.14265   0.63797   0.02536   0.00000  Uiso   1.00
H173   H     0.16477   0.56817   0.03451   0.00000  Uiso   1.00
H174   H     0.09912   0.58930   0.06328   0.00000  Uiso   1.00
H175   H     0.74713   0.90330   0.85278   0.00000  Uiso   1.00
H176   H     0.72950   0.85926   0.91521   0.00000  Uiso   1.00
H177   H     0.66733   0.93052   0.95478   0.00000  Uiso   1.00
H178   H     0.73593   0.95642   0.94547   0.00000  Uiso   1.00
H179   H     0.68348   0.97416   0.89202   0.00000  Uiso   1.00
H180   H     0.26543   0.12972   0.08798   0.00000  Uiso   1.00
H181   H     0.25015   0.09436   0.15702   0.00000  Uiso   1.00
H182   H     0.79502   0.25734   0.84210   0.00000  Uiso   1.00
H183   H     0.31211   0.01877   0.12805   0.00000  Uiso   1.00
H184   H     0.25938   0.02981   0.07287   0.00000  Uiso   1.00
H185   H     0.32825   0.05313   0.05914   0.00000  Uiso   1.00
H186   H     0.13993   0.71960   0.90281   0.00000  Uiso   1.00
H187   H     0.12813   0.64740   0.88896   0.00000  Uiso   1.00
H188   H     0.02857   0.66115   0.90427   0.00000  Uiso   1.00
H189   H     0.06741   0.68284   0.96870   0.00000  Uiso   1.00
H190   H     0.03997   0.73304   0.91779   0.00000  Uiso   1.00
H191   H     0.88918   0.35316   0.08488   0.00000  Uiso   1.00
H192   H     0.82611   0.31942   0.10106   0.00000  Uiso   1.00
O1     O    -0.00000   0.50000   0.25000   0.00000  Uiso   1.00
O2     O     0.00000   0.45454   0.88202   0.00000  Uiso   1.00
O3     O     0.54546  -0.00000   0.11798   0.00000  Uiso   1.00
O4     O     0.45454  -0.00000   0.88202   0.00000  Uiso   1.00
O5     O     0.50000   0.95454   0.61798   0.00000  Uiso   1.00
O6     O     0.50000   0.04546   0.38202   0.00000  Uiso   1.00
O7     O     0.95454   0.50000   0.61798   0.00000  Uiso   1.00
O8     O     0.04546   0.50000   0.38202   0.00000  Uiso   1.00
O9     O     0.50000   0.04546   0.61798   0.00000  Uiso   1.00
O10    O     0.50000   0.95454   0.38202   0.00000  Uiso   1.00
O11    O     0.04546   0.50000   0.61798   0.00000  Uiso   1.00
O12    O     0.00000   0.50000   0.75000   0.00000  Uiso   1.00
O13    O     0.95454   0.50000   0.38202   0.00000  Uiso   1.00
O14    O     0.06399   0.60947   0.21539   0.00000  Uiso   1.00
O15    O     0.93601   0.39053   0.78461   0.00000  Uiso   1.00
O16    O     0.60947   0.93601   0.21539   0.00000  Uiso   1.00
O17    O     0.39053   0.06399   0.78461   0.00000  Uiso   1.00
O18    O     0.93601   0.39053   0.21539   0.00000  Uiso   1.00
O19    O     0.06399   0.60947   0.78461   0.00000  Uiso   1.00
O20    O     0.39053   0.06399   0.21539   0.00000  Uiso   1.00
O21    O     0.60947   0.93601   0.78461   0.00000  Uiso   1.00
O22    O     0.93601   0.60947   0.78461   0.00000  Uiso   1.00
O23    O     0.50000  -0.00000   0.25000   0.00000  Uiso   1.00
O24    O     0.06399   0.39053   0.21539   0.00000  Uiso   1.00
O25    O     0.39053   0.93601   0.78461   0.00000  Uiso   1.00
O26    O     0.60947   0.06399   0.21539   0.00000  Uiso   1.00
O27    O     0.06399   0.39053   0.78461   0.00000  Uiso   1.00
O28    O     0.93601   0.60947   0.21539   0.00000  Uiso   1.00
O29    O     0.60947   0.06399   0.78461   0.00000  Uiso   1.00
O30    O     0.39053   0.93601   0.21539   0.00000  Uiso   1.00
O31    O     0.56399   0.10947   0.71539   0.00000  Uiso   1.00
O32    O     0.43601   0.89053   0.28461   0.00000  Uiso   1.00
O33    O     0.10947   0.43601   0.71539   0.00000  Uiso   1.00
O34    O     0.50000  -0.00000   0.75000   0.00000  Uiso   1.00
O35    O     0.89053   0.56399   0.28461   0.00000  Uiso   1.00
O36    O     0.43601   0.89053   0.71539   0.00000  Uiso   1.00
O37    O     0.56399   0.10947   0.28461   0.00000  Uiso   1.00
O38    O     0.89053   0.56399   0.71539   0.00000  Uiso   1.00
O39    O     0.10947   0.43601   0.28461   0.00000  Uiso   1.00
O40    O     0.43601   0.10947   0.28461   0.00000  Uiso   1.00
O41    O     0.56399   0.89053   0.71539   0.00000  Uiso   1.00
O42    O     0.89053   0.43601   0.28461   0.00000  Uiso   1.00
O43    O     0.10947   0.56399   0.71539   0.00000  Uiso   1.00
O44    O     0.56399   0.89053   0.28461   0.00000  Uiso   1.00
O45    O     0.00000   0.45454   0.11798   0.00000  Uiso   1.00
O46    O     0.43601   0.10947   0.71539   0.00000  Uiso   1.00
O47    O     0.10947   0.56399   0.28461   0.00000  Uiso   1.00
O48    O     0.89053   0.43601   0.71539   0.00000  Uiso   1.00
O49    O     0.08491   0.28760   0.20343   0.00000  Uiso   1.00
O50    O     0.91834   0.71587   0.78012   0.00000  Uiso   1.00
O51    O     0.28450   0.91655   0.21233   0.00000  Uiso   1.00
O52    O     0.71405   0.08502   0.79316   0.00000  Uiso   1.00
O53    O     0.88245   0.68037   0.15275   0.00000  Uiso   1.00
O54    O     0.11003   0.31130   0.84045   0.00000  Uiso   1.00
O55    O     0.64385   0.14915   0.14198   0.00000  Uiso   1.00
O56    O     0.00000   0.54546   0.88202   0.00000  Uiso   1.00
O57    O     0.34181   0.86363   0.85738   0.00000  Uiso   1.00
O58    O     0.87399   0.33019   0.85302   0.00000  Uiso   1.00
O59    O     0.13824   0.65894   0.14259   0.00000  Uiso   1.00
O60    O     0.66674   0.87241   0.85465   0.00000  Uiso   1.00
O61    O     0.33044   0.12539   0.14691   0.00000  Uiso   1.00
O62    O     0.09800   0.70115   0.82425   0.00000  Uiso   1.00
O63    O     0.89234   0.30872   0.16267   0.00000  Uiso   1.00
O64    O     0.36408   0.15488   0.85635   0.00000  Uiso   1.00
O65    O     0.71565   0.91801   0.21822   0.00000  Uiso   1.00
O66    O     0.62744   0.82951   0.64761   0.00000  Uiso   1.00
O67    O     0.45454  -0.00000   0.11798   0.00000  Uiso   1.00
O68    O     0.37393   0.16946   0.35243   0.00000  Uiso   1.00
O69    O     0.83262   0.36963   0.64551   0.00000  Uiso   1.00
O70    O     0.15222   0.64415   0.35805   0.00000  Uiso   1.00
O71    O     0.34673   0.14096   0.64251   0.00000  Uiso   1.00
O72    O     0.58102   0.78312   0.27990   0.00000  Uiso   1.00
O73    O     0.20101   0.59914   0.67513   0.00000  Uiso   1.00
O74    O     0.80933   0.39158   0.33830   0.00000  Uiso   1.00
O75    O     0.41455   0.78663   0.29472   0.00000  Uiso   1.00
O76    O     0.58498   0.21278   0.70489   0.00000  Uiso   1.00
O77    O     0.21113   0.41181   0.30182   0.00000  Uiso   1.00
O78    O     0.54546  -0.00000   0.88202   0.00000  Uiso   1.00
O79    O     0.78479   0.58148   0.71607   0.00000  Uiso   1.00
O80    O     0.64908   0.14584   0.35782   0.00000  Uiso   1.00
O81    O     0.36441   0.83832   0.64379   0.00000  Uiso   1.00
O82    O     0.81669   0.61562   0.34531   0.00000  Uiso   1.00
O83    O     0.18749   0.38748   0.65813   0.00000  Uiso   1.00
O84    O     0.00000   0.54546   0.11798   0.00000  Uiso   1.00
Zn1    Zn    0.06497   0.50000   0.29947   0.00000  Uiso   1.00
Zn2    Zn    0.43503  -0.00000   0.20053   0.00000  Uiso   1.00
Zn3    Zn    0.00000   0.43503   0.79947   0.00000  Uiso   1.00
Zn4    Zn    0.00000   0.56497   0.20053   0.00000  Uiso   1.00
Zn5    Zn    0.43503  -0.00000   0.79947   0.00000  Uiso   1.00
Zn6    Zn    0.56497  -0.00000   0.20053   0.00000  Uiso   1.00
Zn7    Zn    0.00000   0.56497   0.79947   0.00000  Uiso   1.00
Zn8    Zn    0.00000   0.43503   0.20053   0.00000  Uiso   1.00
Zn9    Zn    0.93503   0.50000   0.70053   0.00000  Uiso   1.00
Zn10   Zn    0.50000   0.93503   0.29947   0.00000  Uiso   1.00
Zn11   Zn    0.50000   0.06497   0.70053   0.00000  Uiso   1.00
Zn12   Zn    0.93503   0.50000   0.29947   0.00000  Uiso   1.00
Zn13   Zn    0.06497   0.50000   0.70053   0.00000  Uiso   1.00
Zn14   Zn    0.50000   0.06497   0.29947   0.00000  Uiso   1.00
Zn15   Zn    0.50000   0.93503   0.70053   0.00000  Uiso   1.00
Zn16   Zn    0.56497  -0.00000   0.79947   0.00000  Uiso   1.00
loop_
_geom_bond_atom_site_label_1
_geom_bond_atom_site_label_2
_geom_bond_distance
_geom_bond_site_symmetry_2
_ccdc_geom_bond_type
C1     C137    1.398   .     A
C1     C166    1.397   .     A
C1     C24     1.468   .     S
C2     C116    1.465   .     S
C2     C147    1.397   .     A
C2     C158    1.398   .     A
C3     C158    1.403   .     A
C3     C27     1.411   .     A
C3     O70     1.387   .     S
C4     C159    1.397   .     A
C4     O71     1.385   .     S
C4     C32     1.406   .     A
C5     C161    1.394   .     A
C5     C33     1.414   .     A
C5     O72     1.383   .     S
C6     C30     1.416   .     A
C6     C162    1.395   .     A
C6     O73     1.382   .     S
C7     C163    1.397   .     A
C7     O74     1.384   .     S
C7     C31     1.417   .     A
C8     O75     1.384   .     S
C8     C19     1.416   .     A
C8     C164    1.399   .     A
C9     C20     1.415   .     A
C9     C165    1.398   .     A
C9     O76     1.384   .     S
C10    C166    1.396   .     A
C10    O77     1.383   .     S
C10    C17     1.415   .     A
C11    C167    1.403   .     A
C11    C18     1.416   .     A
C11    O79     1.390   .     S
C12    O80     1.386   .     S
C12    C23     1.408   .     A
C12    C168    1.399   .     A
C13    C105    1.466   .     S
C13    C155    1.396   .     A
C13    C148    1.397   .     A
C14    O81     1.383   .     S
C14    C169    1.394   .     A
C14    C25     1.409   .     A
C15    O82     1.383   .     S
C15    C170    1.396   .     A
C15    C21     1.415   .     A
C16    C22     1.415   .     A
C16    O83     1.382   .     S
C16    C172    1.396   .     A
C17    C173    1.415   .     A
C17    C130    1.477   .     S
C18    C174    1.413   .     A
C18    C129    1.476   .     S
C19    C175    1.415   .     A
C19    C136    1.478   .     S
C20    C176    1.415   .     A
C20    C135    1.475   .     S
C21    C177    1.415   .     A
C21    C134    1.475   .     S
C22    C133    1.480   .     S
C22    C178    1.417   .     A
C23    C179    1.408   .     A
C23    C132    1.460   .     S
C24    C156    1.399   .     A
C24    C150    1.399   .     A
C25    C180    1.410   .     A
C25    C131    1.462   .     S
C26    C121    1.471   .     S
C26    C192    1.413   .     A
C26    C181    1.413   .     A
C27    C120    1.469   .     S
C27    C183    1.413   .     A
C28    C190    1.413   .     A
C28    C184    1.416   .     A
C28    C128    1.474   .     S
C29    C191    1.411   .     A
C29    C185    1.413   .     A
C29    C126    1.470   .     S
C30    C186    1.417   .     A
C30    C125    1.479   .     S
C31    C187    1.416   .     A
C31    C124    1.480   .     S
C32    C123    1.462   .     S
C32    C188    1.409   .     A
C33    C189    1.412   .     A
C33    C122    1.470   .     S
C34    H121    1.112   .     S
C34    H120    1.116   .     S
C34    O49     1.414   .     S
C34    C36     1.520   1_455 S
C35    C171    1.472   .     S
C35    C151    1.399   .     A
C35    C162    1.398   .     A
C36    H124    1.109   .     S
C36    H123    1.110   .     S
C36    H122    1.111   .     S
C36    C34     1.520   1_655 S
C37    H126    1.117   .     S
C37    H125    1.113   .     S
C37    O50     1.413   .     S
C37    C38     1.519   1_655 S
C38    H129    1.110   .     S
C38    H130    1.111   .     S
C38    H128    1.110   .     S
C38    C37     1.519   1_455 S
C39    O51     1.413   .     S
C39    H132    1.114   .     S
C39    H131    1.116   .     S
C39    C40     1.520   1_565 S
C40    H133    1.110   .     S
C40    H135    1.110   .     S
C40    H134    1.110   .     S
C40    C39     1.520   1_545 S
C41    H137    1.115   .     S
C41    H136    1.114   .     S
C41    O52     1.412   .     S
C41    C42     1.520   1_545 S
C42    H141    1.110   .     S
C42    H139    1.111   .     S
C42    H140    1.109   .     S
C42    C41     1.520   1_565 S
C43    C44     1.522   .     S
C43    H143    1.113   .     S
C43    O53     1.413   .     S
C43    H142    1.116   .     S
C44    H145    1.110   .     S
C44    H144    1.111   .     S
C44    H146    1.111   .     S
C45    C47     1.522   .     S
C45    H148    1.116   .     S
C45    H147    1.113   .     S
C45    O54     1.413   .     S
C46    C160    1.473   .     S
C46    C163    1.399   .     A
C46    C152    1.398   .     A
C47    H150    1.111   .     S
C47    H152    1.111   .     S
C47    H151    1.111   1_455 S
C48    H153    1.116   .     S
C48    C49     1.522   .     S
C48    O55     1.414   .     S
C48    H154    1.112   .     S
C49    H156    1.110   .     S
C49    H155    1.111   .     S
C49    H157    1.111   .     S
C50    H159    1.116   .     S
C50    O57     1.413   .     S
C50    C51     1.522   .     S
C50    H158    1.112   .     S
C51    H163    1.111   .     S
C51    H161    1.111   .     S
C51    H162    1.110   .     S
C52    O58     1.413   .     S
C52    C53     1.521   .     S
C52    H165    1.117   .     S
C52    H164    1.112   .     S
C53    H167    1.110   .     S
C53    H166    1.110   .     S
C53    H168    1.110   .     S
C54    H170    1.115   .     S
C54    C55     1.521   .     S
C54    O59     1.411   .     S
C54    H169    1.114   .     S
C55    H172    1.110   .     S
C55    H174    1.111   .     S
C55    H173    1.110   .     S
C56    H175    1.115   .     S
C56    O60     1.414   .     S
C56    C58     1.522   .     S
C56    H176    1.111   .     S
C57    C159    1.399   .     A
C57    C153    1.402   .     A
C57    C149    1.474   .     S
C58    H179    1.111   .     S
C58    H177    1.111   .     S
C58    H178    1.111   .     S
C59    C60     1.523   .     S
C59    H181    1.116   .     S
C59    O61     1.415   .     S
C59    H180    1.111   .     S
C60    H184    1.110   .     S
C60    H185    1.109   .     S
C60    H183    1.110   .     S
C61    O62     1.412   .     S
C61    H186    1.113   .     S
C61    C62     1.522   .     S
C61    H187    1.115   .     S
C62    H189    1.110   .     S
C62    H188    1.111   .     S
C62    H190    1.111   .     S
C63    H192    1.117   .     S
C63    O63     1.417   .     S
C63    C64     1.522   .     S
C63    H191    1.111   .     S
C64    H3      1.110   .     S
C64    H4      1.110   .     S
C64    H5      1.111   .     S
C65    H7      1.112   .     S
C65    H6      1.115   .     S
C65    O64     1.412   .     S
C65    C66     1.520   .     S
C66    H8      1.111   .     S
C66    H10     1.111   .     S
C66    H9      1.109   1_556 S
C67    H11     1.116   .     S
C67    O65     1.413   .     S
C67    H12     1.113   .     S
C67    C69     1.520   .     S
C68    C138    1.468   .     S
C68    C161    1.399   .     A
C68    C154    1.399   .     A
C69    H15     1.111   .     S
C69    H14     1.111   1_565 S
C69    H16     1.110   1_565 S
C70    O66     1.413   .     S
C70    H18     1.113   .     S
C70    C71     1.522   .     S
C70    H17     1.116   .     S
C71    H19     1.111   .     S
C71    H21     1.111   .     S
C71    H20     1.111   .     S
C72    C73     1.522   .     S
C72    H23     1.117   .     S
C72    H22     1.111   .     S
C72    O68     1.416   .     S
C73    H27     1.110   .     S
C73    H26     1.110   .     S
C73    H25     1.110   .     S
C74    O69     1.412   .     S
C74    H28     1.115   .     S
C74    H29     1.113   .     S
C74    C75     1.521   .     S
C75    H32     1.111   .     S
C75    H30     1.110   .     S
C75    H31     1.110   .     S
C76    O70     1.412   .     S
C76    H33     1.112   .     S
C76    H34     1.114   .     S
C76    C77     1.522   .     S
C77    H37     1.110   .     S
C77    H36     1.111   .     S
C77    H38     1.110   .     S
C78    O71     1.413   .     S
C78    H39     1.116   .     S
C78    H40     1.112   .     S
C78    C80     1.520   .     S
C79    C119    1.418   .     S
C79    C90     1.196   .     S
C80    H42     1.109   .     S
C80    H41     1.111   .     S
C80    H43     1.110   .     S
C81    C82     1.522   .     S
C81    H45     1.110   .     S
C81    O72     1.417   .     S
C81    H44     1.118   .     S
C82    H47     1.110   .     S
C82    H49     1.110   .     S
C82    H48     1.110   .     S
C83    H50     1.115   .     S
C83    C84     1.520   .     S
C83    O73     1.411   .     S
C83    H51     1.114   .     S
C84    H52     1.110   .     S
C84    H54     1.111   .     S
C84    H53     1.110   .     S
C85    C86     1.522   .     S
C85    H56     1.116   .     S
C85    H55     1.113   .     S
C85    O74     1.412   .     S
C86    H59     1.110   .     S
C86    H58     1.111   .     S
C86    H60     1.110   .     S
C87    O75     1.413   .     S
C87    H62     1.116   .     S
C87    C88     1.521   .     S
C87    H61     1.113   .     S
C88    H63     1.111   .     S
C88    H64     1.111   .     S
C88    H65     1.110   .     S
C89    H67     1.113   .     S
C89    O76     1.413   .     S
C89    C91     1.521   .     S
C89    H66     1.116   .     S
C90    C118    1.418   .     S
C91    H71     1.110   .     S
C91    H69     1.110   .     S
C91    H70     1.111   .     S
C92    H72     1.113   .     S
C92    H73     1.116   .     S
C92    O77     1.414   .     S
C92    C93     1.518   .     S
C93    H74     1.110   .     S
C93    H76     1.110   .     S
C93    H75     1.110   .     S
C94    O79     1.419   .     S
C94    H77     1.110   .     S
C94    H78     1.110   .     S
C94    C95     1.529   .     S
C95    H80     1.109   .     S
C95    H82     1.110   .     S
C95    H81     1.109   .     S
C96    H83     1.115   .     S
C96    H84     1.112   .     S
C96    O80     1.413   .     S
C96    C97     1.521   .     S
C97    H85     1.111   .     S
C97    H87     1.110   .     S
C97    H86     1.110   .     S
C98    C99     1.521   .     S
C98    H88     1.115   .     S
C98    H89     1.114   .     S
C98    O81     1.411   .     S
C99    H92     1.110   .     S
C99    H93     1.110   .     S
C99    H91     1.111   .     S
C100   H95     1.115   .     S
C100   O82     1.412   .     S
C100   H94     1.114   .     S
C100   C102    1.521   .     S
C101   C106    1.196   .     T
C101   C117    1.418   .     S
C102   H96     1.110   .     S
C102   H97     1.110   .     S
C102   H98     1.110   .     S
C103   H100    1.114   .     S
C103   O83     1.412   .     S
C103   C104    1.521   .     S
C103   H99     1.115   .     S
C104   H103    1.111   .     S
C104   H102    1.111   .     S
C104   H104    1.110   .     S
C105   C139    1.396   .     A
C105   C167    1.397   .     A
C106   C115    1.418   .     S
C107   C114    1.418   .     S
C107   C108    1.196   1_556 S
C108   C113    1.418   .     S
C108   C107    1.196   1_554 S
C109   C112    1.418   .     S
C109   C110    1.196   1_556 S
C110   C111    1.418   .     S
C110   C109    1.196   1_554 S
C111   O45     1.277   .     A
C111   O84     1.277   .     A
C112   O2      1.277   .     A
C112   O56     1.277   .     A
C113   O3      1.276   .     S
C113   O67     1.277   .     S
C114   O4      1.276   .     S
C114   O78     1.277   .     S
C115   O9      1.277   .     A
C115   O5      1.277   1_545 S
C116   C164    1.397   .     A
C116   C140    1.397   .     A
C117   O6      1.277   .     A
C117   O10     1.278   1_545 S
C118   O7      1.277   1_455 A
C118   O11     1.276   .     S
C119   O8      1.277   .     A
C119   O13     1.276   1_455 S
C120   O14     1.276   .     A
C120   O47     1.277   .     A
C121   O15     1.277   .     A
C121   O48     1.277   .     A
C122   O16     1.276   .     A
C122   O44     1.278   .     A
C123   O17     1.275   .     A
C123   O46     1.274   .     A
C124   O42     1.279   .     A
C124   O18     1.280   .     A
C125   O43     1.280   .     A
C125   O19     1.279   .     A
C126   O40     1.278   .     A
C126   O20     1.275   .     A
C127   C165    1.398   .     A
C127   C141    1.398   .     A
C127   C182    1.467   .     S
C128   O21     1.277   .     A
C128   O41     1.278   .     A
C129   O22     1.280   .     A
C129   O38     1.276   .     A
C130   O39     1.279   .     A
C130   O24     1.279   .     A
C131   O25     1.274   .     A
C131   O36     1.276   .     A
C132   O26     1.275   .     A
C132   O37     1.274   .     A
C133   O33     1.281   .     A
C133   O27     1.278   .     A
C134   O28     1.278   .     A
C134   O35     1.278   .     A
C135   O31     1.277   .     A
C135   O29     1.279   .     A
C136   O32     1.277   .     A
C136   O30     1.281   .     A
C137   C173    1.399   .     A
C137   H1      1.083   .     S
C138   C142    1.398   .     A
C138   C170    1.398   .     A
C139   C174    1.398   .     A
C139   H105    1.084   .     S
C140   H116    1.084   .     S
C140   C175    1.399   .     A
C141   C176    1.396   .     A
C141   H127    1.084   .     S
C142   C177    1.397   .     A
C142   H138    1.083   .     S
C143   C178    1.398   .     A
C143   C149    1.399   .     A
C143   H149    1.083   .     S
C144   H160    1.082   .     S
C144   C160    1.402   .     A
C144   C179    1.402   .     A
C145   H171    1.083   .     S
C145   C180    1.398   .     A
C145   C171    1.401   .     A
C146   H182    1.083   .     S
C146   C181    1.399   .     A
C146   C182    1.399   .     A
C147   C183    1.397   .     A
C147   H2      1.084   .     S
C148   H13     1.082   .     S
C148   C184    1.407   .     A
C149   C172    1.399   .     A
C150   C185    1.402   .     A
C150   H24     1.083   .     S
C151   H35     1.083   .     S
C151   C186    1.395   .     A
C152   C187    1.399   .     A
C152   H46     1.083   .     S
C153   C188    1.412   .     A
C153   H57     1.081   .     S
C154   C189    1.397   .     A
C154   H68     1.083   .     S
C155   H79     1.084   .     S
C155   C190    1.397   .     A
C156   H90     1.083   .     S
C156   C191    1.398   .     A
C157   C182    1.398   .     A
C157   H101    1.084   .     S
C157   C192    1.398   .     A
C158   H106    1.083   .     S
C159   H107    1.083   .     S
C160   C168    1.401   .     A
C161   H108    1.083   .     S
C162   H109    1.083   .     S
C163   H110    1.083   .     S
C164   H111    1.084   .     S
C165   H112    1.084   .     S
C166   H113    1.083   .     S
C167   H114    1.083   .     S
C168   H115    1.083   .     S
C169   C171    1.402   .     A
C169   H117    1.083   .     S
C170   H118    1.083   .     S
C172   H119    1.083   .     S
C173   O49     1.385   .     S
C174   O50     1.384   .     S
C175   O51     1.383   .     S
C176   O52     1.382   .     S
C177   O53     1.384   .     S
C178   O54     1.384   .     S
C179   O55     1.389   .     S
C180   O57     1.386   .     S
C181   O58     1.385   .     S
C183   O59     1.382   .     S
C184   O60     1.392   .     S
C185   O61     1.390   .     S
C186   O62     1.383   .     S
C187   O63     1.386   .     S
C188   O64     1.397   .     S
C189   O65     1.384   .     S
C190   O66     1.385   .     S
C191   O68     1.388   .     S
C192   O69     1.385   .     S
H9     C66     1.109   1_554 S
H14    C69     1.111   1_545 S
H16    C69     1.110   1_545 S
H151   C47     1.111   1_655 S
O1     Zn12    1.938   1_455 S
O1     Zn1     1.937   .     S
O1     Zn4     1.939   .     S
O1     Zn8     1.939   .     S
O2     Zn3     1.908   .     S
O3     Zn6     1.908   .     S
O4     Zn5     1.908   .     S
O5     Zn15    1.908   .     S
O5     C115    1.277   1_565 S
O6     Zn14    1.908   .     S
O7     C118    1.277   1_655 A
O7     Zn9     1.909   .     S
O8     Zn1     1.909   .     S
O9     Zn11    1.908   .     S
O10    Zn10    1.908   .     S
O10    C117    1.278   1_565 S
O11    Zn13    1.908   .     S
O12    Zn7     1.939   .     S
O12    Zn13    1.938   .     S
O12    Zn3     1.939   .     S
O12    Zn9     1.937   1_455 S
O13    Zn12    1.908   .     S
O13    C119    1.276   1_655 S
O14    Zn4     1.937   .     S
O15    Zn3     1.937   1_655 S
O16    Zn6     1.938   1_565 S
O17    Zn5     1.938   .     S
O18    Zn8     1.937   1_655 S
O19    Zn7     1.937   .     S
O20    Zn2     1.938   .     S
O21    Zn16    1.938   1_565 S
O22    Zn7     1.937   1_655 S
O23    Zn14    1.939   .     S
O23    Zn2     1.937   .     S
O23    Zn6     1.938   .     S
O23    Zn10    1.939   1_545 S
O24    Zn8     1.937   .     S
O25    Zn5     1.938   1_565 S
O26    Zn6     1.938   .     S
O27    Zn3     1.938   .     S
O28    Zn4     1.938   1_655 S
O29    Zn16    1.938   .     S
O30    Zn2     1.938   1_565 S
O31    Zn11    1.937   .     S
O32    Zn10    1.937   .     S
O33    Zn13    1.938   .     S
O34    Zn11    1.939   .     S
O34    Zn5     1.938   .     S
O34    Zn15    1.939   1_545 S
O34    Zn16    1.937   .     S
O35    Zn12    1.938   .     S
O36    Zn15    1.937   .     S
O37    Zn14    1.937   .     S
O38    Zn9     1.938   .     S
O39    Zn1     1.938   .     S
O40    Zn14    1.937   .     S
O41    Zn15    1.937   .     S
O42    Zn12    1.938   .     S
O43    Zn13    1.938   .     S
O44    Zn10    1.938   .     S
O45    Zn8     1.908   .     S
O46    Zn11    1.938   .     S
O47    Zn1     1.938   .     S
O48    Zn9     1.938   .     S
O56    Zn7     1.908   .     S
O67    Zn2     1.909   .     S
O78    Zn16    1.909   .     S
O84    Zn4     1.908   .     S
Zn2    O30     1.938   1_545 S
Zn3    O15     1.937   1_455 S
Zn4    O28     1.938   1_455 S
Zn5    O25     1.938   1_545 S
Zn6    O16     1.938   1_545 S
Zn7    O22     1.937   1_455 S
Zn8    O18     1.937   1_455 S
Zn9    O12     1.937   1_655 S
Zn10   O23     1.939   1_565 S
Zn12   O1      1.938   1_655 S
Zn15   O34     1.939   1_565 S
Zn16   O21     1.938   1_545 S
