data_str_m3_o1_o2_pcu_sym.46
_audit_creation_date              2020-01-03
_audit_creation_method            'Materials Studio'
_symmetry_space_group_name_H-M    'P1'
_symmetry_Int_Tables_number       1
_symmetry_cell_setting            triclinic
loop_
_symmetry_equiv_pos_as_xyz
  x,y,z
_cell_length_a                    32.3470
_cell_length_b                    29.5896
_cell_length_c                    29.9204
_cell_angle_alpha                 89.9934
_cell_angle_beta                  91.5769
_cell_angle_gamma                 89.9990
loop_
_atom_site_label
_atom_site_type_symbol
_atom_site_fract_x
_atom_site_fract_y
_atom_site_fract_z
_atom_site_U_iso_or_equiv
_atom_site_adp_type
_atom_site_occupancy
C1     C     0.08679   0.16666   0.25394   0.00000  Uiso   1.00
C2     C     0.31255   0.20806   0.24435   0.00000  Uiso   1.00
C3     C     0.31253   0.12516   0.24440   0.00000  Uiso   1.00
C4     C     0.02079   0.20805   0.25576   0.00000  Uiso   1.00
C5     C     0.14336   0.19794   0.04597   0.00000  Uiso   1.00
C6     C     0.14274   0.13368   0.45195   0.00000  Uiso   1.00
C7     C     0.19141   0.19699   0.45390   0.00000  Uiso   1.00
C8     C     0.19006   0.13289   0.04805   0.00000  Uiso   1.00
C9     C     0.14389   0.19863   0.09215   0.00000  Uiso   1.00
C10    C     0.14305   0.13410   0.40576   0.00000  Uiso   1.00
C11    C     0.19072   0.19772   0.40772   0.00000  Uiso   1.00
C12    C     0.24655   0.16666   0.24608   0.00000  Uiso   1.00
C13    C     0.18960   0.13331   0.09424   0.00000  Uiso   1.00
C14    C     0.16682   0.16632   0.11608   0.00000  Uiso   1.00
C15    C     0.16670   0.16631   0.38388   0.00000  Uiso   1.00
C16    C     0.16674   0.16519   0.02401   0.00000  Uiso   1.00
C17    C     0.16710   0.16512   0.47593   0.00000  Uiso   1.00
C18    C     0.29099   0.16662   0.24261   0.00000  Uiso   1.00
C19    C     0.04235   0.16662   0.25746   0.00000  Uiso   1.00
C20    C     0.16663   0.16663   0.16396   0.00000  Uiso   1.00
C21    C     0.16673   0.16662   0.33602   0.00000  Uiso   1.00
C22    C     0.19185   0.02398   0.27918   0.00000  Uiso   1.00
C23    C     0.14132   0.30940   0.22100   0.00000  Uiso   1.00
C24    C     0.14148   0.02399   0.22083   0.00000  Uiso   1.00
C25    C     0.19200   0.30939   0.27901   0.00000  Uiso   1.00
C26    C     0.02081   0.12516   0.25566   0.00000  Uiso   1.00
Cl27   Cl    0.22435   0.05314   0.31748   0.00000  Uiso   1.00
Cl28   Cl    0.28996   0.26051   0.22792   0.00000  Uiso   1.00
Cl29   Cl    0.28983   0.07265   0.22829   0.00000  Uiso   1.00
Cl30   Cl    0.04339   0.26048   0.27225   0.00000  Uiso   1.00
Cl31   Cl    0.10798   0.28038   0.18357   0.00000  Uiso   1.00
Cl32   Cl    0.10897   0.05315   0.18253   0.00000  Uiso   1.00
Cl33   Cl    0.22528   0.28036   0.31651   0.00000  Uiso   1.00
Cl34   Cl    0.11289   0.23813   0.01660   0.00000  Uiso   1.00
Cl35   Cl    0.11120   0.09401   0.47877   0.00000  Uiso   1.00
Cl36   Cl    0.22318   0.23602   0.48319   0.00000  Uiso   1.00
Cl37   Cl    0.22044   0.09207   0.02132   0.00000  Uiso   1.00
Cl38   Cl    0.04352   0.07264   0.27175   0.00000  Uiso   1.00
H39    H     0.12579   0.22366   0.10925   0.00000  Uiso   1.00
H40    H     0.12433   0.10997   0.38694   0.00000  Uiso   1.00
H41    H     0.20952   0.22205   0.39053   0.00000  Uiso   1.00
H42    H     0.20752   0.10849   0.11309   0.00000  Uiso   1.00
N43    N     0.16667   0.28573   0.25000   0.00000  Uiso   1.00
N44    N     0.16667   0.04760   0.25000   0.00000  Uiso   1.00
O45    O     0.10559   0.20487   0.24999   0.00000  Uiso   1.00
O46    O     0.22774   0.12846   0.25001   0.00000  Uiso   1.00
O47    O     0.22774   0.20487   0.25000   0.00000  Uiso   1.00
O48    O     0.10559   0.12846   0.24999   0.00000  Uiso   1.00
O49    O     0.16666   0.20489   0.18453   0.00000  Uiso   1.00
O50    O     0.16667   0.12845   0.31547   0.00000  Uiso   1.00
O51    O     0.16667   0.20489   0.31547   0.00000  Uiso   1.00
O52    O     0.16666   0.12845   0.18453   0.00000  Uiso   1.00
Zn53   Zn    0.16667   0.21771   0.25000   0.00000  Uiso   1.00
Zn54   Zn    0.16667   0.11563   0.25000   0.00000  Uiso   1.00
C55    C     0.42012   0.16666   0.25394   0.00000  Uiso   1.00
C56    C     0.64588   0.20806   0.24435   0.00000  Uiso   1.00
C57    C     0.64586   0.12516   0.24440   0.00000  Uiso   1.00
C58    C     0.35413   0.20805   0.25576   0.00000  Uiso   1.00
C59    C     0.47669   0.19794   0.04597   0.00000  Uiso   1.00
C60    C     0.47607   0.13368   0.45195   0.00000  Uiso   1.00
C61    C     0.52474   0.19699   0.45390   0.00000  Uiso   1.00
C62    C     0.52339   0.13289   0.04805   0.00000  Uiso   1.00
C63    C     0.47723   0.19863   0.09215   0.00000  Uiso   1.00
C64    C     0.47638   0.13410   0.40576   0.00000  Uiso   1.00
C65    C     0.52405   0.19772   0.40772   0.00000  Uiso   1.00
C66    C     0.57989   0.16666   0.24608   0.00000  Uiso   1.00
C67    C     0.52293   0.13331   0.09424   0.00000  Uiso   1.00
C68    C     0.50015   0.16632   0.11608   0.00000  Uiso   1.00
C69    C     0.50004   0.16631   0.38388   0.00000  Uiso   1.00
C70    C     0.50007   0.16519   0.02401   0.00000  Uiso   1.00
C71    C     0.50043   0.16512   0.47593   0.00000  Uiso   1.00
C72    C     0.62433   0.16662   0.24261   0.00000  Uiso   1.00
C73    C     0.37568   0.16662   0.25746   0.00000  Uiso   1.00
C74    C     0.49997   0.16663   0.16396   0.00000  Uiso   1.00
C75    C     0.50006   0.16662   0.33602   0.00000  Uiso   1.00
C76    C     0.52518   0.02398   0.27918   0.00000  Uiso   1.00
C77    C     0.47465   0.30940   0.22100   0.00000  Uiso   1.00
C78    C     0.47481   0.02399   0.22083   0.00000  Uiso   1.00
C79    C     0.52534   0.30939   0.27901   0.00000  Uiso   1.00
C80    C     0.35415   0.12516   0.25566   0.00000  Uiso   1.00
Cl81   Cl    0.55769   0.05314   0.31748   0.00000  Uiso   1.00
Cl82   Cl    0.62329   0.26051   0.22792   0.00000  Uiso   1.00
Cl83   Cl    0.62316   0.07265   0.22829   0.00000  Uiso   1.00
Cl84   Cl    0.37673   0.26048   0.27225   0.00000  Uiso   1.00
Cl85   Cl    0.44131   0.28038   0.18357   0.00000  Uiso   1.00
Cl86   Cl    0.44230   0.05315   0.18253   0.00000  Uiso   1.00
Cl87   Cl    0.55862   0.28036   0.31651   0.00000  Uiso   1.00
Cl88   Cl    0.44623   0.23813   0.01660   0.00000  Uiso   1.00
Cl89   Cl    0.44453   0.09401   0.47877   0.00000  Uiso   1.00
Cl90   Cl    0.55652   0.23602   0.48319   0.00000  Uiso   1.00
Cl91   Cl    0.55377   0.09207   0.02132   0.00000  Uiso   1.00
Cl92   Cl    0.37685   0.07264   0.27175   0.00000  Uiso   1.00
H93    H     0.45912   0.22366   0.10925   0.00000  Uiso   1.00
H94    H     0.45767   0.10997   0.38694   0.00000  Uiso   1.00
H95    H     0.54286   0.22205   0.39053   0.00000  Uiso   1.00
H96    H     0.54085   0.10849   0.11309   0.00000  Uiso   1.00
N97    N     0.50000   0.28573   0.25000   0.00000  Uiso   1.00
N98    N     0.50000   0.04760   0.25000   0.00000  Uiso   1.00
O99    O     0.43892   0.20487   0.24999   0.00000  Uiso   1.00
O100   O     0.56108   0.12846   0.25001   0.00000  Uiso   1.00
O101   O     0.56108   0.20487   0.25000   0.00000  Uiso   1.00
O102   O     0.43892   0.12846   0.24999   0.00000  Uiso   1.00
O103   O     0.50000   0.20489   0.18453   0.00000  Uiso   1.00
O104   O     0.50000   0.12845   0.31547   0.00000  Uiso   1.00
O105   O     0.50000   0.20489   0.31547   0.00000  Uiso   1.00
O106   O     0.50000   0.12845   0.18453   0.00000  Uiso   1.00
Zn107  Zn    0.50000   0.21771   0.25000   0.00000  Uiso   1.00
Zn108  Zn    0.50000   0.11563   0.25000   0.00000  Uiso   1.00
C109   C     0.75345   0.16666   0.25394   0.00000  Uiso   1.00
C110   C     0.97922   0.20806   0.24435   0.00000  Uiso   1.00
C111   C     0.97920   0.12516   0.24440   0.00000  Uiso   1.00
C112   C     0.68746   0.20805   0.25576   0.00000  Uiso   1.00
C113   C     0.81002   0.19794   0.04597   0.00000  Uiso   1.00
C114   C     0.80940   0.13368   0.45195   0.00000  Uiso   1.00
C115   C     0.85808   0.19699   0.45390   0.00000  Uiso   1.00
C116   C     0.85673   0.13289   0.04805   0.00000  Uiso   1.00
C117   C     0.81056   0.19863   0.09215   0.00000  Uiso   1.00
C118   C     0.80971   0.13410   0.40576   0.00000  Uiso   1.00
C119   C     0.85738   0.19772   0.40772   0.00000  Uiso   1.00
C120   C     0.91322   0.16666   0.24608   0.00000  Uiso   1.00
C121   C     0.85627   0.13331   0.09424   0.00000  Uiso   1.00
C122   C     0.83349   0.16632   0.11608   0.00000  Uiso   1.00
C123   C     0.83337   0.16631   0.38388   0.00000  Uiso   1.00
C124   C     0.83340   0.16519   0.02401   0.00000  Uiso   1.00
C125   C     0.83377   0.16512   0.47593   0.00000  Uiso   1.00
C126   C     0.95766   0.16662   0.24261   0.00000  Uiso   1.00
C127   C     0.70902   0.16662   0.25746   0.00000  Uiso   1.00
C128   C     0.83330   0.16663   0.16396   0.00000  Uiso   1.00
C129   C     0.83340   0.16662   0.33602   0.00000  Uiso   1.00
C130   C     0.85851   0.02398   0.27918   0.00000  Uiso   1.00
C131   C     0.80798   0.30940   0.22100   0.00000  Uiso   1.00
C132   C     0.80815   0.02399   0.22083   0.00000  Uiso   1.00
C133   C     0.85867   0.30939   0.27901   0.00000  Uiso   1.00
C134   C     0.68748   0.12516   0.25566   0.00000  Uiso   1.00
Cl135  Cl    0.89102   0.05314   0.31748   0.00000  Uiso   1.00
Cl136  Cl    0.95663   0.26051   0.22792   0.00000  Uiso   1.00
Cl137  Cl    0.95649   0.07265   0.22829   0.00000  Uiso   1.00
Cl138  Cl    0.71006   0.26048   0.27225   0.00000  Uiso   1.00
Cl139  Cl    0.77464   0.28038   0.18357   0.00000  Uiso   1.00
Cl140  Cl    0.77564   0.05315   0.18253   0.00000  Uiso   1.00
Cl141  Cl    0.89195   0.28036   0.31651   0.00000  Uiso   1.00
Cl142  Cl    0.77956   0.23813   0.01660   0.00000  Uiso   1.00
Cl143  Cl    0.77786   0.09401   0.47877   0.00000  Uiso   1.00
Cl144  Cl    0.88985   0.23602   0.48319   0.00000  Uiso   1.00
Cl145  Cl    0.88711   0.09207   0.02132   0.00000  Uiso   1.00
Cl146  Cl    0.71019   0.07264   0.27175   0.00000  Uiso   1.00
H147   H     0.79246   0.22366   0.10925   0.00000  Uiso   1.00
H148   H     0.79100   0.10997   0.38694   0.00000  Uiso   1.00
H149   H     0.87619   0.22205   0.39053   0.00000  Uiso   1.00
H150   H     0.87419   0.10849   0.11309   0.00000  Uiso   1.00
N151   N     0.83333   0.28573   0.25000   0.00000  Uiso   1.00
N152   N     0.83333   0.04760   0.25000   0.00000  Uiso   1.00
O153   O     0.77226   0.20487   0.24999   0.00000  Uiso   1.00
O154   O     0.89441   0.12846   0.25001   0.00000  Uiso   1.00
O155   O     0.89441   0.20487   0.25000   0.00000  Uiso   1.00
O156   O     0.77226   0.12846   0.24999   0.00000  Uiso   1.00
O157   O     0.83333   0.20489   0.18453   0.00000  Uiso   1.00
O158   O     0.83334   0.12845   0.31547   0.00000  Uiso   1.00
O159   O     0.83334   0.20489   0.31547   0.00000  Uiso   1.00
O160   O     0.83333   0.12845   0.18453   0.00000  Uiso   1.00
Zn161  Zn    0.83333   0.21771   0.25000   0.00000  Uiso   1.00
Zn162  Zn    0.83333   0.11563   0.25000   0.00000  Uiso   1.00
C163   C     0.08679   0.49999   0.25394   0.00000  Uiso   1.00
C164   C     0.31255   0.54139   0.24435   0.00000  Uiso   1.00
C165   C     0.31253   0.45850   0.24440   0.00000  Uiso   1.00
C166   C     0.02079   0.54139   0.25576   0.00000  Uiso   1.00
C167   C     0.14336   0.53128   0.04597   0.00000  Uiso   1.00
C168   C     0.14274   0.46702   0.45195   0.00000  Uiso   1.00
C169   C     0.19141   0.53033   0.45390   0.00000  Uiso   1.00
C170   C     0.19006   0.46622   0.04805   0.00000  Uiso   1.00
C171   C     0.14389   0.53196   0.09215   0.00000  Uiso   1.00
C172   C     0.14305   0.46744   0.40576   0.00000  Uiso   1.00
C173   C     0.19072   0.53105   0.40772   0.00000  Uiso   1.00
C174   C     0.24655   0.49999   0.24608   0.00000  Uiso   1.00
C175   C     0.18960   0.46664   0.09424   0.00000  Uiso   1.00
C176   C     0.16682   0.49966   0.11608   0.00000  Uiso   1.00
C177   C     0.16670   0.49964   0.38388   0.00000  Uiso   1.00
C178   C     0.16674   0.49852   0.02401   0.00000  Uiso   1.00
C179   C     0.16710   0.49846   0.47593   0.00000  Uiso   1.00
C180   C     0.29099   0.49996   0.24261   0.00000  Uiso   1.00
C181   C     0.04235   0.49995   0.25746   0.00000  Uiso   1.00
C182   C     0.16663   0.49996   0.16396   0.00000  Uiso   1.00
C183   C     0.16673   0.49996   0.33602   0.00000  Uiso   1.00
C184   C     0.19185   0.35732   0.27918   0.00000  Uiso   1.00
C185   C     0.14132   0.64273   0.22100   0.00000  Uiso   1.00
C186   C     0.14148   0.35732   0.22083   0.00000  Uiso   1.00
C187   C     0.19200   0.64273   0.27901   0.00000  Uiso   1.00
C188   C     0.02081   0.45849   0.25566   0.00000  Uiso   1.00
Cl189  Cl    0.22435   0.38647   0.31748   0.00000  Uiso   1.00
Cl190  Cl    0.28996   0.59385   0.22792   0.00000  Uiso   1.00
Cl191  Cl    0.28983   0.40598   0.22829   0.00000  Uiso   1.00
Cl192  Cl    0.04339   0.59382   0.27225   0.00000  Uiso   1.00
Cl193  Cl    0.10798   0.61371   0.18357   0.00000  Uiso   1.00
Cl194  Cl    0.10897   0.38649   0.18253   0.00000  Uiso   1.00
Cl195  Cl    0.22528   0.61370   0.31651   0.00000  Uiso   1.00
Cl196  Cl    0.11289   0.57146   0.01660   0.00000  Uiso   1.00
Cl197  Cl    0.11120   0.42734   0.47877   0.00000  Uiso   1.00
Cl198  Cl    0.22318   0.56935   0.48319   0.00000  Uiso   1.00
Cl199  Cl    0.22044   0.42540   0.02132   0.00000  Uiso   1.00
Cl200  Cl    0.04352   0.40598   0.27175   0.00000  Uiso   1.00
H201   H     0.12579   0.55699   0.10925   0.00000  Uiso   1.00
H202   H     0.12433   0.44330   0.38694   0.00000  Uiso   1.00
H203   H     0.20952   0.55538   0.39053   0.00000  Uiso   1.00
H204   H     0.20752   0.44182   0.11309   0.00000  Uiso   1.00
N205   N     0.16667   0.61907   0.25000   0.00000  Uiso   1.00
N206   N     0.16667   0.38093   0.25000   0.00000  Uiso   1.00
O207   O     0.10559   0.53821   0.24999   0.00000  Uiso   1.00
O208   O     0.22774   0.46179   0.25001   0.00000  Uiso   1.00
O209   O     0.22774   0.53821   0.25000   0.00000  Uiso   1.00
O210   O     0.10559   0.46179   0.24999   0.00000  Uiso   1.00
O211   O     0.16666   0.53822   0.18453   0.00000  Uiso   1.00
O212   O     0.16667   0.46178   0.31547   0.00000  Uiso   1.00
O213   O     0.16667   0.53822   0.31547   0.00000  Uiso   1.00
O214   O     0.16666   0.46178   0.18453   0.00000  Uiso   1.00
Zn215  Zn    0.16667   0.55104   0.25000   0.00000  Uiso   1.00
Zn216  Zn    0.16667   0.44896   0.25000   0.00000  Uiso   1.00
C217   C     0.42012   0.49999   0.25394   0.00000  Uiso   1.00
C218   C     0.64588   0.54139   0.24435   0.00000  Uiso   1.00
C219   C     0.64586   0.45850   0.24440   0.00000  Uiso   1.00
C220   C     0.35413   0.54139   0.25576   0.00000  Uiso   1.00
C221   C     0.47669   0.53128   0.04597   0.00000  Uiso   1.00
C222   C     0.47607   0.46702   0.45195   0.00000  Uiso   1.00
C223   C     0.52474   0.53033   0.45390   0.00000  Uiso   1.00
C224   C     0.52339   0.46622   0.04805   0.00000  Uiso   1.00
C225   C     0.47723   0.53196   0.09215   0.00000  Uiso   1.00
C226   C     0.47638   0.46744   0.40576   0.00000  Uiso   1.00
C227   C     0.52405   0.53105   0.40772   0.00000  Uiso   1.00
C228   C     0.57989   0.49999   0.24608   0.00000  Uiso   1.00
C229   C     0.52293   0.46664   0.09424   0.00000  Uiso   1.00
C230   C     0.50015   0.49966   0.11608   0.00000  Uiso   1.00
C231   C     0.50004   0.49964   0.38388   0.00000  Uiso   1.00
C232   C     0.50007   0.49852   0.02401   0.00000  Uiso   1.00
C233   C     0.50043   0.49846   0.47593   0.00000  Uiso   1.00
C234   C     0.62433   0.49996   0.24261   0.00000  Uiso   1.00
C235   C     0.37568   0.49995   0.25746   0.00000  Uiso   1.00
C236   C     0.49997   0.49996   0.16396   0.00000  Uiso   1.00
C237   C     0.50006   0.49996   0.33602   0.00000  Uiso   1.00
C238   C     0.52518   0.35732   0.27918   0.00000  Uiso   1.00
C239   C     0.47465   0.64273   0.22100   0.00000  Uiso   1.00
C240   C     0.47481   0.35732   0.22083   0.00000  Uiso   1.00
C241   C     0.52534   0.64273   0.27901   0.00000  Uiso   1.00
C242   C     0.35415   0.45849   0.25566   0.00000  Uiso   1.00
Cl243  Cl    0.55769   0.38647   0.31748   0.00000  Uiso   1.00
Cl244  Cl    0.62329   0.59385   0.22792   0.00000  Uiso   1.00
Cl245  Cl    0.62316   0.40598   0.22829   0.00000  Uiso   1.00
Cl246  Cl    0.37673   0.59382   0.27225   0.00000  Uiso   1.00
Cl247  Cl    0.44131   0.61371   0.18357   0.00000  Uiso   1.00
Cl248  Cl    0.44230   0.38649   0.18253   0.00000  Uiso   1.00
Cl249  Cl    0.55862   0.61370   0.31651   0.00000  Uiso   1.00
Cl250  Cl    0.44623   0.57146   0.01660   0.00000  Uiso   1.00
Cl251  Cl    0.44453   0.42734   0.47877   0.00000  Uiso   1.00
Cl252  Cl    0.55652   0.56935   0.48319   0.00000  Uiso   1.00
Cl253  Cl    0.55377   0.42540   0.02132   0.00000  Uiso   1.00
Cl254  Cl    0.37685   0.40598   0.27175   0.00000  Uiso   1.00
H255   H     0.45912   0.55699   0.10925   0.00000  Uiso   1.00
H256   H     0.45767   0.44330   0.38694   0.00000  Uiso   1.00
H257   H     0.54286   0.55538   0.39053   0.00000  Uiso   1.00
H258   H     0.54085   0.44182   0.11309   0.00000  Uiso   1.00
N259   N     0.50000   0.61907   0.25000   0.00000  Uiso   1.00
N260   N     0.50000   0.38093   0.25000   0.00000  Uiso   1.00
O261   O     0.43892   0.53821   0.24999   0.00000  Uiso   1.00
O262   O     0.56108   0.46179   0.25001   0.00000  Uiso   1.00
O263   O     0.56108   0.53821   0.25000   0.00000  Uiso   1.00
O264   O     0.43892   0.46179   0.24999   0.00000  Uiso   1.00
O265   O     0.50000   0.53822   0.18453   0.00000  Uiso   1.00
O266   O     0.50000   0.46178   0.31547   0.00000  Uiso   1.00
O267   O     0.50000   0.53822   0.31547   0.00000  Uiso   1.00
O268   O     0.50000   0.46178   0.18453   0.00000  Uiso   1.00
Zn269  Zn    0.50000   0.55104   0.25000   0.00000  Uiso   1.00
Zn270  Zn    0.50000   0.44896   0.25000   0.00000  Uiso   1.00
C271   C     0.75345   0.49999   0.25394   0.00000  Uiso   1.00
C272   C     0.97922   0.54139   0.24435   0.00000  Uiso   1.00
C273   C     0.97920   0.45850   0.24440   0.00000  Uiso   1.00
C274   C     0.68746   0.54139   0.25576   0.00000  Uiso   1.00
C275   C     0.81002   0.53128   0.04597   0.00000  Uiso   1.00
C276   C     0.80940   0.46702   0.45195   0.00000  Uiso   1.00
C277   C     0.85808   0.53033   0.45390   0.00000  Uiso   1.00
C278   C     0.85673   0.46622   0.04805   0.00000  Uiso   1.00
C279   C     0.81056   0.53196   0.09215   0.00000  Uiso   1.00
C280   C     0.80971   0.46744   0.40576   0.00000  Uiso   1.00
C281   C     0.85738   0.53105   0.40772   0.00000  Uiso   1.00
C282   C     0.91322   0.49999   0.24608   0.00000  Uiso   1.00
C283   C     0.85627   0.46664   0.09424   0.00000  Uiso   1.00
C284   C     0.83349   0.49966   0.11608   0.00000  Uiso   1.00
C285   C     0.83337   0.49964   0.38388   0.00000  Uiso   1.00
C286   C     0.83340   0.49852   0.02401   0.00000  Uiso   1.00
C287   C     0.83377   0.49846   0.47593   0.00000  Uiso   1.00
C288   C     0.95766   0.49996   0.24261   0.00000  Uiso   1.00
C289   C     0.70902   0.49995   0.25746   0.00000  Uiso   1.00
C290   C     0.83330   0.49996   0.16396   0.00000  Uiso   1.00
C291   C     0.83340   0.49996   0.33602   0.00000  Uiso   1.00
C292   C     0.85851   0.35732   0.27918   0.00000  Uiso   1.00
C293   C     0.80798   0.64273   0.22100   0.00000  Uiso   1.00
C294   C     0.80815   0.35732   0.22083   0.00000  Uiso   1.00
C295   C     0.85867   0.64273   0.27901   0.00000  Uiso   1.00
C296   C     0.68748   0.45849   0.25566   0.00000  Uiso   1.00
Cl297  Cl    0.89102   0.38647   0.31748   0.00000  Uiso   1.00
Cl298  Cl    0.95663   0.59385   0.22792   0.00000  Uiso   1.00
Cl299  Cl    0.95649   0.40598   0.22829   0.00000  Uiso   1.00
Cl300  Cl    0.71006   0.59382   0.27225   0.00000  Uiso   1.00
Cl301  Cl    0.77464   0.61371   0.18357   0.00000  Uiso   1.00
Cl302  Cl    0.77564   0.38649   0.18253   0.00000  Uiso   1.00
Cl303  Cl    0.89195   0.61370   0.31651   0.00000  Uiso   1.00
Cl304  Cl    0.77956   0.57146   0.01660   0.00000  Uiso   1.00
Cl305  Cl    0.77786   0.42734   0.47877   0.00000  Uiso   1.00
Cl306  Cl    0.88985   0.56935   0.48319   0.00000  Uiso   1.00
Cl307  Cl    0.88711   0.42540   0.02132   0.00000  Uiso   1.00
Cl308  Cl    0.71019   0.40598   0.27175   0.00000  Uiso   1.00
H309   H     0.79246   0.55699   0.10925   0.00000  Uiso   1.00
H310   H     0.79100   0.44330   0.38694   0.00000  Uiso   1.00
H311   H     0.87619   0.55538   0.39053   0.00000  Uiso   1.00
H312   H     0.87419   0.44182   0.11309   0.00000  Uiso   1.00
N313   N     0.83333   0.61907   0.25000   0.00000  Uiso   1.00
N314   N     0.83333   0.38093   0.25000   0.00000  Uiso   1.00
O315   O     0.77226   0.53821   0.24999   0.00000  Uiso   1.00
O316   O     0.89441   0.46179   0.25001   0.00000  Uiso   1.00
O317   O     0.89441   0.53821   0.25000   0.00000  Uiso   1.00
O318   O     0.77226   0.46179   0.24999   0.00000  Uiso   1.00
O319   O     0.83333   0.53822   0.18453   0.00000  Uiso   1.00
O320   O     0.83334   0.46178   0.31547   0.00000  Uiso   1.00
O321   O     0.83334   0.53822   0.31547   0.00000  Uiso   1.00
O322   O     0.83333   0.46178   0.18453   0.00000  Uiso   1.00
Zn323  Zn    0.83333   0.55104   0.25000   0.00000  Uiso   1.00
Zn324  Zn    0.83333   0.44896   0.25000   0.00000  Uiso   1.00
C325   C     0.08679   0.83332   0.25394   0.00000  Uiso   1.00
C326   C     0.31255   0.87473   0.24435   0.00000  Uiso   1.00
C327   C     0.31253   0.79183   0.24440   0.00000  Uiso   1.00
C328   C     0.02079   0.87472   0.25576   0.00000  Uiso   1.00
C329   C     0.14336   0.86461   0.04597   0.00000  Uiso   1.00
C330   C     0.14274   0.80035   0.45195   0.00000  Uiso   1.00
C331   C     0.19141   0.86366   0.45390   0.00000  Uiso   1.00
C332   C     0.19006   0.79955   0.04805   0.00000  Uiso   1.00
C333   C     0.14389   0.86529   0.09215   0.00000  Uiso   1.00
C334   C     0.14305   0.80077   0.40576   0.00000  Uiso   1.00
C335   C     0.19072   0.86438   0.40772   0.00000  Uiso   1.00
C336   C     0.24655   0.83333   0.24608   0.00000  Uiso   1.00
C337   C     0.18960   0.79997   0.09424   0.00000  Uiso   1.00
C338   C     0.16682   0.83299   0.11608   0.00000  Uiso   1.00
C339   C     0.16670   0.83297   0.38388   0.00000  Uiso   1.00
C340   C     0.16674   0.83186   0.02401   0.00000  Uiso   1.00
C341   C     0.16710   0.83179   0.47593   0.00000  Uiso   1.00
C342   C     0.29099   0.83329   0.24261   0.00000  Uiso   1.00
C343   C     0.04235   0.83328   0.25746   0.00000  Uiso   1.00
C344   C     0.16663   0.83329   0.16396   0.00000  Uiso   1.00
C345   C     0.16673   0.83329   0.33602   0.00000  Uiso   1.00
C346   C     0.19185   0.69065   0.27918   0.00000  Uiso   1.00
C347   C     0.14132   0.97607   0.22100   0.00000  Uiso   1.00
C348   C     0.14148   0.69066   0.22083   0.00000  Uiso   1.00
C349   C     0.19200   0.97606   0.27901   0.00000  Uiso   1.00
C350   C     0.02081   0.79182   0.25566   0.00000  Uiso   1.00
Cl351  Cl    0.22435   0.71980   0.31748   0.00000  Uiso   1.00
Cl352  Cl    0.28996   0.92718   0.22792   0.00000  Uiso   1.00
Cl353  Cl    0.28983   0.73932   0.22829   0.00000  Uiso   1.00
Cl354  Cl    0.04339   0.92715   0.27225   0.00000  Uiso   1.00
Cl355  Cl    0.10798   0.94705   0.18357   0.00000  Uiso   1.00
Cl356  Cl    0.10897   0.71982   0.18253   0.00000  Uiso   1.00
Cl357  Cl    0.22528   0.94703   0.31651   0.00000  Uiso   1.00
Cl358  Cl    0.11289   0.90479   0.01660   0.00000  Uiso   1.00
Cl359  Cl    0.11120   0.76068   0.47877   0.00000  Uiso   1.00
Cl360  Cl    0.22318   0.90269   0.48319   0.00000  Uiso   1.00
Cl361  Cl    0.22044   0.75874   0.02132   0.00000  Uiso   1.00
Cl362  Cl    0.04352   0.73931   0.27175   0.00000  Uiso   1.00
H363   H     0.12579   0.89032   0.10925   0.00000  Uiso   1.00
H364   H     0.12433   0.77663   0.38694   0.00000  Uiso   1.00
H365   H     0.20952   0.88871   0.39053   0.00000  Uiso   1.00
H366   H     0.20752   0.77515   0.11309   0.00000  Uiso   1.00
N367   N     0.16667   0.95240   0.25000   0.00000  Uiso   1.00
N368   N     0.16667   0.71427   0.25000   0.00000  Uiso   1.00
O369   O     0.10559   0.87154   0.24999   0.00000  Uiso   1.00
O370   O     0.22774   0.79513   0.25001   0.00000  Uiso   1.00
O371   O     0.22774   0.87154   0.25000   0.00000  Uiso   1.00
O372   O     0.10559   0.79513   0.24999   0.00000  Uiso   1.00
O373   O     0.16666   0.87155   0.18453   0.00000  Uiso   1.00
O374   O     0.16667   0.79511   0.31547   0.00000  Uiso   1.00
O375   O     0.16667   0.87155   0.31547   0.00000  Uiso   1.00
O376   O     0.16666   0.79511   0.18453   0.00000  Uiso   1.00
Zn377  Zn    0.16667   0.88437   0.25000   0.00000  Uiso   1.00
Zn378  Zn    0.16667   0.78229   0.25000   0.00000  Uiso   1.00
C379   C     0.42012   0.83332   0.25394   0.00000  Uiso   1.00
C380   C     0.64588   0.87473   0.24435   0.00000  Uiso   1.00
C381   C     0.64586   0.79183   0.24440   0.00000  Uiso   1.00
C382   C     0.35413   0.87472   0.25576   0.00000  Uiso   1.00
C383   C     0.47669   0.86461   0.04597   0.00000  Uiso   1.00
C384   C     0.47607   0.80035   0.45195   0.00000  Uiso   1.00
C385   C     0.52474   0.86366   0.45390   0.00000  Uiso   1.00
C386   C     0.52339   0.79955   0.04805   0.00000  Uiso   1.00
C387   C     0.47723   0.86529   0.09215   0.00000  Uiso   1.00
C388   C     0.47638   0.80077   0.40576   0.00000  Uiso   1.00
C389   C     0.52405   0.86438   0.40772   0.00000  Uiso   1.00
C390   C     0.57989   0.83333   0.24608   0.00000  Uiso   1.00
C391   C     0.52293   0.79997   0.09424   0.00000  Uiso   1.00
C392   C     0.50015   0.83299   0.11608   0.00000  Uiso   1.00
C393   C     0.50004   0.83297   0.38388   0.00000  Uiso   1.00
C394   C     0.50007   0.83186   0.02401   0.00000  Uiso   1.00
C395   C     0.50043   0.83179   0.47593   0.00000  Uiso   1.00
C396   C     0.62433   0.83329   0.24261   0.00000  Uiso   1.00
C397   C     0.37568   0.83328   0.25746   0.00000  Uiso   1.00
C398   C     0.49997   0.83329   0.16396   0.00000  Uiso   1.00
C399   C     0.50006   0.83329   0.33602   0.00000  Uiso   1.00
C400   C     0.52518   0.69065   0.27918   0.00000  Uiso   1.00
C401   C     0.47465   0.97607   0.22100   0.00000  Uiso   1.00
C402   C     0.47481   0.69066   0.22083   0.00000  Uiso   1.00
C403   C     0.52534   0.97606   0.27901   0.00000  Uiso   1.00
C404   C     0.35415   0.79182   0.25566   0.00000  Uiso   1.00
Cl405  Cl    0.55769   0.71980   0.31748   0.00000  Uiso   1.00
Cl406  Cl    0.62329   0.92718   0.22792   0.00000  Uiso   1.00
Cl407  Cl    0.62316   0.73932   0.22829   0.00000  Uiso   1.00
Cl408  Cl    0.37673   0.92715   0.27225   0.00000  Uiso   1.00
Cl409  Cl    0.44131   0.94705   0.18357   0.00000  Uiso   1.00
Cl410  Cl    0.44230   0.71982   0.18253   0.00000  Uiso   1.00
Cl411  Cl    0.55862   0.94703   0.31651   0.00000  Uiso   1.00
Cl412  Cl    0.44623   0.90479   0.01660   0.00000  Uiso   1.00
Cl413  Cl    0.44453   0.76068   0.47877   0.00000  Uiso   1.00
Cl414  Cl    0.55652   0.90269   0.48319   0.00000  Uiso   1.00
Cl415  Cl    0.55377   0.75874   0.02132   0.00000  Uiso   1.00
Cl416  Cl    0.37685   0.73931   0.27175   0.00000  Uiso   1.00
H417   H     0.45912   0.89032   0.10925   0.00000  Uiso   1.00
H418   H     0.45767   0.77663   0.38694   0.00000  Uiso   1.00
H419   H     0.54286   0.88871   0.39053   0.00000  Uiso   1.00
H420   H     0.54085   0.77515   0.11309   0.00000  Uiso   1.00
N421   N     0.50000   0.95240   0.25000   0.00000  Uiso   1.00
N422   N     0.50000   0.71427   0.25000   0.00000  Uiso   1.00
O423   O     0.43892   0.87154   0.24999   0.00000  Uiso   1.00
O424   O     0.56108   0.79513   0.25001   0.00000  Uiso   1.00
O425   O     0.56108   0.87154   0.25000   0.00000  Uiso   1.00
O426   O     0.43892   0.79513   0.24999   0.00000  Uiso   1.00
O427   O     0.50000   0.87155   0.18453   0.00000  Uiso   1.00
O428   O     0.50000   0.79511   0.31547   0.00000  Uiso   1.00
O429   O     0.50000   0.87155   0.31547   0.00000  Uiso   1.00
O430   O     0.50000   0.79511   0.18453   0.00000  Uiso   1.00
Zn431  Zn    0.50000   0.88437   0.25000   0.00000  Uiso   1.00
Zn432  Zn    0.50000   0.78229   0.25000   0.00000  Uiso   1.00
C433   C     0.75345   0.83332   0.25394   0.00000  Uiso   1.00
C434   C     0.97922   0.87473   0.24435   0.00000  Uiso   1.00
C435   C     0.97920   0.79183   0.24440   0.00000  Uiso   1.00
C436   C     0.68746   0.87472   0.25576   0.00000  Uiso   1.00
C437   C     0.81002   0.86461   0.04597   0.00000  Uiso   1.00
C438   C     0.80940   0.80035   0.45195   0.00000  Uiso   1.00
C439   C     0.85808   0.86366   0.45390   0.00000  Uiso   1.00
C440   C     0.85673   0.79955   0.04805   0.00000  Uiso   1.00
C441   C     0.81056   0.86529   0.09215   0.00000  Uiso   1.00
C442   C     0.80971   0.80077   0.40576   0.00000  Uiso   1.00
C443   C     0.85738   0.86438   0.40772   0.00000  Uiso   1.00
C444   C     0.91322   0.83333   0.24608   0.00000  Uiso   1.00
C445   C     0.85627   0.79997   0.09424   0.00000  Uiso   1.00
C446   C     0.83349   0.83299   0.11608   0.00000  Uiso   1.00
C447   C     0.83337   0.83297   0.38388   0.00000  Uiso   1.00
C448   C     0.83340   0.83186   0.02401   0.00000  Uiso   1.00
C449   C     0.83377   0.83179   0.47593   0.00000  Uiso   1.00
C450   C     0.95766   0.83329   0.24261   0.00000  Uiso   1.00
C451   C     0.70902   0.83328   0.25746   0.00000  Uiso   1.00
C452   C     0.83330   0.83329   0.16396   0.00000  Uiso   1.00
C453   C     0.83340   0.83329   0.33602   0.00000  Uiso   1.00
C454   C     0.85851   0.69065   0.27918   0.00000  Uiso   1.00
C455   C     0.80798   0.97607   0.22100   0.00000  Uiso   1.00
C456   C     0.80815   0.69066   0.22083   0.00000  Uiso   1.00
C457   C     0.85867   0.97606   0.27901   0.00000  Uiso   1.00
C458   C     0.68748   0.79182   0.25566   0.00000  Uiso   1.00
Cl459  Cl    0.89102   0.71980   0.31748   0.00000  Uiso   1.00
Cl460  Cl    0.95663   0.92718   0.22792   0.00000  Uiso   1.00
Cl461  Cl    0.95649   0.73932   0.22829   0.00000  Uiso   1.00
Cl462  Cl    0.71006   0.92715   0.27225   0.00000  Uiso   1.00
Cl463  Cl    0.77464   0.94705   0.18357   0.00000  Uiso   1.00
Cl464  Cl    0.77564   0.71982   0.18253   0.00000  Uiso   1.00
Cl465  Cl    0.89195   0.94703   0.31651   0.00000  Uiso   1.00
Cl466  Cl    0.77956   0.90479   0.01660   0.00000  Uiso   1.00
Cl467  Cl    0.77786   0.76068   0.47877   0.00000  Uiso   1.00
Cl468  Cl    0.88985   0.90269   0.48319   0.00000  Uiso   1.00
Cl469  Cl    0.88711   0.75874   0.02132   0.00000  Uiso   1.00
Cl470  Cl    0.71019   0.73931   0.27175   0.00000  Uiso   1.00
H471   H     0.79246   0.89032   0.10925   0.00000  Uiso   1.00
H472   H     0.79100   0.77663   0.38694   0.00000  Uiso   1.00
H473   H     0.87619   0.88871   0.39053   0.00000  Uiso   1.00
H474   H     0.87419   0.77515   0.11309   0.00000  Uiso   1.00
N475   N     0.83333   0.95240   0.25000   0.00000  Uiso   1.00
N476   N     0.83333   0.71427   0.25000   0.00000  Uiso   1.00
O477   O     0.77226   0.87154   0.24999   0.00000  Uiso   1.00
O478   O     0.89441   0.79513   0.25001   0.00000  Uiso   1.00
O479   O     0.89441   0.87154   0.25000   0.00000  Uiso   1.00
O480   O     0.77226   0.79513   0.24999   0.00000  Uiso   1.00
O481   O     0.83333   0.87155   0.18453   0.00000  Uiso   1.00
O482   O     0.83334   0.79511   0.31547   0.00000  Uiso   1.00
O483   O     0.83334   0.87155   0.31547   0.00000  Uiso   1.00
O484   O     0.83333   0.79511   0.18453   0.00000  Uiso   1.00
Zn485  Zn    0.83333   0.88437   0.25000   0.00000  Uiso   1.00
Zn486  Zn    0.83333   0.78229   0.25000   0.00000  Uiso   1.00
C487   C     0.08679   0.16666   0.75394   0.00000  Uiso   1.00
C488   C     0.31255   0.20806   0.74435   0.00000  Uiso   1.00
C489   C     0.31253   0.12516   0.74440   0.00000  Uiso   1.00
C490   C     0.02079   0.20805   0.75576   0.00000  Uiso   1.00
C491   C     0.14336   0.19794   0.54597   0.00000  Uiso   1.00
C492   C     0.14274   0.13368   0.95195   0.00000  Uiso   1.00
C493   C     0.19141   0.19699   0.95390   0.00000  Uiso   1.00
C494   C     0.19006   0.13289   0.54805   0.00000  Uiso   1.00
C495   C     0.14389   0.19863   0.59215   0.00000  Uiso   1.00
C496   C     0.14305   0.13410   0.90576   0.00000  Uiso   1.00
C497   C     0.19072   0.19772   0.90772   0.00000  Uiso   1.00
C498   C     0.24655   0.16666   0.74608   0.00000  Uiso   1.00
C499   C     0.18960   0.13331   0.59424   0.00000  Uiso   1.00
C500   C     0.16682   0.16632   0.61608   0.00000  Uiso   1.00
C501   C     0.16670   0.16631   0.88388   0.00000  Uiso   1.00
C502   C     0.16674   0.16519   0.52401   0.00000  Uiso   1.00
C503   C     0.16710   0.16512   0.97593   0.00000  Uiso   1.00
C504   C     0.29099   0.16662   0.74261   0.00000  Uiso   1.00
C505   C     0.04235   0.16662   0.75746   0.00000  Uiso   1.00
C506   C     0.16663   0.16663   0.66396   0.00000  Uiso   1.00
C507   C     0.16673   0.16662   0.83602   0.00000  Uiso   1.00
C508   C     0.19185   0.02398   0.77918   0.00000  Uiso   1.00
C509   C     0.14132   0.30940   0.72100   0.00000  Uiso   1.00
C510   C     0.14148   0.02399   0.72083   0.00000  Uiso   1.00
C511   C     0.19200   0.30939   0.77901   0.00000  Uiso   1.00
C512   C     0.02081   0.12516   0.75566   0.00000  Uiso   1.00
Cl513  Cl    0.22435   0.05314   0.81748   0.00000  Uiso   1.00
Cl514  Cl    0.28996   0.26051   0.72792   0.00000  Uiso   1.00
Cl515  Cl    0.28983   0.07265   0.72829   0.00000  Uiso   1.00
Cl516  Cl    0.04339   0.26048   0.77225   0.00000  Uiso   1.00
Cl517  Cl    0.10798   0.28038   0.68357   0.00000  Uiso   1.00
Cl518  Cl    0.10897   0.05315   0.68253   0.00000  Uiso   1.00
Cl519  Cl    0.22528   0.28036   0.81651   0.00000  Uiso   1.00
Cl520  Cl    0.11289   0.23813   0.51660   0.00000  Uiso   1.00
Cl521  Cl    0.11120   0.09401   0.97877   0.00000  Uiso   1.00
Cl522  Cl    0.22318   0.23602   0.98319   0.00000  Uiso   1.00
Cl523  Cl    0.22044   0.09207   0.52132   0.00000  Uiso   1.00
Cl524  Cl    0.04352   0.07264   0.77175   0.00000  Uiso   1.00
H525   H     0.12579   0.22366   0.60925   0.00000  Uiso   1.00
H526   H     0.12433   0.10997   0.88694   0.00000  Uiso   1.00
H527   H     0.20952   0.22205   0.89053   0.00000  Uiso   1.00
H528   H     0.20752   0.10849   0.61309   0.00000  Uiso   1.00
N529   N     0.16667   0.28573   0.75000   0.00000  Uiso   1.00
N530   N     0.16667   0.04760   0.75000   0.00000  Uiso   1.00
O531   O     0.10559   0.20487   0.74999   0.00000  Uiso   1.00
O532   O     0.22774   0.12846   0.75001   0.00000  Uiso   1.00
O533   O     0.22774   0.20487   0.75000   0.00000  Uiso   1.00
O534   O     0.10559   0.12846   0.74999   0.00000  Uiso   1.00
O535   O     0.16666   0.20489   0.68453   0.00000  Uiso   1.00
O536   O     0.16667   0.12845   0.81547   0.00000  Uiso   1.00
O537   O     0.16667   0.20489   0.81547   0.00000  Uiso   1.00
O538   O     0.16666   0.12845   0.68453   0.00000  Uiso   1.00
Zn539  Zn    0.16667   0.21771   0.75000   0.00000  Uiso   1.00
Zn540  Zn    0.16667   0.11563   0.75000   0.00000  Uiso   1.00
C541   C     0.42012   0.16666   0.75394   0.00000  Uiso   1.00
C542   C     0.64588   0.20806   0.74435   0.00000  Uiso   1.00
C543   C     0.64586   0.12516   0.74440   0.00000  Uiso   1.00
C544   C     0.35413   0.20805   0.75576   0.00000  Uiso   1.00
C545   C     0.47669   0.19794   0.54597   0.00000  Uiso   1.00
C546   C     0.47607   0.13368   0.95195   0.00000  Uiso   1.00
C547   C     0.52474   0.19699   0.95390   0.00000  Uiso   1.00
C548   C     0.52339   0.13289   0.54805   0.00000  Uiso   1.00
C549   C     0.47723   0.19863   0.59215   0.00000  Uiso   1.00
C550   C     0.47638   0.13410   0.90576   0.00000  Uiso   1.00
C551   C     0.52405   0.19772   0.90772   0.00000  Uiso   1.00
C552   C     0.57989   0.16666   0.74608   0.00000  Uiso   1.00
C553   C     0.52293   0.13331   0.59424   0.00000  Uiso   1.00
C554   C     0.50015   0.16632   0.61608   0.00000  Uiso   1.00
C555   C     0.50004   0.16631   0.88388   0.00000  Uiso   1.00
C556   C     0.50007   0.16519   0.52401   0.00000  Uiso   1.00
C557   C     0.50043   0.16512   0.97593   0.00000  Uiso   1.00
C558   C     0.62433   0.16662   0.74261   0.00000  Uiso   1.00
C559   C     0.37568   0.16662   0.75746   0.00000  Uiso   1.00
C560   C     0.49997   0.16663   0.66396   0.00000  Uiso   1.00
C561   C     0.50006   0.16662   0.83602   0.00000  Uiso   1.00
C562   C     0.52518   0.02398   0.77918   0.00000  Uiso   1.00
C563   C     0.47465   0.30940   0.72100   0.00000  Uiso   1.00
C564   C     0.47481   0.02399   0.72083   0.00000  Uiso   1.00
C565   C     0.52534   0.30939   0.77901   0.00000  Uiso   1.00
C566   C     0.35415   0.12516   0.75566   0.00000  Uiso   1.00
Cl567  Cl    0.55769   0.05314   0.81748   0.00000  Uiso   1.00
Cl568  Cl    0.62329   0.26051   0.72792   0.00000  Uiso   1.00
Cl569  Cl    0.62316   0.07265   0.72829   0.00000  Uiso   1.00
Cl570  Cl    0.37673   0.26048   0.77225   0.00000  Uiso   1.00
Cl571  Cl    0.44131   0.28038   0.68357   0.00000  Uiso   1.00
Cl572  Cl    0.44230   0.05315   0.68253   0.00000  Uiso   1.00
Cl573  Cl    0.55862   0.28036   0.81651   0.00000  Uiso   1.00
Cl574  Cl    0.44623   0.23813   0.51660   0.00000  Uiso   1.00
Cl575  Cl    0.44453   0.09401   0.97877   0.00000  Uiso   1.00
Cl576  Cl    0.55652   0.23602   0.98319   0.00000  Uiso   1.00
Cl577  Cl    0.55377   0.09207   0.52132   0.00000  Uiso   1.00
Cl578  Cl    0.37685   0.07264   0.77175   0.00000  Uiso   1.00
H579   H     0.45912   0.22366   0.60925   0.00000  Uiso   1.00
H580   H     0.45767   0.10997   0.88694   0.00000  Uiso   1.00
H581   H     0.54286   0.22205   0.89053   0.00000  Uiso   1.00
H582   H     0.54085   0.10849   0.61309   0.00000  Uiso   1.00
N583   N     0.50000   0.28573   0.75000   0.00000  Uiso   1.00
N584   N     0.50000   0.04760   0.75000   0.00000  Uiso   1.00
O585   O     0.43892   0.20487   0.74999   0.00000  Uiso   1.00
O586   O     0.56108   0.12846   0.75001   0.00000  Uiso   1.00
O587   O     0.56108   0.20487   0.75000   0.00000  Uiso   1.00
O588   O     0.43892   0.12846   0.74999   0.00000  Uiso   1.00
O589   O     0.50000   0.20489   0.68453   0.00000  Uiso   1.00
O590   O     0.50000   0.12845   0.81547   0.00000  Uiso   1.00
O591   O     0.50000   0.20489   0.81547   0.00000  Uiso   1.00
O592   O     0.50000   0.12845   0.68453   0.00000  Uiso   1.00
Zn593  Zn    0.50000   0.21771   0.75000   0.00000  Uiso   1.00
Zn594  Zn    0.50000   0.11563   0.75000   0.00000  Uiso   1.00
C595   C     0.75345   0.16666   0.75394   0.00000  Uiso   1.00
C596   C     0.97922   0.20806   0.74435   0.00000  Uiso   1.00
C597   C     0.97920   0.12516   0.74440   0.00000  Uiso   1.00
C598   C     0.68746   0.20805   0.75576   0.00000  Uiso   1.00
C599   C     0.81002   0.19794   0.54597   0.00000  Uiso   1.00
C600   C     0.80940   0.13368   0.95195   0.00000  Uiso   1.00
C601   C     0.85808   0.19699   0.95390   0.00000  Uiso   1.00
C602   C     0.85673   0.13289   0.54805   0.00000  Uiso   1.00
C603   C     0.81056   0.19863   0.59215   0.00000  Uiso   1.00
C604   C     0.80971   0.13410   0.90576   0.00000  Uiso   1.00
C605   C     0.85738   0.19772   0.90772   0.00000  Uiso   1.00
C606   C     0.91322   0.16666   0.74608   0.00000  Uiso   1.00
C607   C     0.85627   0.13331   0.59424   0.00000  Uiso   1.00
C608   C     0.83349   0.16632   0.61608   0.00000  Uiso   1.00
C609   C     0.83337   0.16631   0.88388   0.00000  Uiso   1.00
C610   C     0.83340   0.16519   0.52401   0.00000  Uiso   1.00
C611   C     0.83377   0.16512   0.97593   0.00000  Uiso   1.00
C612   C     0.95766   0.16662   0.74261   0.00000  Uiso   1.00
C613   C     0.70902   0.16662   0.75746   0.00000  Uiso   1.00
C614   C     0.83330   0.16663   0.66396   0.00000  Uiso   1.00
C615   C     0.83340   0.16662   0.83602   0.00000  Uiso   1.00
C616   C     0.85851   0.02398   0.77918   0.00000  Uiso   1.00
C617   C     0.80798   0.30940   0.72100   0.00000  Uiso   1.00
C618   C     0.80815   0.02399   0.72083   0.00000  Uiso   1.00
C619   C     0.85867   0.30939   0.77901   0.00000  Uiso   1.00
C620   C     0.68748   0.12516   0.75566   0.00000  Uiso   1.00
Cl621  Cl    0.89102   0.05314   0.81748   0.00000  Uiso   1.00
Cl622  Cl    0.95663   0.26051   0.72792   0.00000  Uiso   1.00
Cl623  Cl    0.95649   0.07265   0.72829   0.00000  Uiso   1.00
Cl624  Cl    0.71006   0.26048   0.77225   0.00000  Uiso   1.00
Cl625  Cl    0.77464   0.28038   0.68357   0.00000  Uiso   1.00
Cl626  Cl    0.77564   0.05315   0.68253   0.00000  Uiso   1.00
Cl627  Cl    0.89195   0.28036   0.81651   0.00000  Uiso   1.00
Cl628  Cl    0.77956   0.23813   0.51660   0.00000  Uiso   1.00
Cl629  Cl    0.77786   0.09401   0.97877   0.00000  Uiso   1.00
Cl630  Cl    0.88985   0.23602   0.98319   0.00000  Uiso   1.00
Cl631  Cl    0.88711   0.09207   0.52132   0.00000  Uiso   1.00
Cl632  Cl    0.71019   0.07264   0.77175   0.00000  Uiso   1.00
H633   H     0.79246   0.22366   0.60925   0.00000  Uiso   1.00
H634   H     0.79100   0.10997   0.88694   0.00000  Uiso   1.00
H635   H     0.87619   0.22205   0.89053   0.00000  Uiso   1.00
H636   H     0.87419   0.10849   0.61309   0.00000  Uiso   1.00
N637   N     0.83333   0.28573   0.75000   0.00000  Uiso   1.00
N638   N     0.83333   0.04760   0.75000   0.00000  Uiso   1.00
O639   O     0.77226   0.20487   0.74999   0.00000  Uiso   1.00
O640   O     0.89441   0.12846   0.75001   0.00000  Uiso   1.00
O641   O     0.89441   0.20487   0.75000   0.00000  Uiso   1.00
O642   O     0.77226   0.12846   0.74999   0.00000  Uiso   1.00
O643   O     0.83333   0.20489   0.68453   0.00000  Uiso   1.00
O644   O     0.83334   0.12845   0.81547   0.00000  Uiso   1.00
O645   O     0.83334   0.20489   0.81547   0.00000  Uiso   1.00
O646   O     0.83333   0.12845   0.68453   0.00000  Uiso   1.00
Zn647  Zn    0.83333   0.21771   0.75000   0.00000  Uiso   1.00
Zn648  Zn    0.83333   0.11563   0.75000   0.00000  Uiso   1.00
C649   C     0.08679   0.49999   0.75394   0.00000  Uiso   1.00
C650   C     0.31255   0.54139   0.74435   0.00000  Uiso   1.00
C651   C     0.31253   0.45850   0.74440   0.00000  Uiso   1.00
C652   C     0.02079   0.54139   0.75576   0.00000  Uiso   1.00
C653   C     0.14336   0.53128   0.54597   0.00000  Uiso   1.00
C654   C     0.14274   0.46702   0.95195   0.00000  Uiso   1.00
C655   C     0.19141   0.53033   0.95390   0.00000  Uiso   1.00
C656   C     0.19006   0.46622   0.54805   0.00000  Uiso   1.00
C657   C     0.14389   0.53196   0.59215   0.00000  Uiso   1.00
C658   C     0.14305   0.46744   0.90576   0.00000  Uiso   1.00
C659   C     0.19072   0.53105   0.90772   0.00000  Uiso   1.00
C660   C     0.24655   0.49999   0.74608   0.00000  Uiso   1.00
C661   C     0.18960   0.46664   0.59424   0.00000  Uiso   1.00
C662   C     0.16682   0.49966   0.61608   0.00000  Uiso   1.00
C663   C     0.16670   0.49964   0.88388   0.00000  Uiso   1.00
C664   C     0.16674   0.49852   0.52401   0.00000  Uiso   1.00
C665   C     0.16710   0.49846   0.97593   0.00000  Uiso   1.00
C666   C     0.29099   0.49996   0.74261   0.00000  Uiso   1.00
C667   C     0.04235   0.49995   0.75746   0.00000  Uiso   1.00
C668   C     0.16663   0.49996   0.66396   0.00000  Uiso   1.00
C669   C     0.16673   0.49996   0.83602   0.00000  Uiso   1.00
C670   C     0.19185   0.35732   0.77918   0.00000  Uiso   1.00
C671   C     0.14132   0.64273   0.72100   0.00000  Uiso   1.00
C672   C     0.14148   0.35732   0.72083   0.00000  Uiso   1.00
C673   C     0.19200   0.64273   0.77901   0.00000  Uiso   1.00
C674   C     0.02081   0.45849   0.75566   0.00000  Uiso   1.00
Cl675  Cl    0.22435   0.38647   0.81748   0.00000  Uiso   1.00
Cl676  Cl    0.28996   0.59385   0.72792   0.00000  Uiso   1.00
Cl677  Cl    0.28983   0.40598   0.72829   0.00000  Uiso   1.00
Cl678  Cl    0.04339   0.59382   0.77225   0.00000  Uiso   1.00
Cl679  Cl    0.10798   0.61371   0.68357   0.00000  Uiso   1.00
Cl680  Cl    0.10897   0.38649   0.68253   0.00000  Uiso   1.00
Cl681  Cl    0.22528   0.61370   0.81651   0.00000  Uiso   1.00
Cl682  Cl    0.11289   0.57146   0.51660   0.00000  Uiso   1.00
Cl683  Cl    0.11120   0.42734   0.97877   0.00000  Uiso   1.00
Cl684  Cl    0.22318   0.56935   0.98319   0.00000  Uiso   1.00
Cl685  Cl    0.22044   0.42540   0.52132   0.00000  Uiso   1.00
Cl686  Cl    0.04352   0.40598   0.77175   0.00000  Uiso   1.00
H687   H     0.12579   0.55699   0.60925   0.00000  Uiso   1.00
H688   H     0.12433   0.44330   0.88694   0.00000  Uiso   1.00
H689   H     0.20952   0.55538   0.89053   0.00000  Uiso   1.00
H690   H     0.20752   0.44182   0.61309   0.00000  Uiso   1.00
N691   N     0.16667   0.61907   0.75000   0.00000  Uiso   1.00
N692   N     0.16667   0.38093   0.75000   0.00000  Uiso   1.00
O693   O     0.10559   0.53821   0.74999   0.00000  Uiso   1.00
O694   O     0.22774   0.46179   0.75001   0.00000  Uiso   1.00
O695   O     0.22774   0.53821   0.75000   0.00000  Uiso   1.00
O696   O     0.10559   0.46179   0.74999   0.00000  Uiso   1.00
O697   O     0.16666   0.53822   0.68453   0.00000  Uiso   1.00
O698   O     0.16667   0.46178   0.81547   0.00000  Uiso   1.00
O699   O     0.16667   0.53822   0.81547   0.00000  Uiso   1.00
O700   O     0.16666   0.46178   0.68453   0.00000  Uiso   1.00
Zn701  Zn    0.16667   0.55104   0.75000   0.00000  Uiso   1.00
Zn702  Zn    0.16667   0.44896   0.75000   0.00000  Uiso   1.00
C703   C     0.42012   0.49999   0.75394   0.00000  Uiso   1.00
C704   C     0.64588   0.54139   0.74435   0.00000  Uiso   1.00
C705   C     0.64586   0.45850   0.74440   0.00000  Uiso   1.00
C706   C     0.35413   0.54139   0.75576   0.00000  Uiso   1.00
C707   C     0.47669   0.53128   0.54597   0.00000  Uiso   1.00
C708   C     0.47607   0.46702   0.95195   0.00000  Uiso   1.00
C709   C     0.52474   0.53033   0.95390   0.00000  Uiso   1.00
C710   C     0.52339   0.46622   0.54805   0.00000  Uiso   1.00
C711   C     0.47723   0.53196   0.59215   0.00000  Uiso   1.00
C712   C     0.47638   0.46744   0.90576   0.00000  Uiso   1.00
C713   C     0.52405   0.53105   0.90772   0.00000  Uiso   1.00
C714   C     0.57989   0.49999   0.74608   0.00000  Uiso   1.00
C715   C     0.52293   0.46664   0.59424   0.00000  Uiso   1.00
C716   C     0.50015   0.49966   0.61608   0.00000  Uiso   1.00
C717   C     0.50004   0.49964   0.88388   0.00000  Uiso   1.00
C718   C     0.50007   0.49852   0.52401   0.00000  Uiso   1.00
C719   C     0.50043   0.49846   0.97593   0.00000  Uiso   1.00
C720   C     0.62433   0.49996   0.74261   0.00000  Uiso   1.00
C721   C     0.37568   0.49995   0.75746   0.00000  Uiso   1.00
C722   C     0.49997   0.49996   0.66396   0.00000  Uiso   1.00
C723   C     0.50006   0.49996   0.83602   0.00000  Uiso   1.00
C724   C     0.52518   0.35732   0.77918   0.00000  Uiso   1.00
C725   C     0.47465   0.64273   0.72100   0.00000  Uiso   1.00
C726   C     0.47481   0.35732   0.72083   0.00000  Uiso   1.00
C727   C     0.52534   0.64273   0.77901   0.00000  Uiso   1.00
C728   C     0.35415   0.45849   0.75566   0.00000  Uiso   1.00
Cl729  Cl    0.55769   0.38647   0.81748   0.00000  Uiso   1.00
Cl730  Cl    0.62329   0.59385   0.72792   0.00000  Uiso   1.00
Cl731  Cl    0.62316   0.40598   0.72829   0.00000  Uiso   1.00
Cl732  Cl    0.37673   0.59382   0.77225   0.00000  Uiso   1.00
Cl733  Cl    0.44131   0.61371   0.68357   0.00000  Uiso   1.00
Cl734  Cl    0.44230   0.38649   0.68253   0.00000  Uiso   1.00
Cl735  Cl    0.55862   0.61370   0.81651   0.00000  Uiso   1.00
Cl736  Cl    0.44623   0.57146   0.51660   0.00000  Uiso   1.00
Cl737  Cl    0.44453   0.42734   0.97877   0.00000  Uiso   1.00
Cl738  Cl    0.55652   0.56935   0.98319   0.00000  Uiso   1.00
Cl739  Cl    0.55377   0.42540   0.52132   0.00000  Uiso   1.00
Cl740  Cl    0.37685   0.40598   0.77175   0.00000  Uiso   1.00
H741   H     0.45912   0.55699   0.60925   0.00000  Uiso   1.00
H742   H     0.45767   0.44330   0.88694   0.00000  Uiso   1.00
H743   H     0.54286   0.55538   0.89053   0.00000  Uiso   1.00
H744   H     0.54085   0.44182   0.61309   0.00000  Uiso   1.00
N745   N     0.50000   0.61907   0.75000   0.00000  Uiso   1.00
N746   N     0.50000   0.38093   0.75000   0.00000  Uiso   1.00
O747   O     0.43892   0.53821   0.74999   0.00000  Uiso   1.00
O748   O     0.56108   0.46179   0.75001   0.00000  Uiso   1.00
O749   O     0.56108   0.53821   0.75000   0.00000  Uiso   1.00
O750   O     0.43892   0.46179   0.74999   0.00000  Uiso   1.00
O751   O     0.50000   0.53822   0.68453   0.00000  Uiso   1.00
O752   O     0.50000   0.46178   0.81547   0.00000  Uiso   1.00
O753   O     0.50000   0.53822   0.81547   0.00000  Uiso   1.00
O754   O     0.50000   0.46178   0.68453   0.00000  Uiso   1.00
Zn755  Zn    0.50000   0.55104   0.75000   0.00000  Uiso   1.00
Zn756  Zn    0.50000   0.44896   0.75000   0.00000  Uiso   1.00
C757   C     0.75345   0.49999   0.75394   0.00000  Uiso   1.00
C758   C     0.97922   0.54139   0.74435   0.00000  Uiso   1.00
C759   C     0.97920   0.45850   0.74440   0.00000  Uiso   1.00
C760   C     0.68746   0.54139   0.75576   0.00000  Uiso   1.00
C761   C     0.81002   0.53128   0.54597   0.00000  Uiso   1.00
C762   C     0.80940   0.46702   0.95195   0.00000  Uiso   1.00
C763   C     0.85808   0.53033   0.95390   0.00000  Uiso   1.00
C764   C     0.85673   0.46622   0.54805   0.00000  Uiso   1.00
C765   C     0.81056   0.53196   0.59215   0.00000  Uiso   1.00
C766   C     0.80971   0.46744   0.90576   0.00000  Uiso   1.00
C767   C     0.85738   0.53105   0.90772   0.00000  Uiso   1.00
C768   C     0.91322   0.49999   0.74608   0.00000  Uiso   1.00
C769   C     0.85627   0.46664   0.59424   0.00000  Uiso   1.00
C770   C     0.83349   0.49966   0.61608   0.00000  Uiso   1.00
C771   C     0.83337   0.49964   0.88388   0.00000  Uiso   1.00
C772   C     0.83340   0.49852   0.52401   0.00000  Uiso   1.00
C773   C     0.83377   0.49846   0.97593   0.00000  Uiso   1.00
C774   C     0.95766   0.49996   0.74261   0.00000  Uiso   1.00
C775   C     0.70902   0.49995   0.75746   0.00000  Uiso   1.00
C776   C     0.83330   0.49996   0.66396   0.00000  Uiso   1.00
C777   C     0.83340   0.49996   0.83602   0.00000  Uiso   1.00
C778   C     0.85851   0.35732   0.77918   0.00000  Uiso   1.00
C779   C     0.80798   0.64273   0.72100   0.00000  Uiso   1.00
C780   C     0.80815   0.35732   0.72083   0.00000  Uiso   1.00
C781   C     0.85867   0.64273   0.77901   0.00000  Uiso   1.00
C782   C     0.68748   0.45849   0.75566   0.00000  Uiso   1.00
Cl783  Cl    0.89102   0.38647   0.81748   0.00000  Uiso   1.00
Cl784  Cl    0.95663   0.59385   0.72792   0.00000  Uiso   1.00
Cl785  Cl    0.95649   0.40598   0.72829   0.00000  Uiso   1.00
Cl786  Cl    0.71006   0.59382   0.77225   0.00000  Uiso   1.00
Cl787  Cl    0.77464   0.61371   0.68357   0.00000  Uiso   1.00
Cl788  Cl    0.77564   0.38649   0.68253   0.00000  Uiso   1.00
Cl789  Cl    0.89195   0.61370   0.81651   0.00000  Uiso   1.00
Cl790  Cl    0.77956   0.57146   0.51660   0.00000  Uiso   1.00
Cl791  Cl    0.77786   0.42734   0.97877   0.00000  Uiso   1.00
Cl792  Cl    0.88985   0.56935   0.98319   0.00000  Uiso   1.00
Cl793  Cl    0.88711   0.42540   0.52132   0.00000  Uiso   1.00
Cl794  Cl    0.71019   0.40598   0.77175   0.00000  Uiso   1.00
H795   H     0.79246   0.55699   0.60925   0.00000  Uiso   1.00
H796   H     0.79100   0.44330   0.88694   0.00000  Uiso   1.00
H797   H     0.87619   0.55538   0.89053   0.00000  Uiso   1.00
H798   H     0.87419   0.44182   0.61309   0.00000  Uiso   1.00
N799   N     0.83333   0.61907   0.75000   0.00000  Uiso   1.00
N800   N     0.83333   0.38093   0.75000   0.00000  Uiso   1.00
O801   O     0.77226   0.53821   0.74999   0.00000  Uiso   1.00
O802   O     0.89441   0.46179   0.75001   0.00000  Uiso   1.00
O803   O     0.89441   0.53821   0.75000   0.00000  Uiso   1.00
O804   O     0.77226   0.46179   0.74999   0.00000  Uiso   1.00
O805   O     0.83333   0.53822   0.68453   0.00000  Uiso   1.00
O806   O     0.83334   0.46178   0.81547   0.00000  Uiso   1.00
O807   O     0.83334   0.53822   0.81547   0.00000  Uiso   1.00
O808   O     0.83333   0.46178   0.68453   0.00000  Uiso   1.00
Zn809  Zn    0.83333   0.55104   0.75000   0.00000  Uiso   1.00
Zn810  Zn    0.83333   0.44896   0.75000   0.00000  Uiso   1.00
C811   C     0.08679   0.83332   0.75394   0.00000  Uiso   1.00
C812   C     0.31255   0.87473   0.74435   0.00000  Uiso   1.00
C813   C     0.31253   0.79183   0.74440   0.00000  Uiso   1.00
C814   C     0.02079   0.87472   0.75576   0.00000  Uiso   1.00
C815   C     0.14336   0.86461   0.54597   0.00000  Uiso   1.00
C816   C     0.14274   0.80035   0.95195   0.00000  Uiso   1.00
C817   C     0.19141   0.86366   0.95390   0.00000  Uiso   1.00
C818   C     0.19006   0.79955   0.54805   0.00000  Uiso   1.00
C819   C     0.14389   0.86529   0.59215   0.00000  Uiso   1.00
C820   C     0.14305   0.80077   0.90576   0.00000  Uiso   1.00
C821   C     0.19072   0.86438   0.90772   0.00000  Uiso   1.00
C822   C     0.24655   0.83333   0.74608   0.00000  Uiso   1.00
C823   C     0.18960   0.79997   0.59424   0.00000  Uiso   1.00
C824   C     0.16682   0.83299   0.61608   0.00000  Uiso   1.00
C825   C     0.16670   0.83297   0.88388   0.00000  Uiso   1.00
C826   C     0.16674   0.83186   0.52401   0.00000  Uiso   1.00
C827   C     0.16710   0.83179   0.97593   0.00000  Uiso   1.00
C828   C     0.29099   0.83329   0.74261   0.00000  Uiso   1.00
C829   C     0.04235   0.83328   0.75746   0.00000  Uiso   1.00
C830   C     0.16663   0.83329   0.66396   0.00000  Uiso   1.00
C831   C     0.16673   0.83329   0.83602   0.00000  Uiso   1.00
C832   C     0.19185   0.69065   0.77918   0.00000  Uiso   1.00
C833   C     0.14132   0.97607   0.72100   0.00000  Uiso   1.00
C834   C     0.14148   0.69066   0.72083   0.00000  Uiso   1.00
C835   C     0.19200   0.97606   0.77901   0.00000  Uiso   1.00
C836   C     0.02081   0.79182   0.75566   0.00000  Uiso   1.00
Cl837  Cl    0.22435   0.71980   0.81748   0.00000  Uiso   1.00
Cl838  Cl    0.28996   0.92718   0.72792   0.00000  Uiso   1.00
Cl839  Cl    0.28983   0.73932   0.72829   0.00000  Uiso   1.00
Cl840  Cl    0.04339   0.92715   0.77225   0.00000  Uiso   1.00
Cl841  Cl    0.10798   0.94705   0.68357   0.00000  Uiso   1.00
Cl842  Cl    0.10897   0.71982   0.68253   0.00000  Uiso   1.00
Cl843  Cl    0.22528   0.94703   0.81651   0.00000  Uiso   1.00
Cl844  Cl    0.11289   0.90479   0.51660   0.00000  Uiso   1.00
Cl845  Cl    0.11120   0.76068   0.97877   0.00000  Uiso   1.00
Cl846  Cl    0.22318   0.90269   0.98319   0.00000  Uiso   1.00
Cl847  Cl    0.22044   0.75874   0.52132   0.00000  Uiso   1.00
Cl848  Cl    0.04352   0.73931   0.77175   0.00000  Uiso   1.00
H849   H     0.12579   0.89032   0.60925   0.00000  Uiso   1.00
H850   H     0.12433   0.77663   0.88694   0.00000  Uiso   1.00
H851   H     0.20952   0.88871   0.89053   0.00000  Uiso   1.00
H852   H     0.20752   0.77515   0.61309   0.00000  Uiso   1.00
N853   N     0.16667   0.95240   0.75000   0.00000  Uiso   1.00
N854   N     0.16667   0.71427   0.75000   0.00000  Uiso   1.00
O855   O     0.10559   0.87154   0.74999   0.00000  Uiso   1.00
O856   O     0.22774   0.79513   0.75001   0.00000  Uiso   1.00
O857   O     0.22774   0.87154   0.75000   0.00000  Uiso   1.00
O858   O     0.10559   0.79513   0.74999   0.00000  Uiso   1.00
O859   O     0.16666   0.87155   0.68453   0.00000  Uiso   1.00
O860   O     0.16667   0.79511   0.81547   0.00000  Uiso   1.00
O861   O     0.16667   0.87155   0.81547   0.00000  Uiso   1.00
O862   O     0.16666   0.79511   0.68453   0.00000  Uiso   1.00
Zn863  Zn    0.16667   0.88437   0.75000   0.00000  Uiso   1.00
Zn864  Zn    0.16667   0.78229   0.75000   0.00000  Uiso   1.00
C865   C     0.42012   0.83332   0.75394   0.00000  Uiso   1.00
C866   C     0.64588   0.87473   0.74435   0.00000  Uiso   1.00
C867   C     0.64586   0.79183   0.74440   0.00000  Uiso   1.00
C868   C     0.35413   0.87472   0.75576   0.00000  Uiso   1.00
C869   C     0.47669   0.86461   0.54597   0.00000  Uiso   1.00
C870   C     0.47607   0.80035   0.95195   0.00000  Uiso   1.00
C871   C     0.52474   0.86366   0.95390   0.00000  Uiso   1.00
C872   C     0.52339   0.79955   0.54805   0.00000  Uiso   1.00
C873   C     0.47723   0.86529   0.59215   0.00000  Uiso   1.00
C874   C     0.47638   0.80077   0.90576   0.00000  Uiso   1.00
C875   C     0.52405   0.86438   0.90772   0.00000  Uiso   1.00
C876   C     0.57989   0.83333   0.74608   0.00000  Uiso   1.00
C877   C     0.52293   0.79997   0.59424   0.00000  Uiso   1.00
C878   C     0.50015   0.83299   0.61608   0.00000  Uiso   1.00
C879   C     0.50004   0.83297   0.88388   0.00000  Uiso   1.00
C880   C     0.50007   0.83186   0.52401   0.00000  Uiso   1.00
C881   C     0.50043   0.83179   0.97593   0.00000  Uiso   1.00
C882   C     0.62433   0.83329   0.74261   0.00000  Uiso   1.00
C883   C     0.37568   0.83328   0.75746   0.00000  Uiso   1.00
C884   C     0.49997   0.83329   0.66396   0.00000  Uiso   1.00
C885   C     0.50006   0.83329   0.83602   0.00000  Uiso   1.00
C886   C     0.52518   0.69065   0.77918   0.00000  Uiso   1.00
C887   C     0.47465   0.97607   0.72100   0.00000  Uiso   1.00
C888   C     0.47481   0.69066   0.72083   0.00000  Uiso   1.00
C889   C     0.52534   0.97606   0.77901   0.00000  Uiso   1.00
C890   C     0.35415   0.79182   0.75566   0.00000  Uiso   1.00
Cl891  Cl    0.55769   0.71980   0.81748   0.00000  Uiso   1.00
Cl892  Cl    0.62329   0.92718   0.72792   0.00000  Uiso   1.00
Cl893  Cl    0.62316   0.73932   0.72829   0.00000  Uiso   1.00
Cl894  Cl    0.37673   0.92715   0.77225   0.00000  Uiso   1.00
Cl895  Cl    0.44131   0.94705   0.68357   0.00000  Uiso   1.00
Cl896  Cl    0.44230   0.71982   0.68253   0.00000  Uiso   1.00
Cl897  Cl    0.55862   0.94703   0.81651   0.00000  Uiso   1.00
Cl898  Cl    0.44623   0.90479   0.51660   0.00000  Uiso   1.00
Cl899  Cl    0.44453   0.76068   0.97877   0.00000  Uiso   1.00
Cl900  Cl    0.55652   0.90269   0.98319   0.00000  Uiso   1.00
Cl901  Cl    0.55377   0.75874   0.52132   0.00000  Uiso   1.00
Cl902  Cl    0.37685   0.73931   0.77175   0.00000  Uiso   1.00
H903   H     0.45912   0.89032   0.60925   0.00000  Uiso   1.00
H904   H     0.45767   0.77663   0.88694   0.00000  Uiso   1.00
H905   H     0.54286   0.88871   0.89053   0.00000  Uiso   1.00
H906   H     0.54085   0.77515   0.61309   0.00000  Uiso   1.00
N907   N     0.50000   0.95240   0.75000   0.00000  Uiso   1.00
N908   N     0.50000   0.71427   0.75000   0.00000  Uiso   1.00
O909   O     0.43892   0.87154   0.74999   0.00000  Uiso   1.00
O910   O     0.56108   0.79513   0.75001   0.00000  Uiso   1.00
O911   O     0.56108   0.87154   0.75000   0.00000  Uiso   1.00
O912   O     0.43892   0.79513   0.74999   0.00000  Uiso   1.00
O913   O     0.50000   0.87155   0.68453   0.00000  Uiso   1.00
O914   O     0.50000   0.79511   0.81547   0.00000  Uiso   1.00
O915   O     0.50000   0.87155   0.81547   0.00000  Uiso   1.00
O916   O     0.50000   0.79511   0.68453   0.00000  Uiso   1.00
Zn917  Zn    0.50000   0.88437   0.75000   0.00000  Uiso   1.00
Zn918  Zn    0.50000   0.78229   0.75000   0.00000  Uiso   1.00
C919   C     0.75345   0.83332   0.75394   0.00000  Uiso   1.00
C920   C     0.97922   0.87473   0.74435   0.00000  Uiso   1.00
C921   C     0.97920   0.79183   0.74440   0.00000  Uiso   1.00
C922   C     0.68746   0.87472   0.75576   0.00000  Uiso   1.00
C923   C     0.81002   0.86461   0.54597   0.00000  Uiso   1.00
C924   C     0.80940   0.80035   0.95195   0.00000  Uiso   1.00
C925   C     0.85808   0.86366   0.95390   0.00000  Uiso   1.00
C926   C     0.85673   0.79955   0.54805   0.00000  Uiso   1.00
C927   C     0.81056   0.86529   0.59215   0.00000  Uiso   1.00
C928   C     0.80971   0.80077   0.90576   0.00000  Uiso   1.00
C929   C     0.85738   0.86438   0.90772   0.00000  Uiso   1.00
C930   C     0.91322   0.83333   0.74608   0.00000  Uiso   1.00
C931   C     0.85627   0.79997   0.59424   0.00000  Uiso   1.00
C932   C     0.83349   0.83299   0.61608   0.00000  Uiso   1.00
C933   C     0.83337   0.83297   0.88388   0.00000  Uiso   1.00
C934   C     0.83340   0.83186   0.52401   0.00000  Uiso   1.00
C935   C     0.83377   0.83179   0.97593   0.00000  Uiso   1.00
C936   C     0.95766   0.83329   0.74261   0.00000  Uiso   1.00
C937   C     0.70902   0.83328   0.75746   0.00000  Uiso   1.00
C938   C     0.83330   0.83329   0.66396   0.00000  Uiso   1.00
C939   C     0.83340   0.83329   0.83602   0.00000  Uiso   1.00
C940   C     0.85851   0.69065   0.77918   0.00000  Uiso   1.00
C941   C     0.80798   0.97607   0.72100   0.00000  Uiso   1.00
C942   C     0.80815   0.69066   0.72083   0.00000  Uiso   1.00
C943   C     0.85867   0.97606   0.77901   0.00000  Uiso   1.00
C944   C     0.68748   0.79182   0.75566   0.00000  Uiso   1.00
Cl945  Cl    0.89102   0.71980   0.81748   0.00000  Uiso   1.00
Cl946  Cl    0.95663   0.92718   0.72792   0.00000  Uiso   1.00
Cl947  Cl    0.95649   0.73932   0.72829   0.00000  Uiso   1.00
Cl948  Cl    0.71006   0.92715   0.77225   0.00000  Uiso   1.00
Cl949  Cl    0.77464   0.94705   0.68357   0.00000  Uiso   1.00
Cl950  Cl    0.77564   0.71982   0.68253   0.00000  Uiso   1.00
Cl951  Cl    0.89195   0.94703   0.81651   0.00000  Uiso   1.00
Cl952  Cl    0.77956   0.90479   0.51660   0.00000  Uiso   1.00
Cl953  Cl    0.77786   0.76068   0.97877   0.00000  Uiso   1.00
Cl954  Cl    0.88985   0.90269   0.98319   0.00000  Uiso   1.00
Cl955  Cl    0.88711   0.75874   0.52132   0.00000  Uiso   1.00
Cl956  Cl    0.71019   0.73931   0.77175   0.00000  Uiso   1.00
H957   H     0.79246   0.89032   0.60925   0.00000  Uiso   1.00
H958   H     0.79100   0.77663   0.88694   0.00000  Uiso   1.00
H959   H     0.87619   0.88871   0.89053   0.00000  Uiso   1.00
H960   H     0.87419   0.77515   0.61309   0.00000  Uiso   1.00
N961   N     0.83333   0.95240   0.75000   0.00000  Uiso   1.00
N962   N     0.83333   0.71427   0.75000   0.00000  Uiso   1.00
O963   O     0.77226   0.87154   0.74999   0.00000  Uiso   1.00
O964   O     0.89441   0.79513   0.75001   0.00000  Uiso   1.00
O965   O     0.89441   0.87154   0.75000   0.00000  Uiso   1.00
O966   O     0.77226   0.79513   0.74999   0.00000  Uiso   1.00
O967   O     0.83333   0.87155   0.68453   0.00000  Uiso   1.00
O968   O     0.83334   0.79511   0.81547   0.00000  Uiso   1.00
O969   O     0.83334   0.87155   0.81547   0.00000  Uiso   1.00
O970   O     0.83333   0.79511   0.68453   0.00000  Uiso   1.00
Zn971  Zn    0.83333   0.88437   0.75000   0.00000  Uiso   1.00
Zn972  Zn    0.83333   0.78229   0.75000   0.00000  Uiso   1.00
loop_
_geom_bond_atom_site_label_1
_geom_bond_atom_site_label_2
_geom_bond_distance
_geom_bond_site_symmetry_2
_ccdc_geom_bond_type
C1     O48     1.290   .     A
C1     O45     1.291   .     A
C1     C19     1.444   .     S
C2     C18     1.411   .     A
C2     Cl28    1.779   .     S
C2     C58     1.378   .     S
C3     Cl29    1.779   .     S
C3     C18     1.411   .     A
C3     C80     1.379   .     S
C4     C19     1.411   .     A
C4     Cl30    1.779   .     S
C4     C110    1.378   1_455 S
C5     C9      1.382   .     A
C5     Cl34    1.763   .     S
C5     C16     1.404   .     A
C6     C10     1.383   .     A
C6     C17     1.404   .     A
C6     Cl35    1.763   .     S
C7     Cl36    1.763   .     S
C7     C11     1.382   .     A
C7     C17     1.404   .     A
C8     C16     1.404   .     A
C8     Cl37    1.763   .     S
C8     C13     1.383   .     A
C9     C14     1.395   .     A
C9     H39     1.082   .     S
C10    H40     1.084   .     S
C10    C15     1.396   .     A
C11    H41     1.082   .     S
C11    C15     1.395   .     A
C12    O47     1.291   .     A
C12    O46     1.291   .     A
C12    C18     1.444   .     S
C13    C14     1.397   .     A
C13    H42     1.084   .     S
C14    C20     1.433   .     S
C15    C21     1.432   .     S
C16    C503    1.439   1_554 S
C17    C502    1.439   .     S
C19    C26     1.411   .     A
C20    O49     1.289   .     A
C20    O52     1.286   .     A
C21    O51     1.288   .     A
C21    O50     1.286   .     A
C22    Cl27    1.760   .     S
C22    N44     1.369   .     A
C22    C349    1.418   1_545 S
C23    N43     1.370   .     A
C23    Cl31    1.757   .     S
C23    C186    1.418   .     S
C24    Cl32    1.760   .     S
C24    N44     1.369   .     A
C24    C347    1.418   1_545 S
C25    N43     1.370   .     A
C25    Cl33    1.757   .     S
C25    C184    1.418   .     S
C26    Cl38    1.779   .     S
C26    C111    1.379   1_455 S
N43    Zn53    2.013   .     S
N44    Zn54    2.013   .     S
O45    Zn53    2.012   .     S
O46    Zn54    2.012   .     S
O47    Zn53    2.012   .     S
O48    Zn54    2.012   .     S
O49    Zn53    1.995   .     S
O50    Zn54    1.995   .     S
O51    Zn53    1.995   .     S
O52    Zn54    1.995   .     S
C55    O102    1.290   .     A
C55    O99     1.291   .     A
C55    C73     1.444   .     S
C56    C72     1.411   .     A
C56    Cl82    1.779   .     S
C56    C112    1.378   .     S
C57    Cl83    1.779   .     S
C57    C72     1.411   .     A
C57    C134    1.379   .     S
C58    C73     1.411   .     A
C58    Cl84    1.779   .     S
C59    C63     1.382   .     A
C59    Cl88    1.763   .     S
C59    C70     1.404   .     A
C60    C64     1.383   .     A
C60    C71     1.404   .     A
C60    Cl89    1.763   .     S
C61    Cl90    1.763   .     S
C61    C65     1.382   .     A
C61    C71     1.404   .     A
C62    C70     1.404   .     A
C62    Cl91    1.763   .     S
C62    C67     1.383   .     A
C63    C68     1.395   .     A
C63    H93     1.082   .     S
C64    H94     1.084   .     S
C64    C69     1.396   .     A
C65    H95     1.082   .     S
C65    C69     1.395   .     A
C66    O101    1.291   .     A
C66    O100    1.291   .     A
C66    C72     1.444   .     S
C67    C68     1.397   .     A
C67    H96     1.084   .     S
C68    C74     1.433   .     S
C69    C75     1.432   .     S
C70    C557    1.439   1_554 S
C71    C556    1.439   .     S
C73    C80     1.411   .     A
C74    O103    1.289   .     A
C74    O106    1.286   .     A
C75    O105    1.288   .     A
C75    O104    1.286   .     A
C76    Cl81    1.760   .     S
C76    N98     1.369   .     A
C76    C403    1.418   1_545 S
C77    N97     1.370   .     A
C77    Cl85    1.757   .     S
C77    C240    1.418   .     S
C78    Cl86    1.760   .     S
C78    N98     1.369   .     A
C78    C401    1.418   1_545 S
C79    N97     1.370   .     A
C79    Cl87    1.757   .     S
C79    C238    1.418   .     S
C80    Cl92    1.779   .     S
N97    Zn107   2.013   .     S
N98    Zn108   2.013   .     S
O99    Zn107   2.012   .     S
O100   Zn108   2.012   .     S
O101   Zn107   2.012   .     S
O102   Zn108   2.012   .     S
O103   Zn107   1.995   .     S
O104   Zn108   1.995   .     S
O105   Zn107   1.995   .     S
O106   Zn108   1.995   .     S
C109   O156    1.290   .     A
C109   O153    1.291   .     A
C109   C127    1.444   .     S
C110   C126    1.411   .     A
C110   Cl136   1.779   .     S
C110   C4      1.378   1_655 S
C111   Cl137   1.779   .     S
C111   C126    1.411   .     A
C111   C26     1.379   1_655 S
C112   C127    1.411   .     A
C112   Cl138   1.779   .     S
C113   C117    1.382   .     A
C113   Cl142   1.763   .     S
C113   C124    1.404   .     A
C114   C118    1.383   .     A
C114   C125    1.404   .     A
C114   Cl143   1.763   .     S
C115   Cl144   1.763   .     S
C115   C119    1.382   .     A
C115   C125    1.404   .     A
C116   C124    1.404   .     A
C116   Cl145   1.763   .     S
C116   C121    1.383   .     A
C117   C122    1.395   .     A
C117   H147    1.082   .     S
C118   H148    1.084   .     S
C118   C123    1.396   .     A
C119   H149    1.082   .     S
C119   C123    1.395   .     A
C120   O155    1.291   .     A
C120   O154    1.291   .     A
C120   C126    1.444   .     S
C121   C122    1.397   .     A
C121   H150    1.084   .     S
C122   C128    1.433   .     S
C123   C129    1.432   .     S
C124   C611    1.439   1_554 S
C125   C610    1.439   .     S
C127   C134    1.411   .     A
C128   O157    1.289   .     A
C128   O160    1.286   .     A
C129   O159    1.288   .     A
C129   O158    1.286   .     A
C130   Cl135   1.760   .     S
C130   N152    1.369   .     A
C130   C457    1.418   1_545 S
C131   N151    1.370   .     A
C131   Cl139   1.757   .     S
C131   C294    1.418   .     S
C132   Cl140   1.760   .     S
C132   N152    1.369   .     A
C132   C455    1.418   1_545 S
C133   N151    1.370   .     A
C133   Cl141   1.757   .     S
C133   C292    1.418   .     S
C134   Cl146   1.779   .     S
N151   Zn161   2.013   .     S
N152   Zn162   2.013   .     S
O153   Zn161   2.012   .     S
O154   Zn162   2.012   .     S
O155   Zn161   2.012   .     S
O156   Zn162   2.012   .     S
O157   Zn161   1.995   .     S
O158   Zn162   1.995   .     S
O159   Zn161   1.995   .     S
O160   Zn162   1.995   .     S
C163   O210    1.290   .     A
C163   O207    1.291   .     A
C163   C181    1.444   .     S
C164   C180    1.411   .     A
C164   Cl190   1.779   .     S
C164   C220    1.378   .     S
C165   Cl191   1.779   .     S
C165   C180    1.411   .     A
C165   C242    1.379   .     S
C166   C181    1.411   .     A
C166   Cl192   1.779   .     S
C166   C272    1.378   1_455 S
C167   C171    1.382   .     A
C167   Cl196   1.763   .     S
C167   C178    1.404   .     A
C168   C172    1.383   .     A
C168   C179    1.404   .     A
C168   Cl197   1.763   .     S
C169   Cl198   1.763   .     S
C169   C173    1.382   .     A
C169   C179    1.404   .     A
C170   C178    1.404   .     A
C170   Cl199   1.763   .     S
C170   C175    1.383   .     A
C171   C176    1.395   .     A
C171   H201    1.082   .     S
C172   H202    1.084   .     S
C172   C177    1.396   .     A
C173   H203    1.082   .     S
C173   C177    1.395   .     A
C174   O209    1.291   .     A
C174   O208    1.291   .     A
C174   C180    1.444   .     S
C175   C176    1.397   .     A
C175   H204    1.084   .     S
C176   C182    1.433   .     S
C177   C183    1.432   .     S
C178   C665    1.439   1_554 S
C179   C664    1.439   .     S
C181   C188    1.411   .     A
C182   O211    1.289   .     A
C182   O214    1.286   .     A
C183   O213    1.288   .     A
C183   O212    1.286   .     A
C184   Cl189   1.760   .     S
C184   N206    1.369   .     A
C185   N205    1.370   .     A
C185   Cl193   1.757   .     S
C185   C348    1.418   .     S
C186   Cl194   1.760   .     S
C186   N206    1.369   .     A
C187   N205    1.370   .     A
C187   Cl195   1.757   .     S
C187   C346    1.418   .     S
C188   Cl200   1.779   .     S
C188   C273    1.379   1_455 S
N205   Zn215   2.013   .     S
N206   Zn216   2.013   .     S
O207   Zn215   2.012   .     S
O208   Zn216   2.012   .     S
O209   Zn215   2.012   .     S
O210   Zn216   2.012   .     S
O211   Zn215   1.995   .     S
O212   Zn216   1.995   .     S
O213   Zn215   1.995   .     S
O214   Zn216   1.995   .     S
C217   O264    1.290   .     A
C217   O261    1.291   .     A
C217   C235    1.444   .     S
C218   C234    1.411   .     A
C218   Cl244   1.779   .     S
C218   C274    1.378   .     S
C219   Cl245   1.779   .     S
C219   C234    1.411   .     A
C219   C296    1.379   .     S
C220   C235    1.411   .     A
C220   Cl246   1.779   .     S
C221   C225    1.382   .     A
C221   Cl250   1.763   .     S
C221   C232    1.404   .     A
C222   C226    1.383   .     A
C222   C233    1.404   .     A
C222   Cl251   1.763   .     S
C223   Cl252   1.763   .     S
C223   C227    1.382   .     A
C223   C233    1.404   .     A
C224   C232    1.404   .     A
C224   Cl253   1.763   .     S
C224   C229    1.383   .     A
C225   C230    1.395   .     A
C225   H255    1.082   .     S
C226   H256    1.084   .     S
C226   C231    1.396   .     A
C227   H257    1.082   .     S
C227   C231    1.395   .     A
C228   O263    1.291   .     A
C228   O262    1.291   .     A
C228   C234    1.444   .     S
C229   C230    1.397   .     A
C229   H258    1.084   .     S
C230   C236    1.433   .     S
C231   C237    1.432   .     S
C232   C719    1.439   1_554 S
C233   C718    1.439   .     S
C235   C242    1.411   .     A
C236   O265    1.289   .     A
C236   O268    1.286   .     A
C237   O267    1.288   .     A
C237   O266    1.286   .     A
C238   Cl243   1.760   .     S
C238   N260    1.369   .     A
C239   N259    1.370   .     A
C239   Cl247   1.757   .     S
C239   C402    1.418   .     S
C240   Cl248   1.760   .     S
C240   N260    1.369   .     A
C241   N259    1.370   .     A
C241   Cl249   1.757   .     S
C241   C400    1.418   .     S
C242   Cl254   1.779   .     S
N259   Zn269   2.013   .     S
N260   Zn270   2.013   .     S
O261   Zn269   2.012   .     S
O262   Zn270   2.012   .     S
O263   Zn269   2.012   .     S
O264   Zn270   2.012   .     S
O265   Zn269   1.995   .     S
O266   Zn270   1.995   .     S
O267   Zn269   1.995   .     S
O268   Zn270   1.995   .     S
C271   O318    1.290   .     A
C271   O315    1.291   .     A
C271   C289    1.444   .     S
C272   C288    1.411   .     A
C272   Cl298   1.779   .     S
C272   C166    1.378   1_655 S
C273   Cl299   1.779   .     S
C273   C288    1.411   .     A
C273   C188    1.379   1_655 S
C274   C289    1.411   .     A
C274   Cl300   1.779   .     S
C275   C279    1.382   .     A
C275   Cl304   1.763   .     S
C275   C286    1.404   .     A
C276   C280    1.383   .     A
C276   C287    1.404   .     A
C276   Cl305   1.763   .     S
C277   Cl306   1.763   .     S
C277   C281    1.382   .     A
C277   C287    1.404   .     A
C278   C286    1.404   .     A
C278   Cl307   1.763   .     S
C278   C283    1.383   .     A
C279   C284    1.395   .     A
C279   H309    1.082   .     S
C280   H310    1.084   .     S
C280   C285    1.396   .     A
C281   H311    1.082   .     S
C281   C285    1.395   .     A
C282   O317    1.291   .     A
C282   O316    1.291   .     A
C282   C288    1.444   .     S
C283   C284    1.397   .     A
C283   H312    1.084   .     S
C284   C290    1.433   .     S
C285   C291    1.432   .     S
C286   C773    1.439   1_554 S
C287   C772    1.439   .     S
C289   C296    1.411   .     A
C290   O319    1.289   .     A
C290   O322    1.286   .     A
C291   O321    1.288   .     A
C291   O320    1.286   .     A
C292   Cl297   1.760   .     S
C292   N314    1.369   .     A
C293   N313    1.370   .     A
C293   Cl301   1.757   .     S
C293   C456    1.418   .     S
C294   Cl302   1.760   .     S
C294   N314    1.369   .     A
C295   N313    1.370   .     A
C295   Cl303   1.757   .     S
C295   C454    1.418   .     S
C296   Cl308   1.779   .     S
N313   Zn323   2.013   .     S
N314   Zn324   2.013   .     S
O315   Zn323   2.012   .     S
O316   Zn324   2.012   .     S
O317   Zn323   2.012   .     S
O318   Zn324   2.012   .     S
O319   Zn323   1.995   .     S
O320   Zn324   1.995   .     S
O321   Zn323   1.995   .     S
O322   Zn324   1.995   .     S
C325   O372    1.290   .     A
C325   O369    1.291   .     A
C325   C343    1.444   .     S
C326   C342    1.411   .     A
C326   Cl352   1.779   .     S
C326   C382    1.378   .     S
C327   Cl353   1.779   .     S
C327   C342    1.411   .     A
C327   C404    1.379   .     S
C328   C343    1.411   .     A
C328   Cl354   1.779   .     S
C328   C434    1.378   1_455 S
C329   C333    1.382   .     A
C329   Cl358   1.763   .     S
C329   C340    1.404   .     A
C330   C334    1.383   .     A
C330   C341    1.404   .     A
C330   Cl359   1.763   .     S
C331   Cl360   1.763   .     S
C331   C335    1.382   .     A
C331   C341    1.404   .     A
C332   C340    1.404   .     A
C332   Cl361   1.763   .     S
C332   C337    1.383   .     A
C333   C338    1.395   .     A
C333   H363    1.082   .     S
C334   H364    1.084   .     S
C334   C339    1.396   .     A
C335   H365    1.082   .     S
C335   C339    1.395   .     A
C336   O371    1.291   .     A
C336   O370    1.291   .     A
C336   C342    1.444   .     S
C337   C338    1.397   .     A
C337   H366    1.084   .     S
C338   C344    1.433   .     S
C339   C345    1.432   .     S
C340   C827    1.439   1_554 S
C341   C826    1.439   .     S
C343   C350    1.411   .     A
C344   O373    1.289   .     A
C344   O376    1.286   .     A
C345   O375    1.288   .     A
C345   O374    1.286   .     A
C346   Cl351   1.760   .     S
C346   N368    1.369   .     A
C347   N367    1.370   .     A
C347   Cl355   1.757   .     S
C347   C24     1.418   1_565 S
C348   Cl356   1.760   .     S
C348   N368    1.369   .     A
C349   N367    1.370   .     A
C349   Cl357   1.757   .     S
C349   C22     1.418   1_565 S
C350   Cl362   1.779   .     S
C350   C435    1.379   1_455 S
N367   Zn377   2.013   .     S
N368   Zn378   2.013   .     S
O369   Zn377   2.012   .     S
O370   Zn378   2.012   .     S
O371   Zn377   2.012   .     S
O372   Zn378   2.012   .     S
O373   Zn377   1.995   .     S
O374   Zn378   1.995   .     S
O375   Zn377   1.995   .     S
O376   Zn378   1.995   .     S
C379   O426    1.290   .     A
C379   O423    1.291   .     A
C379   C397    1.444   .     S
C380   C396    1.411   .     A
C380   Cl406   1.779   .     S
C380   C436    1.378   .     S
C381   Cl407   1.779   .     S
C381   C396    1.411   .     A
C381   C458    1.379   .     S
C382   C397    1.411   .     A
C382   Cl408   1.779   .     S
C383   C387    1.382   .     A
C383   Cl412   1.763   .     S
C383   C394    1.404   .     A
C384   C388    1.383   .     A
C384   C395    1.404   .     A
C384   Cl413   1.763   .     S
C385   Cl414   1.763   .     S
C385   C389    1.382   .     A
C385   C395    1.404   .     A
C386   C394    1.404   .     A
C386   Cl415   1.763   .     S
C386   C391    1.383   .     A
C387   C392    1.395   .     A
C387   H417    1.082   .     S
C388   H418    1.084   .     S
C388   C393    1.396   .     A
C389   H419    1.082   .     S
C389   C393    1.395   .     A
C390   O425    1.291   .     A
C390   O424    1.291   .     A
C390   C396    1.444   .     S
C391   C392    1.397   .     A
C391   H420    1.084   .     S
C392   C398    1.433   .     S
C393   C399    1.432   .     S
C394   C881    1.439   1_554 S
C395   C880    1.439   .     S
C397   C404    1.411   .     A
C398   O427    1.289   .     A
C398   O430    1.286   .     A
C399   O429    1.288   .     A
C399   O428    1.286   .     A
C400   Cl405   1.760   .     S
C400   N422    1.369   .     A
C401   N421    1.370   .     A
C401   Cl409   1.757   .     S
C401   C78     1.418   1_565 S
C402   Cl410   1.760   .     S
C402   N422    1.369   .     A
C403   N421    1.370   .     A
C403   Cl411   1.757   .     S
C403   C76     1.418   1_565 S
C404   Cl416   1.779   .     S
N421   Zn431   2.013   .     S
N422   Zn432   2.013   .     S
O423   Zn431   2.012   .     S
O424   Zn432   2.012   .     S
O425   Zn431   2.012   .     S
O426   Zn432   2.012   .     S
O427   Zn431   1.995   .     S
O428   Zn432   1.995   .     S
O429   Zn431   1.995   .     S
O430   Zn432   1.995   .     S
C433   O480    1.290   .     A
C433   O477    1.291   .     A
C433   C451    1.444   .     S
C434   C450    1.411   .     A
C434   Cl460   1.779   .     S
C434   C328    1.378   1_655 S
C435   Cl461   1.779   .     S
C435   C450    1.411   .     A
C435   C350    1.379   1_655 S
C436   C451    1.411   .     A
C436   Cl462   1.779   .     S
C437   C441    1.382   .     A
C437   Cl466   1.763   .     S
C437   C448    1.404   .     A
C438   C442    1.383   .     A
C438   C449    1.404   .     A
C438   Cl467   1.763   .     S
C439   Cl468   1.763   .     S
C439   C443    1.382   .     A
C439   C449    1.404   .     A
C440   C448    1.404   .     A
C440   Cl469   1.763   .     S
C440   C445    1.383   .     A
C441   C446    1.395   .     A
C441   H471    1.082   .     S
C442   H472    1.084   .     S
C442   C447    1.396   .     A
C443   H473    1.082   .     S
C443   C447    1.395   .     A
C444   O479    1.291   .     A
C444   O478    1.291   .     A
C444   C450    1.444   .     S
C445   C446    1.397   .     A
C445   H474    1.084   .     S
C446   C452    1.433   .     S
C447   C453    1.432   .     S
C448   C935    1.439   1_554 S
C449   C934    1.439   .     S
C451   C458    1.411   .     A
C452   O481    1.289   .     A
C452   O484    1.286   .     A
C453   O483    1.288   .     A
C453   O482    1.286   .     A
C454   Cl459   1.760   .     S
C454   N476    1.369   .     A
C455   N475    1.370   .     A
C455   Cl463   1.757   .     S
C455   C132    1.418   1_565 S
C456   Cl464   1.760   .     S
C456   N476    1.369   .     A
C457   N475    1.370   .     A
C457   Cl465   1.757   .     S
C457   C130    1.418   1_565 S
C458   Cl470   1.779   .     S
N475   Zn485   2.013   .     S
N476   Zn486   2.013   .     S
O477   Zn485   2.012   .     S
O478   Zn486   2.012   .     S
O479   Zn485   2.012   .     S
O480   Zn486   2.012   .     S
O481   Zn485   1.995   .     S
O482   Zn486   1.995   .     S
O483   Zn485   1.995   .     S
O484   Zn486   1.995   .     S
C487   O534    1.290   .     A
C487   O531    1.291   .     A
C487   C505    1.444   .     S
C488   C504    1.411   .     A
C488   Cl514   1.779   .     S
C488   C544    1.378   .     S
C489   Cl515   1.779   .     S
C489   C504    1.411   .     A
C489   C566    1.379   .     S
C490   C505    1.411   .     A
C490   Cl516   1.779   .     S
C490   C596    1.378   1_455 S
C491   C495    1.382   .     A
C491   Cl520   1.763   .     S
C491   C502    1.404   .     A
C492   C496    1.383   .     A
C492   C503    1.404   .     A
C492   Cl521   1.763   .     S
C493   Cl522   1.763   .     S
C493   C497    1.382   .     A
C493   C503    1.404   .     A
C494   C502    1.404   .     A
C494   Cl523   1.763   .     S
C494   C499    1.383   .     A
C495   C500    1.395   .     A
C495   H525    1.082   .     S
C496   H526    1.084   .     S
C496   C501    1.396   .     A
C497   H527    1.082   .     S
C497   C501    1.395   .     A
C498   O533    1.291   .     A
C498   O532    1.291   .     A
C498   C504    1.444   .     S
C499   C500    1.397   .     A
C499   H528    1.084   .     S
C500   C506    1.433   .     S
C501   C507    1.432   .     S
C503   C16     1.439   1_556 S
C505   C512    1.411   .     A
C506   O535    1.289   .     A
C506   O538    1.286   .     A
C507   O537    1.288   .     A
C507   O536    1.286   .     A
C508   Cl513   1.760   .     S
C508   N530    1.369   .     A
C508   C835    1.418   1_545 S
C509   N529    1.370   .     A
C509   Cl517   1.757   .     S
C509   C672    1.418   .     S
C510   Cl518   1.760   .     S
C510   N530    1.369   .     A
C510   C833    1.418   1_545 S
C511   N529    1.370   .     A
C511   Cl519   1.757   .     S
C511   C670    1.418   .     S
C512   Cl524   1.779   .     S
C512   C597    1.379   1_455 S
N529   Zn539   2.013   .     S
N530   Zn540   2.013   .     S
O531   Zn539   2.012   .     S
O532   Zn540   2.012   .     S
O533   Zn539   2.012   .     S
O534   Zn540   2.012   .     S
O535   Zn539   1.995   .     S
O536   Zn540   1.995   .     S
O537   Zn539   1.995   .     S
O538   Zn540   1.995   .     S
C541   O588    1.290   .     A
C541   O585    1.291   .     A
C541   C559    1.444   .     S
C542   C558    1.411   .     A
C542   Cl568   1.779   .     S
C542   C598    1.378   .     S
C543   Cl569   1.779   .     S
C543   C558    1.411   .     A
C543   C620    1.379   .     S
C544   C559    1.411   .     A
C544   Cl570   1.779   .     S
C545   C549    1.382   .     A
C545   Cl574   1.763   .     S
C545   C556    1.404   .     A
C546   C550    1.383   .     A
C546   C557    1.404   .     A
C546   Cl575   1.763   .     S
C547   Cl576   1.763   .     S
C547   C551    1.382   .     A
C547   C557    1.404   .     A
C548   C556    1.404   .     A
C548   Cl577   1.763   .     S
C548   C553    1.383   .     A
C549   C554    1.395   .     A
C549   H579    1.082   .     S
C550   H580    1.084   .     S
C550   C555    1.396   .     A
C551   H581    1.082   .     S
C551   C555    1.395   .     A
C552   O587    1.291   .     A
C552   O586    1.291   .     A
C552   C558    1.444   .     S
C553   C554    1.397   .     A
C553   H582    1.084   .     S
C554   C560    1.433   .     S
C555   C561    1.432   .     S
C557   C70     1.439   1_556 S
C559   C566    1.411   .     A
C560   O589    1.289   .     A
C560   O592    1.286   .     A
C561   O591    1.288   .     A
C561   O590    1.286   .     A
C562   Cl567   1.760   .     S
C562   N584    1.369   .     A
C562   C889    1.418   1_545 S
C563   N583    1.370   .     A
C563   Cl571   1.757   .     S
C563   C726    1.418   .     S
C564   Cl572   1.760   .     S
C564   N584    1.369   .     A
C564   C887    1.418   1_545 S
C565   N583    1.370   .     A
C565   Cl573   1.757   .     S
C565   C724    1.418   .     S
C566   Cl578   1.779   .     S
N583   Zn593   2.013   .     S
N584   Zn594   2.013   .     S
O585   Zn593   2.012   .     S
O586   Zn594   2.012   .     S
O587   Zn593   2.012   .     S
O588   Zn594   2.012   .     S
O589   Zn593   1.995   .     S
O590   Zn594   1.995   .     S
O591   Zn593   1.995   .     S
O592   Zn594   1.995   .     S
C595   O642    1.290   .     A
C595   O639    1.291   .     A
C595   C613    1.444   .     S
C596   C612    1.411   .     A
C596   Cl622   1.779   .     S
C596   C490    1.378   1_655 S
C597   Cl623   1.779   .     S
C597   C612    1.411   .     A
C597   C512    1.379   1_655 S
C598   C613    1.411   .     A
C598   Cl624   1.779   .     S
C599   C603    1.382   .     A
C599   Cl628   1.763   .     S
C599   C610    1.404   .     A
C600   C604    1.383   .     A
C600   C611    1.404   .     A
C600   Cl629   1.763   .     S
C601   Cl630   1.763   .     S
C601   C605    1.382   .     A
C601   C611    1.404   .     A
C602   C610    1.404   .     A
C602   Cl631   1.763   .     S
C602   C607    1.383   .     A
C603   C608    1.395   .     A
C603   H633    1.082   .     S
C604   H634    1.084   .     S
C604   C609    1.396   .     A
C605   H635    1.082   .     S
C605   C609    1.395   .     A
C606   O641    1.291   .     A
C606   O640    1.291   .     A
C606   C612    1.444   .     S
C607   C608    1.397   .     A
C607   H636    1.084   .     S
C608   C614    1.433   .     S
C609   C615    1.432   .     S
C611   C124    1.439   1_556 S
C613   C620    1.411   .     A
C614   O643    1.289   .     A
C614   O646    1.286   .     A
C615   O645    1.288   .     A
C615   O644    1.286   .     A
C616   Cl621   1.760   .     S
C616   N638    1.369   .     A
C616   C943    1.418   1_545 S
C617   N637    1.370   .     A
C617   Cl625   1.757   .     S
C617   C780    1.418   .     S
C618   Cl626   1.760   .     S
C618   N638    1.369   .     A
C618   C941    1.418   1_545 S
C619   N637    1.370   .     A
C619   Cl627   1.757   .     S
C619   C778    1.418   .     S
C620   Cl632   1.779   .     S
N637   Zn647   2.013   .     S
N638   Zn648   2.013   .     S
O639   Zn647   2.012   .     S
O640   Zn648   2.012   .     S
O641   Zn647   2.012   .     S
O642   Zn648   2.012   .     S
O643   Zn647   1.995   .     S
O644   Zn648   1.995   .     S
O645   Zn647   1.995   .     S
O646   Zn648   1.995   .     S
C649   O696    1.290   .     A
C649   O693    1.291   .     A
C649   C667    1.444   .     S
C650   C666    1.411   .     A
C650   Cl676   1.779   .     S
C650   C706    1.378   .     S
C651   Cl677   1.779   .     S
C651   C666    1.411   .     A
C651   C728    1.379   .     S
C652   C667    1.411   .     A
C652   Cl678   1.779   .     S
C652   C758    1.378   1_455 S
C653   C657    1.382   .     A
C653   Cl682   1.763   .     S
C653   C664    1.404   .     A
C654   C658    1.383   .     A
C654   C665    1.404   .     A
C654   Cl683   1.763   .     S
C655   Cl684   1.763   .     S
C655   C659    1.382   .     A
C655   C665    1.404   .     A
C656   C664    1.404   .     A
C656   Cl685   1.763   .     S
C656   C661    1.383   .     A
C657   C662    1.395   .     A
C657   H687    1.082   .     S
C658   H688    1.084   .     S
C658   C663    1.396   .     A
C659   H689    1.082   .     S
C659   C663    1.395   .     A
C660   O695    1.291   .     A
C660   O694    1.291   .     A
C660   C666    1.444   .     S
C661   C662    1.397   .     A
C661   H690    1.084   .     S
C662   C668    1.433   .     S
C663   C669    1.432   .     S
C665   C178    1.439   1_556 S
C667   C674    1.411   .     A
C668   O697    1.289   .     A
C668   O700    1.286   .     A
C669   O699    1.288   .     A
C669   O698    1.286   .     A
C670   Cl675   1.760   .     S
C670   N692    1.369   .     A
C671   N691    1.370   .     A
C671   Cl679   1.757   .     S
C671   C834    1.418   .     S
C672   Cl680   1.760   .     S
C672   N692    1.369   .     A
C673   N691    1.370   .     A
C673   Cl681   1.757   .     S
C673   C832    1.418   .     S
C674   Cl686   1.779   .     S
C674   C759    1.379   1_455 S
N691   Zn701   2.013   .     S
N692   Zn702   2.013   .     S
O693   Zn701   2.012   .     S
O694   Zn702   2.012   .     S
O695   Zn701   2.012   .     S
O696   Zn702   2.012   .     S
O697   Zn701   1.995   .     S
O698   Zn702   1.995   .     S
O699   Zn701   1.995   .     S
O700   Zn702   1.995   .     S
C703   O750    1.290   .     A
C703   O747    1.291   .     A
C703   C721    1.444   .     S
C704   C720    1.411   .     A
C704   Cl730   1.779   .     S
C704   C760    1.378   .     S
C705   Cl731   1.779   .     S
C705   C720    1.411   .     A
C705   C782    1.379   .     S
C706   C721    1.411   .     A
C706   Cl732   1.779   .     S
C707   C711    1.382   .     A
C707   Cl736   1.763   .     S
C707   C718    1.404   .     A
C708   C712    1.383   .     A
C708   C719    1.404   .     A
C708   Cl737   1.763   .     S
C709   Cl738   1.763   .     S
C709   C713    1.382   .     A
C709   C719    1.404   .     A
C710   C718    1.404   .     A
C710   Cl739   1.763   .     S
C710   C715    1.383   .     A
C711   C716    1.395   .     A
C711   H741    1.082   .     S
C712   H742    1.084   .     S
C712   C717    1.396   .     A
C713   H743    1.082   .     S
C713   C717    1.395   .     A
C714   O749    1.291   .     A
C714   O748    1.291   .     A
C714   C720    1.444   .     S
C715   C716    1.397   .     A
C715   H744    1.084   .     S
C716   C722    1.433   .     S
C717   C723    1.432   .     S
C719   C232    1.439   1_556 S
C721   C728    1.411   .     A
C722   O751    1.289   .     A
C722   O754    1.286   .     A
C723   O753    1.288   .     A
C723   O752    1.286   .     A
C724   Cl729   1.760   .     S
C724   N746    1.369   .     A
C725   N745    1.370   .     A
C725   Cl733   1.757   .     S
C725   C888    1.418   .     S
C726   Cl734   1.760   .     S
C726   N746    1.369   .     A
C727   N745    1.370   .     A
C727   Cl735   1.757   .     S
C727   C886    1.418   .     S
C728   Cl740   1.779   .     S
N745   Zn755   2.013   .     S
N746   Zn756   2.013   .     S
O747   Zn755   2.012   .     S
O748   Zn756   2.012   .     S
O749   Zn755   2.012   .     S
O750   Zn756   2.012   .     S
O751   Zn755   1.995   .     S
O752   Zn756   1.995   .     S
O753   Zn755   1.995   .     S
O754   Zn756   1.995   .     S
C757   O804    1.290   .     A
C757   O801    1.291   .     A
C757   C775    1.444   .     S
C758   C774    1.411   .     A
C758   Cl784   1.779   .     S
C758   C652    1.378   1_655 S
C759   Cl785   1.779   .     S
C759   C774    1.411   .     A
C759   C674    1.379   1_655 S
C760   C775    1.411   .     A
C760   Cl786   1.779   .     S
C761   C765    1.382   .     A
C761   Cl790   1.763   .     S
C761   C772    1.404   .     A
C762   C766    1.383   .     A
C762   C773    1.404   .     A
C762   Cl791   1.763   .     S
C763   Cl792   1.763   .     S
C763   C767    1.382   .     A
C763   C773    1.404   .     A
C764   C772    1.404   .     A
C764   Cl793   1.763   .     S
C764   C769    1.383   .     A
C765   C770    1.395   .     A
C765   H795    1.082   .     S
C766   H796    1.084   .     S
C766   C771    1.396   .     A
C767   H797    1.082   .     S
C767   C771    1.395   .     A
C768   O803    1.291   .     A
C768   O802    1.291   .     A
C768   C774    1.444   .     S
C769   C770    1.397   .     A
C769   H798    1.084   .     S
C770   C776    1.433   .     S
C771   C777    1.432   .     S
C773   C286    1.439   1_556 S
C775   C782    1.411   .     A
C776   O805    1.289   .     A
C776   O808    1.286   .     A
C777   O807    1.288   .     A
C777   O806    1.286   .     A
C778   Cl783   1.760   .     S
C778   N800    1.369   .     A
C779   N799    1.370   .     A
C779   Cl787   1.757   .     S
C779   C942    1.418   .     S
C780   Cl788   1.760   .     S
C780   N800    1.369   .     A
C781   N799    1.370   .     A
C781   Cl789   1.757   .     S
C781   C940    1.418   .     S
C782   Cl794   1.779   .     S
N799   Zn809   2.013   .     S
N800   Zn810   2.013   .     S
O801   Zn809   2.012   .     S
O802   Zn810   2.012   .     S
O803   Zn809   2.012   .     S
O804   Zn810   2.012   .     S
O805   Zn809   1.995   .     S
O806   Zn810   1.995   .     S
O807   Zn809   1.995   .     S
O808   Zn810   1.995   .     S
C811   O858    1.290   .     A
C811   O855    1.291   .     A
C811   C829    1.444   .     S
C812   C828    1.411   .     A
C812   Cl838   1.779   .     S
C812   C868    1.378   .     S
C813   Cl839   1.779   .     S
C813   C828    1.411   .     A
C813   C890    1.379   .     S
C814   C829    1.411   .     A
C814   Cl840   1.779   .     S
C814   C920    1.378   1_455 S
C815   C819    1.382   .     A
C815   Cl844   1.763   .     S
C815   C826    1.404   .     A
C816   C820    1.383   .     A
C816   C827    1.404   .     A
C816   Cl845   1.763   .     S
C817   Cl846   1.763   .     S
C817   C821    1.382   .     A
C817   C827    1.404   .     A
C818   C826    1.404   .     A
C818   Cl847   1.763   .     S
C818   C823    1.383   .     A
C819   C824    1.395   .     A
C819   H849    1.082   .     S
C820   H850    1.084   .     S
C820   C825    1.396   .     A
C821   H851    1.082   .     S
C821   C825    1.395   .     A
C822   O857    1.291   .     A
C822   O856    1.291   .     A
C822   C828    1.444   .     S
C823   C824    1.397   .     A
C823   H852    1.084   .     S
C824   C830    1.433   .     S
C825   C831    1.432   .     S
C827   C340    1.439   1_556 S
C829   C836    1.411   .     A
C830   O859    1.289   .     A
C830   O862    1.286   .     A
C831   O861    1.288   .     A
C831   O860    1.286   .     A
C832   Cl837   1.760   .     S
C832   N854    1.369   .     A
C833   N853    1.370   .     A
C833   Cl841   1.757   .     S
C833   C510    1.418   1_565 S
C834   Cl842   1.760   .     S
C834   N854    1.369   .     A
C835   N853    1.370   .     A
C835   Cl843   1.757   .     S
C835   C508    1.418   1_565 S
C836   Cl848   1.779   .     S
C836   C921    1.379   1_455 S
N853   Zn863   2.013   .     S
N854   Zn864   2.013   .     S
O855   Zn863   2.012   .     S
O856   Zn864   2.012   .     S
O857   Zn863   2.012   .     S
O858   Zn864   2.012   .     S
O859   Zn863   1.995   .     S
O860   Zn864   1.995   .     S
O861   Zn863   1.995   .     S
O862   Zn864   1.995   .     S
C865   O912    1.290   .     A
C865   O909    1.291   .     A
C865   C883    1.444   .     S
C866   C882    1.411   .     A
C866   Cl892   1.779   .     S
C866   C922    1.378   .     S
C867   Cl893   1.779   .     S
C867   C882    1.411   .     A
C867   C944    1.379   .     S
C868   C883    1.411   .     A
C868   Cl894   1.779   .     S
C869   C873    1.382   .     A
C869   Cl898   1.763   .     S
C869   C880    1.404   .     A
C870   C874    1.383   .     A
C870   C881    1.404   .     A
C870   Cl899   1.763   .     S
C871   Cl900   1.763   .     S
C871   C875    1.382   .     A
C871   C881    1.404   .     A
C872   C880    1.404   .     A
C872   Cl901   1.763   .     S
C872   C877    1.383   .     A
C873   C878    1.395   .     A
C873   H903    1.082   .     S
C874   H904    1.084   .     S
C874   C879    1.396   .     A
C875   H905    1.082   .     S
C875   C879    1.395   .     A
C876   O911    1.291   .     A
C876   O910    1.291   .     A
C876   C882    1.444   .     S
C877   C878    1.397   .     A
C877   H906    1.084   .     S
C878   C884    1.433   .     S
C879   C885    1.432   .     S
C881   C394    1.439   1_556 S
C883   C890    1.411   .     A
C884   O913    1.289   .     A
C884   O916    1.286   .     A
C885   O915    1.288   .     A
C885   O914    1.286   .     A
C886   Cl891   1.760   .     S
C886   N908    1.369   .     A
C887   N907    1.370   .     A
C887   Cl895   1.757   .     S
C887   C564    1.418   1_565 S
C888   Cl896   1.760   .     S
C888   N908    1.369   .     A
C889   N907    1.370   .     A
C889   Cl897   1.757   .     S
C889   C562    1.418   1_565 S
C890   Cl902   1.779   .     S
N907   Zn917   2.013   .     S
N908   Zn918   2.013   .     S
O909   Zn917   2.012   .     S
O910   Zn918   2.012   .     S
O911   Zn917   2.012   .     S
O912   Zn918   2.012   .     S
O913   Zn917   1.995   .     S
O914   Zn918   1.995   .     S
O915   Zn917   1.995   .     S
O916   Zn918   1.995   .     S
C919   O966    1.290   .     A
C919   O963    1.291   .     A
C919   C937    1.444   .     S
C920   C936    1.411   .     A
C920   Cl946   1.779   .     S
C920   C814    1.378   1_655 S
C921   Cl947   1.779   .     S
C921   C936    1.411   .     A
C921   C836    1.379   1_655 S
C922   C937    1.411   .     A
C922   Cl948   1.779   .     S
C923   C927    1.382   .     A
C923   Cl952   1.763   .     S
C923   C934    1.404   .     A
C924   C928    1.383   .     A
C924   C935    1.404   .     A
C924   Cl953   1.763   .     S
C925   Cl954   1.763   .     S
C925   C929    1.382   .     A
C925   C935    1.404   .     A
C926   C934    1.404   .     A
C926   Cl955   1.763   .     S
C926   C931    1.383   .     A
C927   C932    1.395   .     A
C927   H957    1.082   .     S
C928   H958    1.084   .     S
C928   C933    1.396   .     A
C929   H959    1.082   .     S
C929   C933    1.395   .     A
C930   O965    1.291   .     A
C930   O964    1.291   .     A
C930   C936    1.444   .     S
C931   C932    1.397   .     A
C931   H960    1.084   .     S
C932   C938    1.433   .     S
C933   C939    1.432   .     S
C935   C448    1.439   1_556 S
C937   C944    1.411   .     A
C938   O967    1.289   .     A
C938   O970    1.286   .     A
C939   O969    1.288   .     A
C939   O968    1.286   .     A
C940   Cl945   1.760   .     S
C940   N962    1.369   .     A
C941   N961    1.370   .     A
C941   Cl949   1.757   .     S
C941   C618    1.418   1_565 S
C942   Cl950   1.760   .     S
C942   N962    1.369   .     A
C943   N961    1.370   .     A
C943   Cl951   1.757   .     S
C943   C616    1.418   1_565 S
C944   Cl956   1.779   .     S
N961   Zn971   2.013   .     S
N962   Zn972   2.013   .     S
O963   Zn971   2.012   .     S
O964   Zn972   2.012   .     S
O965   Zn971   2.012   .     S
O966   Zn972   2.012   .     S
O967   Zn971   1.995   .     S
O968   Zn972   1.995   .     S
O969   Zn971   1.995   .     S
O970   Zn972   1.995   .     S
