data_str_m1_o1_o2_pcu_sym.27
_audit_creation_date              2020-01-03
_audit_creation_method            'Materials Studio'
_symmetry_space_group_name_H-M    'P1'
_symmetry_Int_Tables_number       1
_symmetry_cell_setting            triclinic
loop_
_symmetry_equiv_pos_as_xyz
  x,y,z
_cell_length_a                    36.6322
_cell_length_b                    36.6360
_cell_length_c                    34.5661
_cell_angle_alpha                 90.0220
_cell_angle_beta                  89.9708
_cell_angle_gamma                 89.9246
loop_
_atom_site_label
_atom_site_type_symbol
_atom_site_fract_x
_atom_site_fract_y
_atom_site_fract_z
_atom_site_U_iso_or_equiv
_atom_site_adp_type
_atom_site_occupancy
C1     C     0.21880   0.01107   0.04185   0.00000  Uiso   1.00
C2     C     0.03120   0.23893   0.45815   0.00000  Uiso   1.00
C3     C     0.34801   0.40197   0.74999   0.00000  Uiso   1.00
C4     C     0.40178   0.15195   0.24978   0.00000  Uiso   1.00
C5     C     0.09822   0.34805   0.75022   0.00000  Uiso   1.00
C6     C     0.34803   0.40200   0.24999   0.00000  Uiso   1.00
C7     C     0.15197   0.09801   0.75001   0.00000  Uiso   1.00
C8     C     0.09803   0.15199   0.74999   0.00000  Uiso   1.00
C9     C     0.40197   0.34800   0.25001   0.00000  Uiso   1.00
C10    C     0.15178   0.40195   0.74978   0.00000  Uiso   1.00
C11    C     0.34822   0.09805   0.25022   0.00000  Uiso   1.00
C12    C     0.40199   0.34803   0.75000   0.00000  Uiso   1.00
C13    C     0.23931   0.46867   0.54180   0.00000  Uiso   1.00
C14    C     0.09801   0.15197   0.24999   0.00000  Uiso   1.00
C15    C     0.34803   0.09803   0.75000   0.00000  Uiso   1.00
C16    C     0.15197   0.40197   0.25000   0.00000  Uiso   1.00
C17    C     0.25001   0.49998   0.10245   0.00000  Uiso   1.00
C18    C     0.24998  -0.00000   0.89757   0.00000  Uiso   1.00
C19    C     0.00002   0.24999   0.10245   0.00000  Uiso   1.00
C20    C     0.00001   0.25001   0.89757   0.00000  Uiso   1.00
C21    C     0.00002   0.25000   0.60243   0.00000  Uiso   1.00
C22    C     0.49999   0.25002   0.39755   0.00000  Uiso   1.00
C23    C     0.24999   0.49999   0.60243   0.00000  Uiso   1.00
C24    C     0.23883   0.03119   0.45819   0.00000  Uiso   1.00
C25    C     0.24998   0.00001   0.39755   0.00000  Uiso   1.00
C26    C     0.03134   0.26069   0.54180   0.00000  Uiso   1.00
C27    C     0.46881   0.26116   0.45819   0.00000  Uiso   1.00
C28    C     0.26062   0.03131   0.54181   0.00000  Uiso   1.00
C29    C     0.26107   0.46880   0.45815   0.00000  Uiso   1.00
C30    C     0.21873   0.01082   0.08210   0.00000  Uiso   1.00
C31    C     0.28139   0.01038   0.91793   0.00000  Uiso   1.00
C32    C     0.01089   0.21872   0.08206   0.00000  Uiso   1.00
C33    C     0.28132   0.01062   0.95818   0.00000  Uiso   1.00
C34    C     0.01041   0.28142   0.91794   0.00000  Uiso   1.00
C35    C     0.28129   0.48911   0.08206   0.00000  Uiso   1.00
C36    C     0.21858   0.48959   0.91795   0.00000  Uiso   1.00
C37    C     0.48918   0.28127   0.08210   0.00000  Uiso   1.00
C38    C     0.48962   0.21861   0.91794   0.00000  Uiso   1.00
C39    C     0.46861   0.23962   0.58207   0.00000  Uiso   1.00
C40    C     0.03127   0.23918   0.41790   0.00000  Uiso   1.00
C41    C     0.23959   0.46858   0.58206   0.00000  Uiso   1.00
C42    C     0.23911   0.03128   0.41794   0.00000  Uiso   1.00
C43    C     0.03142   0.26041   0.58205   0.00000  Uiso   1.00
C44    C     0.01117   0.21881   0.04181   0.00000  Uiso   1.00
C45    C     0.46871   0.26089   0.41794   0.00000  Uiso   1.00
C46    C     0.26038   0.03139   0.58206   0.00000  Uiso   1.00
C47    C     0.26082   0.46873   0.41790   0.00000  Uiso   1.00
C48    C     0.25000   0.49995   0.02133   0.00000  Uiso   1.00
C49    C     0.24999   0.49996   0.97869   0.00000  Uiso   1.00
C50    C     0.00005   0.25001   0.02133   0.00000  Uiso   1.00
C51    C     0.00004   0.25001   0.97869   0.00000  Uiso   1.00
C52    C     0.00001   0.25004   0.52131   0.00000  Uiso   1.00
C53    C     0.00001   0.25005   0.47867   0.00000  Uiso   1.00
C54    C     0.24996   0.49999   0.52131   0.00000  Uiso   1.00
C55    C     0.01069   0.28133   0.95820   0.00000  Uiso   1.00
C56    C     0.24995   0.49999   0.47867   0.00000  Uiso   1.00
C57    C     0.24999   0.00000   0.35522   0.00000  Uiso   1.00
C58    C     0.25000   0.49999   0.64478   0.00000  Uiso   1.00
C59    C     0.49999   0.25001   0.35522   0.00000  Uiso   1.00
C60    C     0.00001   0.25000   0.64478   0.00000  Uiso   1.00
C61    C    -0.00000   0.25001   0.85522   0.00000  Uiso   1.00
C62    C     0.00001   0.25000   0.14478   0.00000  Uiso   1.00
C63    C     0.24999   0.00000   0.85522   0.00000  Uiso   1.00
C64    C     0.25001   0.49999   0.14478   0.00000  Uiso   1.00
C65    C     0.18003   0.06998   0.25000   0.00000  Uiso   1.00
C66    C     0.28119   0.48884   0.04181   0.00000  Uiso   1.00
C67    C     0.31997   0.43002   0.75000   0.00000  Uiso   1.00
C68    C     0.42992   0.18000   0.24994   0.00000  Uiso   1.00
C69    C     0.07008   0.32000   0.75005   0.00000  Uiso   1.00
C70    C     0.31998   0.43003   0.24999   0.00000  Uiso   1.00
C71    C     0.18002   0.06997   0.75000   0.00000  Uiso   1.00
C72    C     0.06998   0.31998   0.25000   0.00000  Uiso   1.00
C73    C     0.43002   0.18002   0.75000   0.00000  Uiso   1.00
C74    C     0.17992   0.43000   0.74994   0.00000  Uiso   1.00
C75    C     0.32008   0.07000   0.25005   0.00000  Uiso   1.00
C76    C     0.43003   0.31998   0.75000   0.00000  Uiso   1.00
C77    C     0.21866   0.48931   0.95820   0.00000  Uiso   1.00
C78    C     0.06997   0.18002   0.25000   0.00000  Uiso   1.00
C79    C     0.31998   0.06998   0.75000   0.00000  Uiso   1.00
C80    C     0.18002   0.43002   0.25000   0.00000  Uiso   1.00
C81    C     0.06998   0.18003   0.74999   0.00000  Uiso   1.00
C82    C     0.43002   0.31997   0.25000   0.00000  Uiso   1.00
C83    C     0.14373   0.38313   0.21531   0.00000  Uiso   1.00
C84    C     0.38475   0.08839   0.74221   0.00000  Uiso   1.00
C85    C     0.11689   0.14374   0.21532   0.00000  Uiso   1.00
C86    C     0.38288   0.35603   0.78460   0.00000  Uiso   1.00
C87    C     0.38506   0.08790   0.24621   0.00000  Uiso   1.00
C88    C     0.48893   0.28120   0.04185   0.00000  Uiso   1.00
C89    C     0.11494   0.41210   0.75379   0.00000  Uiso   1.00
C90    C     0.38315   0.35624   0.21532   0.00000  Uiso   1.00
C91    C     0.11708   0.14399   0.78460   0.00000  Uiso   1.00
C92    C     0.14395   0.11710   0.78461   0.00000  Uiso   1.00
C93    C     0.35628   0.38313   0.21531   0.00000  Uiso   1.00
C94    C     0.08779   0.38490   0.75288   0.00000  Uiso   1.00
C95    C     0.41221   0.11510   0.24713   0.00000  Uiso   1.00
C96    C     0.35599   0.38290   0.78460   0.00000  Uiso   1.00
C97    C     0.14379   0.11687   0.21532   0.00000  Uiso   1.00
C98    C     0.41161   0.11525   0.74221   0.00000  Uiso   1.00
C99    C     0.48938   0.21869   0.95819   0.00000  Uiso   1.00
C100   C     0.11688   0.35627   0.21531   0.00000  Uiso   1.00
C101   C     0.36525   0.16161   0.75779   0.00000  Uiso   1.00
C102   C     0.10627   0.36687   0.28468   0.00000  Uiso   1.00
C103   C     0.36712   0.39397   0.71540   0.00000  Uiso   1.00
C104   C     0.13311   0.10626   0.28468   0.00000  Uiso   1.00
C105   C     0.13506   0.33790   0.74621   0.00000  Uiso   1.00
C106   C     0.36494   0.16210   0.25379   0.00000  Uiso   1.00
C107   C     0.13293   0.10601   0.71540   0.00000  Uiso   1.00
C108   C     0.36685   0.39376   0.28468   0.00000  Uiso   1.00
C109   C     0.39372   0.36687   0.28469   0.00000  Uiso   1.00
C110   C     0.46869   0.23938   0.54182   0.00000  Uiso   1.00
C111   C     0.10605   0.13291   0.71539   0.00000  Uiso   1.00
C112   C     0.33779   0.13491   0.25287   0.00000  Uiso   1.00
C113   C     0.16221   0.36510   0.74712   0.00000  Uiso   1.00
C114   C     0.10621   0.13313   0.28467   0.00000  Uiso   1.00
C115   C     0.39401   0.36710   0.71540   0.00000  Uiso   1.00
C116   C     0.13313   0.39373   0.28468   0.00000  Uiso   1.00
C117   C     0.33839   0.13475   0.75779   0.00000  Uiso   1.00
C118   C     0.09803   0.34803   0.25000   0.00000  Uiso   1.00
C119   C     0.40197   0.15197   0.75000   0.00000  Uiso   1.00
C120   C     0.15199   0.09803   0.25001   0.00000  Uiso   1.00
H121   H     0.19460   0.02040   0.02682   0.00000  Uiso   1.00
H122   H     0.05540   0.22960   0.47317   0.00000  Uiso   1.00
H123   H     0.23033   0.44436   0.52676   0.00000  Uiso   1.00
H124   H     0.22950   0.05538   0.47325   0.00000  Uiso   1.00
H125   H     0.05564   0.26967   0.52674   0.00000  Uiso   1.00
H126   H     0.44461   0.27050   0.47326   0.00000  Uiso   1.00
H127   H     0.26959   0.05562   0.52677   0.00000  Uiso   1.00
H128   H     0.27040   0.44461   0.47318   0.00000  Uiso   1.00
H129   H     0.19438   0.01961   0.09729   0.00000  Uiso   1.00
H130   H     0.30585   0.01881   0.90276   0.00000  Uiso   1.00
H131   H     0.01968   0.19438   0.09722   0.00000  Uiso   1.00
H132   H     0.30562   0.01959   0.97322   0.00000  Uiso   1.00
H133   H     0.01882   0.30587   0.90278   0.00000  Uiso   1.00
H134   H     0.30563   0.48033   0.09722   0.00000  Uiso   1.00
H135   H     0.19412   0.48118   0.90279   0.00000  Uiso   1.00
H136   H     0.48039   0.30562   0.09729   0.00000  Uiso   1.00
H137   H     0.48119   0.19415   0.90277   0.00000  Uiso   1.00
H138   H     0.44415   0.23119   0.59724   0.00000  Uiso   1.00
H139   H     0.05562   0.23039   0.40271   0.00000  Uiso   1.00
H140   H     0.23118   0.44413   0.59722   0.00000  Uiso   1.00
H141   H     0.23032   0.05562   0.40277   0.00000  Uiso   1.00
H142   H     0.05588   0.26882   0.59721   0.00000  Uiso   1.00
H143   H     0.02051   0.19462   0.02675   0.00000  Uiso   1.00
H144   H     0.44437   0.26967   0.40278   0.00000  Uiso   1.00
H145   H     0.26881   0.05585   0.59723   0.00000  Uiso   1.00
H146   H     0.26962   0.44438   0.40271   0.00000  Uiso   1.00
H147   H     0.18546   0.40161   0.18569   0.00000  Uiso   1.00
H148   H     0.37448   0.03846   0.72494   0.00000  Uiso   1.00
H149   H     0.09836   0.18548   0.18571   0.00000  Uiso   1.00
H150   H     0.40136   0.31417   0.81406   0.00000  Uiso   1.00
H151   H     0.41607   0.04936   0.22584   0.00000  Uiso   1.00
H152   H     0.08393   0.45064   0.77417   0.00000  Uiso   1.00
H153   H     0.40165   0.31444   0.18573   0.00000  Uiso   1.00
H154   H     0.01967   0.30564   0.97324   0.00000  Uiso   1.00
H155   H     0.09857   0.18587   0.81407   0.00000  Uiso   1.00
H156   H     0.18580   0.09860   0.81408   0.00000  Uiso   1.00
H157   H     0.31455   0.40167   0.18569   0.00000  Uiso   1.00
H158   H     0.04763   0.41770   0.74046   0.00000  Uiso   1.00
H159   H     0.45237   0.08230   0.25955   0.00000  Uiso   1.00
H160   H     0.31410   0.40141   0.81406   0.00000  Uiso   1.00
H161   H     0.18559   0.09837   0.18575   0.00000  Uiso   1.00
H162   H     0.46155   0.12553   0.72494   0.00000  Uiso   1.00
H163   H     0.09841   0.31455   0.18569   0.00000  Uiso   1.00
H164   H     0.37552   0.21154   0.77506   0.00000  Uiso   1.00
H165   H     0.30539   0.47950   0.02674   0.00000  Uiso   1.00
H166   H     0.06454   0.34839   0.31431   0.00000  Uiso   1.00
H167   H     0.34864   0.43583   0.68594   0.00000  Uiso   1.00
H168   H     0.15164   0.06452   0.31429   0.00000  Uiso   1.00
H169   H     0.16607   0.29936   0.72583   0.00000  Uiso   1.00
H170   H     0.33393   0.20064   0.27416   0.00000  Uiso   1.00
H171   H     0.15143   0.06413   0.68593   0.00000  Uiso   1.00
H172   H     0.34835   0.43556   0.31426   0.00000  Uiso   1.00
H173   H     0.43545   0.34833   0.31431   0.00000  Uiso   1.00
H174   H     0.06421   0.15140   0.68591   0.00000  Uiso   1.00
H175   H     0.29763   0.16770   0.24045   0.00000  Uiso   1.00
H176   H     0.19436   0.48033   0.97325   0.00000  Uiso   1.00
H177   H     0.20237   0.33230   0.75954   0.00000  Uiso   1.00
H178   H     0.06441   0.15163   0.31425   0.00000  Uiso   1.00
H179   H     0.43590   0.34859   0.68594   0.00000  Uiso   1.00
H180   H     0.15159   0.43545   0.31430   0.00000  Uiso   1.00
H181   H     0.28845   0.12447   0.77506   0.00000  Uiso   1.00
H182   H     0.47960   0.30539   0.02682   0.00000  Uiso   1.00
H183   H     0.48041   0.19438   0.97323   0.00000  Uiso   1.00
H184   H     0.44438   0.23041   0.52678   0.00000  Uiso   1.00
O185   O     0.25000   0.00000   0.25000   0.00000  Uiso   1.00
O186   O     0.25000   0.46964   0.66317   0.00000  Uiso   1.00
O187   O     0.46964   0.25000   0.33683   0.00000  Uiso   1.00
O188   O     0.03036   0.25000   0.66317   0.00000  Uiso   1.00
O189   O     0.00000   0.21964   0.83683   0.00000  Uiso   1.00
O190   O     0.00000   0.28036   0.16317   0.00000  Uiso   1.00
O191   O     0.28036   0.00000   0.83683   0.00000  Uiso   1.00
O192   O     0.21964   0.00000   0.16317   0.00000  Uiso   1.00
O193   O     0.00000   0.28036   0.83683   0.00000  Uiso   1.00
O194   O     0.00000   0.21964   0.16317   0.00000  Uiso   1.00
O195   O     0.21964   0.00000   0.83683   0.00000  Uiso   1.00
O196   O     0.25000   0.00000   0.75000   0.00000  Uiso   1.00
O197   O     0.28036   0.00000   0.16317   0.00000  Uiso   1.00
O198   O     0.20726   0.07307   0.27282   0.00000  Uiso   1.00
O199   O     0.29275   0.42693   0.72718   0.00000  Uiso   1.00
O200   O     0.42693   0.20726   0.27282   0.00000  Uiso   1.00
O201   O     0.07307   0.29275   0.72718   0.00000  Uiso   1.00
O202   O     0.29275   0.42693   0.27282   0.00000  Uiso   1.00
O203   O     0.20726   0.07307   0.72718   0.00000  Uiso   1.00
O204   O     0.07307   0.29275   0.27282   0.00000  Uiso   1.00
O205   O     0.42693   0.20726   0.72718   0.00000  Uiso   1.00
O206   O     0.20726   0.42693   0.72718   0.00000  Uiso   1.00
O207   O     0.00000   0.25000   0.25000   0.00000  Uiso   1.00
O208   O     0.29275   0.07307   0.27282   0.00000  Uiso   1.00
O209   O     0.42693   0.29275   0.72718   0.00000  Uiso   1.00
O210   O     0.07307   0.20726   0.27282   0.00000  Uiso   1.00
O211   O     0.29275   0.07307   0.72718   0.00000  Uiso   1.00
O212   O     0.20726   0.42693   0.27282   0.00000  Uiso   1.00
O213   O     0.07307   0.20726   0.72718   0.00000  Uiso   1.00
O214   O     0.42693   0.29275   0.27282   0.00000  Uiso   1.00
O215   O     0.45726   0.32307   0.77282   0.00000  Uiso   1.00
O216   O     0.04275   0.17693   0.22718   0.00000  Uiso   1.00
O217   O     0.17693   0.45726   0.77282   0.00000  Uiso   1.00
O218   O     0.00000   0.25000   0.75000   0.00000  Uiso   1.00
O219   O     0.32307   0.04275   0.22718   0.00000  Uiso   1.00
O220   O     0.04275   0.17693   0.77282   0.00000  Uiso   1.00
O221   O     0.45726   0.32307   0.22718   0.00000  Uiso   1.00
O222   O     0.32307   0.04275   0.77282   0.00000  Uiso   1.00
O223   O     0.17693   0.45726   0.22718   0.00000  Uiso   1.00
O224   O     0.45726   0.17693   0.22718   0.00000  Uiso   1.00
O225   O     0.04275   0.32307   0.77282   0.00000  Uiso   1.00
O226   O     0.17693   0.04275   0.22718   0.00000  Uiso   1.00
O227   O     0.32307   0.45726   0.77282   0.00000  Uiso   1.00
O228   O     0.04275   0.32307   0.22718   0.00000  Uiso   1.00
O229   O     0.25000   0.46964   0.33683   0.00000  Uiso   1.00
O230   O     0.45726   0.17693   0.77282   0.00000  Uiso   1.00
O231   O     0.32307   0.45726   0.22718   0.00000  Uiso   1.00
O232   O     0.17693   0.04275   0.77282   0.00000  Uiso   1.00
O233   O     0.16201   0.38911   0.18083   0.00000  Uiso   1.00
O234   O     0.39568   0.05322   0.73315   0.00000  Uiso   1.00
O235   O     0.11092   0.16203   0.18084   0.00000  Uiso   1.00
O236   O     0.38863   0.33752   0.81899   0.00000  Uiso   1.00
O237   O     0.39364   0.05139   0.24172   0.00000  Uiso   1.00
O238   O     0.10636   0.44861   0.75829   0.00000  Uiso   1.00
O239   O     0.38917   0.33792   0.18085   0.00000  Uiso   1.00
O240   O     0.25000   0.03036   0.66317   0.00000  Uiso   1.00
O241   O     0.11127   0.16251   0.81899   0.00000  Uiso   1.00
O242   O     0.16244   0.11132   0.81900   0.00000  Uiso   1.00
O243   O     0.33802   0.38913   0.18082   0.00000  Uiso   1.00
O244   O     0.05100   0.39343   0.75255   0.00000  Uiso   1.00
O245   O     0.44900   0.10657   0.24745   0.00000  Uiso   1.00
O246   O     0.33745   0.38869   0.81898   0.00000  Uiso   1.00
O247   O     0.16212   0.11088   0.18086   0.00000  Uiso   1.00
O248   O     0.44679   0.10433   0.73315   0.00000  Uiso   1.00
O249   O     0.11090   0.33800   0.18083   0.00000  Uiso   1.00
O250   O     0.35432   0.19678   0.76685   0.00000  Uiso   1.00
O251   O     0.03036   0.25000   0.33683   0.00000  Uiso   1.00
O252   O     0.08799   0.36089   0.31917   0.00000  Uiso   1.00
O253   O     0.36137   0.41248   0.68101   0.00000  Uiso   1.00
O254   O     0.13908   0.08797   0.31916   0.00000  Uiso   1.00
O255   O     0.14364   0.30139   0.74171   0.00000  Uiso   1.00
O256   O     0.35636   0.19861   0.25828   0.00000  Uiso   1.00
O257   O     0.13873   0.08749   0.68100   0.00000  Uiso   1.00
O258   O     0.36083   0.41208   0.31915   0.00000  Uiso   1.00
O259   O     0.41198   0.36087   0.31917   0.00000  Uiso   1.00
O260   O     0.08756   0.13869   0.68100   0.00000  Uiso   1.00
O261   O     0.30100   0.14343   0.25254   0.00000  Uiso   1.00
O262   O     0.46964   0.25000   0.66317   0.00000  Uiso   1.00
O263   O     0.19900   0.35657   0.74745   0.00000  Uiso   1.00
O264   O     0.08788   0.13913   0.31914   0.00000  Uiso   1.00
O265   O     0.41255   0.36131   0.68102   0.00000  Uiso   1.00
O266   O     0.13910   0.41200   0.31917   0.00000  Uiso   1.00
O267   O     0.30321   0.14567   0.76685   0.00000  Uiso   1.00
O268   O     0.25000   0.03036   0.33683   0.00000  Uiso   1.00
Zn269  Zn    0.20660   0.00000   0.21760   0.00000  Uiso   1.00
Zn270  Zn    0.04340   0.25000   0.28240   0.00000  Uiso   1.00
Zn271  Zn    0.25000   0.45660   0.71760   0.00000  Uiso   1.00
Zn272  Zn    0.25000   0.04340   0.28240   0.00000  Uiso   1.00
Zn273  Zn    0.04340   0.25000   0.71760   0.00000  Uiso   1.00
Zn274  Zn    0.45660   0.25000   0.28240   0.00000  Uiso   1.00
Zn275  Zn    0.25000   0.04340   0.71760   0.00000  Uiso   1.00
Zn276  Zn    0.25000   0.45660   0.28240   0.00000  Uiso   1.00
Zn277  Zn    0.29340   0.00000   0.78240   0.00000  Uiso   1.00
Zn278  Zn    0.00000   0.20660   0.21760   0.00000  Uiso   1.00
Zn279  Zn    0.00000   0.29340   0.78240   0.00000  Uiso   1.00
Zn280  Zn    0.29340   0.00000   0.21760   0.00000  Uiso   1.00
Zn281  Zn    0.20660   0.00000   0.78240   0.00000  Uiso   1.00
Zn282  Zn    0.00000   0.29340   0.21760   0.00000  Uiso   1.00
Zn283  Zn    0.00000   0.20660   0.78240   0.00000  Uiso   1.00
Zn284  Zn    0.45660   0.25000   0.71760   0.00000  Uiso   1.00
C285   C     0.71880   0.01107   0.04185   0.00000  Uiso   1.00
C286   C     0.53120   0.23893   0.45815   0.00000  Uiso   1.00
C287   C     0.84801   0.40197   0.74999   0.00000  Uiso   1.00
C288   C     0.90178   0.15195   0.24978   0.00000  Uiso   1.00
C289   C     0.59822   0.34805   0.75022   0.00000  Uiso   1.00
C290   C     0.84803   0.40200   0.24999   0.00000  Uiso   1.00
C291   C     0.65197   0.09801   0.75001   0.00000  Uiso   1.00
C292   C     0.59803   0.15199   0.74999   0.00000  Uiso   1.00
C293   C     0.90197   0.34800   0.25001   0.00000  Uiso   1.00
C294   C     0.65178   0.40195   0.74978   0.00000  Uiso   1.00
C295   C     0.84822   0.09805   0.25022   0.00000  Uiso   1.00
C296   C     0.90199   0.34803   0.75000   0.00000  Uiso   1.00
C297   C     0.73931   0.46867   0.54180   0.00000  Uiso   1.00
C298   C     0.59801   0.15197   0.24999   0.00000  Uiso   1.00
C299   C     0.84803   0.09803   0.75000   0.00000  Uiso   1.00
C300   C     0.65197   0.40197   0.25000   0.00000  Uiso   1.00
C301   C     0.75001   0.49998   0.10245   0.00000  Uiso   1.00
C302   C     0.74998  -0.00000   0.89757   0.00000  Uiso   1.00
C303   C     0.50002   0.24999   0.10245   0.00000  Uiso   1.00
C304   C     0.50001   0.25001   0.89757   0.00000  Uiso   1.00
C305   C     0.50002   0.25000   0.60243   0.00000  Uiso   1.00
C306   C     0.99999   0.25002   0.39755   0.00000  Uiso   1.00
C307   C     0.74999   0.49999   0.60243   0.00000  Uiso   1.00
C308   C     0.73883   0.03119   0.45819   0.00000  Uiso   1.00
C309   C     0.74998   0.00001   0.39755   0.00000  Uiso   1.00
C310   C     0.53134   0.26069   0.54180   0.00000  Uiso   1.00
C311   C     0.96881   0.26116   0.45819   0.00000  Uiso   1.00
C312   C     0.76062   0.03131   0.54181   0.00000  Uiso   1.00
C313   C     0.76107   0.46880   0.45815   0.00000  Uiso   1.00
C314   C     0.71873   0.01082   0.08210   0.00000  Uiso   1.00
C315   C     0.78139   0.01038   0.91793   0.00000  Uiso   1.00
C316   C     0.51089   0.21872   0.08206   0.00000  Uiso   1.00
C317   C     0.78132   0.01062   0.95818   0.00000  Uiso   1.00
C318   C     0.51041   0.28142   0.91794   0.00000  Uiso   1.00
C319   C     0.78129   0.48911   0.08206   0.00000  Uiso   1.00
C320   C     0.71858   0.48959   0.91795   0.00000  Uiso   1.00
C321   C     0.98918   0.28127   0.08210   0.00000  Uiso   1.00
C322   C     0.98962   0.21861   0.91794   0.00000  Uiso   1.00
C323   C     0.96861   0.23962   0.58207   0.00000  Uiso   1.00
C324   C     0.53127   0.23918   0.41790   0.00000  Uiso   1.00
C325   C     0.73959   0.46858   0.58206   0.00000  Uiso   1.00
C326   C     0.73911   0.03128   0.41794   0.00000  Uiso   1.00
C327   C     0.53142   0.26041   0.58205   0.00000  Uiso   1.00
C328   C     0.51117   0.21881   0.04181   0.00000  Uiso   1.00
C329   C     0.96871   0.26089   0.41794   0.00000  Uiso   1.00
C330   C     0.76038   0.03139   0.58206   0.00000  Uiso   1.00
C331   C     0.76082   0.46873   0.41790   0.00000  Uiso   1.00
C332   C     0.75000   0.49995   0.02133   0.00000  Uiso   1.00
C333   C     0.74999   0.49996   0.97869   0.00000  Uiso   1.00
C334   C     0.50005   0.25001   0.02133   0.00000  Uiso   1.00
C335   C     0.50004   0.25001   0.97869   0.00000  Uiso   1.00
C336   C     0.50001   0.25004   0.52131   0.00000  Uiso   1.00
C337   C     0.50001   0.25005   0.47867   0.00000  Uiso   1.00
C338   C     0.74996   0.49999   0.52131   0.00000  Uiso   1.00
C339   C     0.51069   0.28133   0.95820   0.00000  Uiso   1.00
C340   C     0.74995   0.49999   0.47867   0.00000  Uiso   1.00
C341   C     0.74999   0.00000   0.35522   0.00000  Uiso   1.00
C342   C     0.75000   0.49999   0.64478   0.00000  Uiso   1.00
C343   C     0.99999   0.25001   0.35522   0.00000  Uiso   1.00
C344   C     0.50001   0.25000   0.64478   0.00000  Uiso   1.00
C345   C     0.50000   0.25001   0.85522   0.00000  Uiso   1.00
C346   C     0.50001   0.25000   0.14478   0.00000  Uiso   1.00
C347   C     0.74999   0.00000   0.85522   0.00000  Uiso   1.00
C348   C     0.75001   0.49999   0.14478   0.00000  Uiso   1.00
C349   C     0.68003   0.06998   0.25000   0.00000  Uiso   1.00
C350   C     0.78119   0.48884   0.04181   0.00000  Uiso   1.00
C351   C     0.81997   0.43002   0.75000   0.00000  Uiso   1.00
C352   C     0.92992   0.18000   0.24994   0.00000  Uiso   1.00
C353   C     0.57008   0.32000   0.75005   0.00000  Uiso   1.00
C354   C     0.81998   0.43003   0.24999   0.00000  Uiso   1.00
C355   C     0.68002   0.06997   0.75000   0.00000  Uiso   1.00
C356   C     0.56998   0.31998   0.25000   0.00000  Uiso   1.00
C357   C     0.93002   0.18002   0.75000   0.00000  Uiso   1.00
C358   C     0.67992   0.43000   0.74994   0.00000  Uiso   1.00
C359   C     0.82008   0.07000   0.25005   0.00000  Uiso   1.00
C360   C     0.93003   0.31998   0.75000   0.00000  Uiso   1.00
C361   C     0.71866   0.48931   0.95820   0.00000  Uiso   1.00
C362   C     0.56997   0.18002   0.25000   0.00000  Uiso   1.00
C363   C     0.81998   0.06998   0.75000   0.00000  Uiso   1.00
C364   C     0.68002   0.43002   0.25000   0.00000  Uiso   1.00
C365   C     0.56998   0.18003   0.74999   0.00000  Uiso   1.00
C366   C     0.93002   0.31997   0.25000   0.00000  Uiso   1.00
C367   C     0.64373   0.38313   0.21531   0.00000  Uiso   1.00
C368   C     0.88475   0.08839   0.74221   0.00000  Uiso   1.00
C369   C     0.61689   0.14374   0.21532   0.00000  Uiso   1.00
C370   C     0.88288   0.35603   0.78460   0.00000  Uiso   1.00
C371   C     0.88506   0.08790   0.24621   0.00000  Uiso   1.00
C372   C     0.98893   0.28120   0.04185   0.00000  Uiso   1.00
C373   C     0.61494   0.41210   0.75379   0.00000  Uiso   1.00
C374   C     0.88315   0.35624   0.21532   0.00000  Uiso   1.00
C375   C     0.61708   0.14399   0.78460   0.00000  Uiso   1.00
C376   C     0.64395   0.11710   0.78461   0.00000  Uiso   1.00
C377   C     0.85628   0.38313   0.21531   0.00000  Uiso   1.00
C378   C     0.58779   0.38490   0.75288   0.00000  Uiso   1.00
C379   C     0.91221   0.11510   0.24713   0.00000  Uiso   1.00
C380   C     0.85599   0.38290   0.78460   0.00000  Uiso   1.00
C381   C     0.64379   0.11687   0.21532   0.00000  Uiso   1.00
C382   C     0.91161   0.11525   0.74221   0.00000  Uiso   1.00
C383   C     0.98938   0.21869   0.95819   0.00000  Uiso   1.00
C384   C     0.61688   0.35627   0.21531   0.00000  Uiso   1.00
C385   C     0.86525   0.16161   0.75779   0.00000  Uiso   1.00
C386   C     0.60627   0.36687   0.28468   0.00000  Uiso   1.00
C387   C     0.86712   0.39397   0.71540   0.00000  Uiso   1.00
C388   C     0.63311   0.10626   0.28468   0.00000  Uiso   1.00
C389   C     0.63506   0.33790   0.74621   0.00000  Uiso   1.00
C390   C     0.86494   0.16210   0.25379   0.00000  Uiso   1.00
C391   C     0.63293   0.10601   0.71540   0.00000  Uiso   1.00
C392   C     0.86685   0.39376   0.28468   0.00000  Uiso   1.00
C393   C     0.89372   0.36687   0.28469   0.00000  Uiso   1.00
C394   C     0.96869   0.23938   0.54182   0.00000  Uiso   1.00
C395   C     0.60605   0.13291   0.71539   0.00000  Uiso   1.00
C396   C     0.83779   0.13491   0.25287   0.00000  Uiso   1.00
C397   C     0.66221   0.36510   0.74712   0.00000  Uiso   1.00
C398   C     0.60621   0.13313   0.28467   0.00000  Uiso   1.00
C399   C     0.89401   0.36710   0.71540   0.00000  Uiso   1.00
C400   C     0.63313   0.39373   0.28468   0.00000  Uiso   1.00
C401   C     0.83839   0.13475   0.75779   0.00000  Uiso   1.00
C402   C     0.59803   0.34803   0.25000   0.00000  Uiso   1.00
C403   C     0.90197   0.15197   0.75000   0.00000  Uiso   1.00
C404   C     0.65199   0.09803   0.25001   0.00000  Uiso   1.00
H405   H     0.69460   0.02040   0.02682   0.00000  Uiso   1.00
H406   H     0.55540   0.22960   0.47317   0.00000  Uiso   1.00
H407   H     0.73033   0.44436   0.52676   0.00000  Uiso   1.00
H408   H     0.72950   0.05538   0.47325   0.00000  Uiso   1.00
H409   H     0.55564   0.26967   0.52674   0.00000  Uiso   1.00
H410   H     0.94461   0.27050   0.47326   0.00000  Uiso   1.00
H411   H     0.76959   0.05562   0.52677   0.00000  Uiso   1.00
H412   H     0.77040   0.44461   0.47318   0.00000  Uiso   1.00
H413   H     0.69438   0.01961   0.09729   0.00000  Uiso   1.00
H414   H     0.80585   0.01881   0.90276   0.00000  Uiso   1.00
H415   H     0.51968   0.19438   0.09722   0.00000  Uiso   1.00
H416   H     0.80562   0.01959   0.97322   0.00000  Uiso   1.00
H417   H     0.51882   0.30587   0.90278   0.00000  Uiso   1.00
H418   H     0.80563   0.48033   0.09722   0.00000  Uiso   1.00
H419   H     0.69412   0.48118   0.90279   0.00000  Uiso   1.00
H420   H     0.98039   0.30562   0.09729   0.00000  Uiso   1.00
H421   H     0.98119   0.19415   0.90277   0.00000  Uiso   1.00
H422   H     0.94415   0.23119   0.59724   0.00000  Uiso   1.00
H423   H     0.55562   0.23039   0.40271   0.00000  Uiso   1.00
H424   H     0.73118   0.44413   0.59722   0.00000  Uiso   1.00
H425   H     0.73032   0.05562   0.40277   0.00000  Uiso   1.00
H426   H     0.55588   0.26882   0.59721   0.00000  Uiso   1.00
H427   H     0.52051   0.19462   0.02675   0.00000  Uiso   1.00
H428   H     0.94437   0.26967   0.40278   0.00000  Uiso   1.00
H429   H     0.76881   0.05585   0.59723   0.00000  Uiso   1.00
H430   H     0.76962   0.44438   0.40271   0.00000  Uiso   1.00
H431   H     0.68546   0.40161   0.18569   0.00000  Uiso   1.00
H432   H     0.87448   0.03846   0.72494   0.00000  Uiso   1.00
H433   H     0.59836   0.18548   0.18571   0.00000  Uiso   1.00
H434   H     0.90136   0.31417   0.81406   0.00000  Uiso   1.00
H435   H     0.91607   0.04936   0.22584   0.00000  Uiso   1.00
H436   H     0.58393   0.45064   0.77417   0.00000  Uiso   1.00
H437   H     0.90165   0.31444   0.18573   0.00000  Uiso   1.00
H438   H     0.51967   0.30564   0.97324   0.00000  Uiso   1.00
H439   H     0.59857   0.18587   0.81407   0.00000  Uiso   1.00
H440   H     0.68580   0.09860   0.81408   0.00000  Uiso   1.00
H441   H     0.81455   0.40167   0.18569   0.00000  Uiso   1.00
H442   H     0.54763   0.41770   0.74046   0.00000  Uiso   1.00
H443   H     0.95237   0.08230   0.25955   0.00000  Uiso   1.00
H444   H     0.81410   0.40141   0.81406   0.00000  Uiso   1.00
H445   H     0.68559   0.09837   0.18575   0.00000  Uiso   1.00
H446   H     0.96155   0.12553   0.72494   0.00000  Uiso   1.00
H447   H     0.59841   0.31455   0.18569   0.00000  Uiso   1.00
H448   H     0.87552   0.21154   0.77506   0.00000  Uiso   1.00
H449   H     0.80539   0.47950   0.02674   0.00000  Uiso   1.00
H450   H     0.56454   0.34839   0.31431   0.00000  Uiso   1.00
H451   H     0.84864   0.43583   0.68594   0.00000  Uiso   1.00
H452   H     0.65164   0.06452   0.31429   0.00000  Uiso   1.00
H453   H     0.66607   0.29936   0.72583   0.00000  Uiso   1.00
H454   H     0.83393   0.20064   0.27416   0.00000  Uiso   1.00
H455   H     0.65143   0.06413   0.68593   0.00000  Uiso   1.00
H456   H     0.84835   0.43556   0.31426   0.00000  Uiso   1.00
H457   H     0.93545   0.34833   0.31431   0.00000  Uiso   1.00
H458   H     0.56421   0.15140   0.68591   0.00000  Uiso   1.00
H459   H     0.79763   0.16770   0.24045   0.00000  Uiso   1.00
H460   H     0.69436   0.48033   0.97325   0.00000  Uiso   1.00
H461   H     0.70237   0.33230   0.75954   0.00000  Uiso   1.00
H462   H     0.56441   0.15163   0.31425   0.00000  Uiso   1.00
H463   H     0.93590   0.34859   0.68594   0.00000  Uiso   1.00
H464   H     0.65159   0.43545   0.31430   0.00000  Uiso   1.00
H465   H     0.78845   0.12447   0.77506   0.00000  Uiso   1.00
H466   H     0.97960   0.30539   0.02682   0.00000  Uiso   1.00
H467   H     0.98041   0.19438   0.97323   0.00000  Uiso   1.00
H468   H     0.94438   0.23041   0.52678   0.00000  Uiso   1.00
O469   O     0.75000   0.00000   0.25000   0.00000  Uiso   1.00
O470   O     0.75000   0.46964   0.66317   0.00000  Uiso   1.00
O471   O     0.96964   0.25000   0.33683   0.00000  Uiso   1.00
O472   O     0.53036   0.25000   0.66317   0.00000  Uiso   1.00
O473   O     0.50000   0.21964   0.83683   0.00000  Uiso   1.00
O474   O     0.50000   0.28036   0.16317   0.00000  Uiso   1.00
O475   O     0.78036   0.00000   0.83683   0.00000  Uiso   1.00
O476   O     0.71964   0.00000   0.16317   0.00000  Uiso   1.00
O477   O     0.50000   0.28036   0.83683   0.00000  Uiso   1.00
O478   O     0.50000   0.21964   0.16317   0.00000  Uiso   1.00
O479   O     0.71964   0.00000   0.83683   0.00000  Uiso   1.00
O480   O     0.75000   0.00000   0.75000   0.00000  Uiso   1.00
O481   O     0.78036   0.00000   0.16317   0.00000  Uiso   1.00
O482   O     0.70726   0.07307   0.27282   0.00000  Uiso   1.00
O483   O     0.79275   0.42693   0.72718   0.00000  Uiso   1.00
O484   O     0.92693   0.20726   0.27282   0.00000  Uiso   1.00
O485   O     0.57307   0.29275   0.72718   0.00000  Uiso   1.00
O486   O     0.79275   0.42693   0.27282   0.00000  Uiso   1.00
O487   O     0.70726   0.07307   0.72718   0.00000  Uiso   1.00
O488   O     0.57307   0.29275   0.27282   0.00000  Uiso   1.00
O489   O     0.92693   0.20726   0.72718   0.00000  Uiso   1.00
O490   O     0.70726   0.42693   0.72718   0.00000  Uiso   1.00
O491   O     0.50000   0.25000   0.25000   0.00000  Uiso   1.00
O492   O     0.79275   0.07307   0.27282   0.00000  Uiso   1.00
O493   O     0.92693   0.29275   0.72718   0.00000  Uiso   1.00
O494   O     0.57307   0.20726   0.27282   0.00000  Uiso   1.00
O495   O     0.79275   0.07307   0.72718   0.00000  Uiso   1.00
O496   O     0.70726   0.42693   0.27282   0.00000  Uiso   1.00
O497   O     0.57307   0.20726   0.72718   0.00000  Uiso   1.00
O498   O     0.92693   0.29275   0.27282   0.00000  Uiso   1.00
O499   O     0.95726   0.32307   0.77282   0.00000  Uiso   1.00
O500   O     0.54275   0.17693   0.22718   0.00000  Uiso   1.00
O501   O     0.67693   0.45726   0.77282   0.00000  Uiso   1.00
O502   O     0.50000   0.25000   0.75000   0.00000  Uiso   1.00
O503   O     0.82307   0.04275   0.22718   0.00000  Uiso   1.00
O504   O     0.54275   0.17693   0.77282   0.00000  Uiso   1.00
O505   O     0.95726   0.32307   0.22718   0.00000  Uiso   1.00
O506   O     0.82307   0.04275   0.77282   0.00000  Uiso   1.00
O507   O     0.67693   0.45726   0.22718   0.00000  Uiso   1.00
O508   O     0.95726   0.17693   0.22718   0.00000  Uiso   1.00
O509   O     0.54275   0.32307   0.77282   0.00000  Uiso   1.00
O510   O     0.67693   0.04275   0.22718   0.00000  Uiso   1.00
O511   O     0.82307   0.45726   0.77282   0.00000  Uiso   1.00
O512   O     0.54275   0.32307   0.22718   0.00000  Uiso   1.00
O513   O     0.75000   0.46964   0.33683   0.00000  Uiso   1.00
O514   O     0.95726   0.17693   0.77282   0.00000  Uiso   1.00
O515   O     0.82307   0.45726   0.22718   0.00000  Uiso   1.00
O516   O     0.67693   0.04275   0.77282   0.00000  Uiso   1.00
O517   O     0.66201   0.38911   0.18083   0.00000  Uiso   1.00
O518   O     0.89568   0.05322   0.73315   0.00000  Uiso   1.00
O519   O     0.61092   0.16203   0.18084   0.00000  Uiso   1.00
O520   O     0.88863   0.33752   0.81899   0.00000  Uiso   1.00
O521   O     0.89364   0.05139   0.24172   0.00000  Uiso   1.00
O522   O     0.60636   0.44861   0.75829   0.00000  Uiso   1.00
O523   O     0.88917   0.33792   0.18085   0.00000  Uiso   1.00
O524   O     0.75000   0.03036   0.66317   0.00000  Uiso   1.00
O525   O     0.61127   0.16251   0.81899   0.00000  Uiso   1.00
O526   O     0.66244   0.11132   0.81900   0.00000  Uiso   1.00
O527   O     0.83802   0.38913   0.18082   0.00000  Uiso   1.00
O528   O     0.55100   0.39343   0.75255   0.00000  Uiso   1.00
O529   O     0.94900   0.10657   0.24745   0.00000  Uiso   1.00
O530   O     0.83745   0.38869   0.81898   0.00000  Uiso   1.00
O531   O     0.66212   0.11088   0.18086   0.00000  Uiso   1.00
O532   O     0.94679   0.10433   0.73315   0.00000  Uiso   1.00
O533   O     0.61090   0.33800   0.18083   0.00000  Uiso   1.00
O534   O     0.85432   0.19678   0.76685   0.00000  Uiso   1.00
O535   O     0.53036   0.25000   0.33683   0.00000  Uiso   1.00
O536   O     0.58799   0.36089   0.31917   0.00000  Uiso   1.00
O537   O     0.86137   0.41248   0.68101   0.00000  Uiso   1.00
O538   O     0.63908   0.08797   0.31916   0.00000  Uiso   1.00
O539   O     0.64364   0.30139   0.74171   0.00000  Uiso   1.00
O540   O     0.85636   0.19861   0.25828   0.00000  Uiso   1.00
O541   O     0.63873   0.08749   0.68100   0.00000  Uiso   1.00
O542   O     0.86083   0.41208   0.31915   0.00000  Uiso   1.00
O543   O     0.91198   0.36087   0.31917   0.00000  Uiso   1.00
O544   O     0.58756   0.13869   0.68100   0.00000  Uiso   1.00
O545   O     0.80100   0.14343   0.25254   0.00000  Uiso   1.00
O546   O     0.96964   0.25000   0.66317   0.00000  Uiso   1.00
O547   O     0.69900   0.35657   0.74745   0.00000  Uiso   1.00
O548   O     0.58788   0.13913   0.31914   0.00000  Uiso   1.00
O549   O     0.91255   0.36131   0.68102   0.00000  Uiso   1.00
O550   O     0.63910   0.41200   0.31917   0.00000  Uiso   1.00
O551   O     0.80321   0.14567   0.76685   0.00000  Uiso   1.00
O552   O     0.75000   0.03036   0.33683   0.00000  Uiso   1.00
Zn553  Zn    0.70660   0.00000   0.21760   0.00000  Uiso   1.00
Zn554  Zn    0.54340   0.25000   0.28240   0.00000  Uiso   1.00
Zn555  Zn    0.75000   0.45660   0.71760   0.00000  Uiso   1.00
Zn556  Zn    0.75000   0.04340   0.28240   0.00000  Uiso   1.00
Zn557  Zn    0.54340   0.25000   0.71760   0.00000  Uiso   1.00
Zn558  Zn    0.95660   0.25000   0.28240   0.00000  Uiso   1.00
Zn559  Zn    0.75000   0.04340   0.71760   0.00000  Uiso   1.00
Zn560  Zn    0.75000   0.45660   0.28240   0.00000  Uiso   1.00
Zn561  Zn    0.79340   0.00000   0.78240   0.00000  Uiso   1.00
Zn562  Zn    0.50000   0.20660   0.21760   0.00000  Uiso   1.00
Zn563  Zn    0.50000   0.29340   0.78240   0.00000  Uiso   1.00
Zn564  Zn    0.79340   0.00000   0.21760   0.00000  Uiso   1.00
Zn565  Zn    0.70660   0.00000   0.78240   0.00000  Uiso   1.00
Zn566  Zn    0.50000   0.29340   0.21760   0.00000  Uiso   1.00
Zn567  Zn    0.50000   0.20660   0.78240   0.00000  Uiso   1.00
Zn568  Zn    0.95660   0.25000   0.71760   0.00000  Uiso   1.00
C569   C     0.21880   0.51107   0.04185   0.00000  Uiso   1.00
C570   C     0.03120   0.73893   0.45815   0.00000  Uiso   1.00
C571   C     0.34801   0.90197   0.74999   0.00000  Uiso   1.00
C572   C     0.40178   0.65195   0.24978   0.00000  Uiso   1.00
C573   C     0.09822   0.84805   0.75022   0.00000  Uiso   1.00
C574   C     0.34803   0.90200   0.24999   0.00000  Uiso   1.00
C575   C     0.15197   0.59801   0.75001   0.00000  Uiso   1.00
C576   C     0.09803   0.65199   0.74999   0.00000  Uiso   1.00
C577   C     0.40197   0.84800   0.25001   0.00000  Uiso   1.00
C578   C     0.15178   0.90195   0.74978   0.00000  Uiso   1.00
C579   C     0.34822   0.59805   0.25022   0.00000  Uiso   1.00
C580   C     0.40199   0.84803   0.75000   0.00000  Uiso   1.00
C581   C     0.23931   0.96867   0.54180   0.00000  Uiso   1.00
C582   C     0.09801   0.65197   0.24999   0.00000  Uiso   1.00
C583   C     0.34803   0.59803   0.75000   0.00000  Uiso   1.00
C584   C     0.15197   0.90197   0.25000   0.00000  Uiso   1.00
C585   C     0.25001   0.99998   0.10245   0.00000  Uiso   1.00
C586   C     0.24998   0.50000   0.89757   0.00000  Uiso   1.00
C587   C     0.00002   0.74999   0.10245   0.00000  Uiso   1.00
C588   C     0.00001   0.75001   0.89757   0.00000  Uiso   1.00
C589   C     0.00002   0.75000   0.60243   0.00000  Uiso   1.00
C590   C     0.49999   0.75002   0.39755   0.00000  Uiso   1.00
C591   C     0.24999   0.99999   0.60243   0.00000  Uiso   1.00
C592   C     0.23883   0.53119   0.45819   0.00000  Uiso   1.00
C593   C     0.24998   0.50001   0.39755   0.00000  Uiso   1.00
C594   C     0.03134   0.76069   0.54180   0.00000  Uiso   1.00
C595   C     0.46881   0.76116   0.45819   0.00000  Uiso   1.00
C596   C     0.26062   0.53131   0.54181   0.00000  Uiso   1.00
C597   C     0.26107   0.96880   0.45815   0.00000  Uiso   1.00
C598   C     0.21873   0.51082   0.08210   0.00000  Uiso   1.00
C599   C     0.28139   0.51038   0.91793   0.00000  Uiso   1.00
C600   C     0.01089   0.71872   0.08206   0.00000  Uiso   1.00
C601   C     0.28132   0.51062   0.95818   0.00000  Uiso   1.00
C602   C     0.01041   0.78142   0.91794   0.00000  Uiso   1.00
C603   C     0.28129   0.98911   0.08206   0.00000  Uiso   1.00
C604   C     0.21858   0.98959   0.91795   0.00000  Uiso   1.00
C605   C     0.48918   0.78127   0.08210   0.00000  Uiso   1.00
C606   C     0.48962   0.71861   0.91794   0.00000  Uiso   1.00
C607   C     0.46861   0.73962   0.58207   0.00000  Uiso   1.00
C608   C     0.03127   0.73918   0.41790   0.00000  Uiso   1.00
C609   C     0.23959   0.96858   0.58206   0.00000  Uiso   1.00
C610   C     0.23911   0.53128   0.41794   0.00000  Uiso   1.00
C611   C     0.03142   0.76041   0.58205   0.00000  Uiso   1.00
C612   C     0.01117   0.71881   0.04181   0.00000  Uiso   1.00
C613   C     0.46871   0.76089   0.41794   0.00000  Uiso   1.00
C614   C     0.26038   0.53139   0.58206   0.00000  Uiso   1.00
C615   C     0.26082   0.96873   0.41790   0.00000  Uiso   1.00
C616   C     0.25000   0.99995   0.02133   0.00000  Uiso   1.00
C617   C     0.24999   0.99996   0.97869   0.00000  Uiso   1.00
C618   C     0.00005   0.75001   0.02133   0.00000  Uiso   1.00
C619   C     0.00004   0.75001   0.97869   0.00000  Uiso   1.00
C620   C     0.00001   0.75004   0.52131   0.00000  Uiso   1.00
C621   C     0.00001   0.75005   0.47867   0.00000  Uiso   1.00
C622   C     0.24996   0.99999   0.52131   0.00000  Uiso   1.00
C623   C     0.01069   0.78133   0.95820   0.00000  Uiso   1.00
C624   C     0.24995   0.99999   0.47867   0.00000  Uiso   1.00
C625   C     0.24999   0.50000   0.35522   0.00000  Uiso   1.00
C626   C     0.25000   0.99999   0.64478   0.00000  Uiso   1.00
C627   C     0.49999   0.75001   0.35522   0.00000  Uiso   1.00
C628   C     0.00001   0.75000   0.64478   0.00000  Uiso   1.00
C629   C    -0.00000   0.75001   0.85522   0.00000  Uiso   1.00
C630   C     0.00001   0.75000   0.14478   0.00000  Uiso   1.00
C631   C     0.24999   0.50000   0.85522   0.00000  Uiso   1.00
C632   C     0.25001   0.99999   0.14478   0.00000  Uiso   1.00
C633   C     0.18003   0.56998   0.25000   0.00000  Uiso   1.00
C634   C     0.28119   0.98884   0.04181   0.00000  Uiso   1.00
C635   C     0.31997   0.93002   0.75000   0.00000  Uiso   1.00
C636   C     0.42992   0.68000   0.24994   0.00000  Uiso   1.00
C637   C     0.07008   0.82000   0.75005   0.00000  Uiso   1.00
C638   C     0.31998   0.93003   0.24999   0.00000  Uiso   1.00
C639   C     0.18002   0.56997   0.75000   0.00000  Uiso   1.00
C640   C     0.06998   0.81998   0.25000   0.00000  Uiso   1.00
C641   C     0.43002   0.68002   0.75000   0.00000  Uiso   1.00
C642   C     0.17992   0.93000   0.74994   0.00000  Uiso   1.00
C643   C     0.32008   0.57000   0.25005   0.00000  Uiso   1.00
C644   C     0.43003   0.81998   0.75000   0.00000  Uiso   1.00
C645   C     0.21866   0.98931   0.95820   0.00000  Uiso   1.00
C646   C     0.06997   0.68002   0.25000   0.00000  Uiso   1.00
C647   C     0.31998   0.56998   0.75000   0.00000  Uiso   1.00
C648   C     0.18002   0.93002   0.25000   0.00000  Uiso   1.00
C649   C     0.06998   0.68003   0.74999   0.00000  Uiso   1.00
C650   C     0.43002   0.81997   0.25000   0.00000  Uiso   1.00
C651   C     0.14373   0.88313   0.21531   0.00000  Uiso   1.00
C652   C     0.38475   0.58839   0.74221   0.00000  Uiso   1.00
C653   C     0.11689   0.64374   0.21532   0.00000  Uiso   1.00
C654   C     0.38288   0.85603   0.78460   0.00000  Uiso   1.00
C655   C     0.38506   0.58790   0.24621   0.00000  Uiso   1.00
C656   C     0.48893   0.78120   0.04185   0.00000  Uiso   1.00
C657   C     0.11494   0.91210   0.75379   0.00000  Uiso   1.00
C658   C     0.38315   0.85624   0.21532   0.00000  Uiso   1.00
C659   C     0.11708   0.64399   0.78460   0.00000  Uiso   1.00
C660   C     0.14395   0.61710   0.78461   0.00000  Uiso   1.00
C661   C     0.35628   0.88313   0.21531   0.00000  Uiso   1.00
C662   C     0.08779   0.88490   0.75288   0.00000  Uiso   1.00
C663   C     0.41221   0.61510   0.24713   0.00000  Uiso   1.00
C664   C     0.35599   0.88290   0.78460   0.00000  Uiso   1.00
C665   C     0.14379   0.61687   0.21532   0.00000  Uiso   1.00
C666   C     0.41161   0.61525   0.74221   0.00000  Uiso   1.00
C667   C     0.48938   0.71869   0.95819   0.00000  Uiso   1.00
C668   C     0.11688   0.85627   0.21531   0.00000  Uiso   1.00
C669   C     0.36525   0.66161   0.75779   0.00000  Uiso   1.00
C670   C     0.10627   0.86687   0.28468   0.00000  Uiso   1.00
C671   C     0.36712   0.89397   0.71540   0.00000  Uiso   1.00
C672   C     0.13311   0.60626   0.28468   0.00000  Uiso   1.00
C673   C     0.13506   0.83790   0.74621   0.00000  Uiso   1.00
C674   C     0.36494   0.66210   0.25379   0.00000  Uiso   1.00
C675   C     0.13293   0.60601   0.71540   0.00000  Uiso   1.00
C676   C     0.36685   0.89376   0.28468   0.00000  Uiso   1.00
C677   C     0.39372   0.86687   0.28469   0.00000  Uiso   1.00
C678   C     0.46869   0.73938   0.54182   0.00000  Uiso   1.00
C679   C     0.10605   0.63291   0.71539   0.00000  Uiso   1.00
C680   C     0.33779   0.63491   0.25287   0.00000  Uiso   1.00
C681   C     0.16221   0.86510   0.74712   0.00000  Uiso   1.00
C682   C     0.10621   0.63313   0.28467   0.00000  Uiso   1.00
C683   C     0.39401   0.86710   0.71540   0.00000  Uiso   1.00
C684   C     0.13313   0.89373   0.28468   0.00000  Uiso   1.00
C685   C     0.33839   0.63475   0.75779   0.00000  Uiso   1.00
C686   C     0.09803   0.84803   0.25000   0.00000  Uiso   1.00
C687   C     0.40197   0.65197   0.75000   0.00000  Uiso   1.00
C688   C     0.15199   0.59803   0.25001   0.00000  Uiso   1.00
H689   H     0.19460   0.52040   0.02682   0.00000  Uiso   1.00
H690   H     0.05540   0.72960   0.47317   0.00000  Uiso   1.00
H691   H     0.23033   0.94436   0.52676   0.00000  Uiso   1.00
H692   H     0.22950   0.55538   0.47325   0.00000  Uiso   1.00
H693   H     0.05564   0.76967   0.52674   0.00000  Uiso   1.00
H694   H     0.44461   0.77050   0.47326   0.00000  Uiso   1.00
H695   H     0.26959   0.55562   0.52677   0.00000  Uiso   1.00
H696   H     0.27040   0.94461   0.47318   0.00000  Uiso   1.00
H697   H     0.19438   0.51961   0.09729   0.00000  Uiso   1.00
H698   H     0.30585   0.51881   0.90276   0.00000  Uiso   1.00
H699   H     0.01968   0.69438   0.09722   0.00000  Uiso   1.00
H700   H     0.30562   0.51959   0.97322   0.00000  Uiso   1.00
H701   H     0.01882   0.80587   0.90278   0.00000  Uiso   1.00
H702   H     0.30563   0.98033   0.09722   0.00000  Uiso   1.00
H703   H     0.19412   0.98118   0.90279   0.00000  Uiso   1.00
H704   H     0.48039   0.80562   0.09729   0.00000  Uiso   1.00
H705   H     0.48119   0.69415   0.90277   0.00000  Uiso   1.00
H706   H     0.44415   0.73119   0.59724   0.00000  Uiso   1.00
H707   H     0.05562   0.73039   0.40271   0.00000  Uiso   1.00
H708   H     0.23118   0.94413   0.59722   0.00000  Uiso   1.00
H709   H     0.23032   0.55562   0.40277   0.00000  Uiso   1.00
H710   H     0.05588   0.76882   0.59721   0.00000  Uiso   1.00
H711   H     0.02051   0.69462   0.02675   0.00000  Uiso   1.00
H712   H     0.44437   0.76967   0.40278   0.00000  Uiso   1.00
H713   H     0.26881   0.55585   0.59723   0.00000  Uiso   1.00
H714   H     0.26962   0.94438   0.40271   0.00000  Uiso   1.00
H715   H     0.18546   0.90161   0.18569   0.00000  Uiso   1.00
H716   H     0.37448   0.53846   0.72494   0.00000  Uiso   1.00
H717   H     0.09836   0.68548   0.18571   0.00000  Uiso   1.00
H718   H     0.40136   0.81417   0.81406   0.00000  Uiso   1.00
H719   H     0.41607   0.54936   0.22584   0.00000  Uiso   1.00
H720   H     0.08393   0.95064   0.77417   0.00000  Uiso   1.00
H721   H     0.40165   0.81444   0.18573   0.00000  Uiso   1.00
H722   H     0.01967   0.80564   0.97324   0.00000  Uiso   1.00
H723   H     0.09857   0.68587   0.81407   0.00000  Uiso   1.00
H724   H     0.18580   0.59860   0.81408   0.00000  Uiso   1.00
H725   H     0.31455   0.90167   0.18569   0.00000  Uiso   1.00
H726   H     0.04763   0.91770   0.74046   0.00000  Uiso   1.00
H727   H     0.45237   0.58230   0.25955   0.00000  Uiso   1.00
H728   H     0.31410   0.90141   0.81406   0.00000  Uiso   1.00
H729   H     0.18559   0.59837   0.18575   0.00000  Uiso   1.00
H730   H     0.46155   0.62553   0.72494   0.00000  Uiso   1.00
H731   H     0.09841   0.81455   0.18569   0.00000  Uiso   1.00
H732   H     0.37552   0.71154   0.77506   0.00000  Uiso   1.00
H733   H     0.30539   0.97950   0.02674   0.00000  Uiso   1.00
H734   H     0.06454   0.84839   0.31431   0.00000  Uiso   1.00
H735   H     0.34864   0.93583   0.68594   0.00000  Uiso   1.00
H736   H     0.15164   0.56452   0.31429   0.00000  Uiso   1.00
H737   H     0.16607   0.79936   0.72583   0.00000  Uiso   1.00
H738   H     0.33393   0.70064   0.27416   0.00000  Uiso   1.00
H739   H     0.15143   0.56413   0.68593   0.00000  Uiso   1.00
H740   H     0.34835   0.93556   0.31426   0.00000  Uiso   1.00
H741   H     0.43545   0.84833   0.31431   0.00000  Uiso   1.00
H742   H     0.06421   0.65140   0.68591   0.00000  Uiso   1.00
H743   H     0.29763   0.66770   0.24045   0.00000  Uiso   1.00
H744   H     0.19436   0.98033   0.97325   0.00000  Uiso   1.00
H745   H     0.20237   0.83230   0.75954   0.00000  Uiso   1.00
H746   H     0.06441   0.65163   0.31425   0.00000  Uiso   1.00
H747   H     0.43590   0.84859   0.68594   0.00000  Uiso   1.00
H748   H     0.15159   0.93545   0.31430   0.00000  Uiso   1.00
H749   H     0.28845   0.62447   0.77506   0.00000  Uiso   1.00
H750   H     0.47960   0.80539   0.02682   0.00000  Uiso   1.00
H751   H     0.48041   0.69438   0.97323   0.00000  Uiso   1.00
H752   H     0.44438   0.73041   0.52678   0.00000  Uiso   1.00
O753   O     0.25000   0.50000   0.25000   0.00000  Uiso   1.00
O754   O     0.25000   0.96964   0.66317   0.00000  Uiso   1.00
O755   O     0.46964   0.75000   0.33683   0.00000  Uiso   1.00
O756   O     0.03036   0.75000   0.66317   0.00000  Uiso   1.00
O757   O     0.00000   0.71964   0.83683   0.00000  Uiso   1.00
O758   O     0.00000   0.78036   0.16317   0.00000  Uiso   1.00
O759   O     0.28036   0.50000   0.83683   0.00000  Uiso   1.00
O760   O     0.21964   0.50000   0.16317   0.00000  Uiso   1.00
O761   O     0.00000   0.78036   0.83683   0.00000  Uiso   1.00
O762   O     0.00000   0.71964   0.16317   0.00000  Uiso   1.00
O763   O     0.21964   0.50000   0.83683   0.00000  Uiso   1.00
O764   O     0.25000   0.50000   0.75000   0.00000  Uiso   1.00
O765   O     0.28036   0.50000   0.16317   0.00000  Uiso   1.00
O766   O     0.20726   0.57307   0.27282   0.00000  Uiso   1.00
O767   O     0.29275   0.92693   0.72718   0.00000  Uiso   1.00
O768   O     0.42693   0.70726   0.27282   0.00000  Uiso   1.00
O769   O     0.07307   0.79275   0.72718   0.00000  Uiso   1.00
O770   O     0.29275   0.92693   0.27282   0.00000  Uiso   1.00
O771   O     0.20726   0.57307   0.72718   0.00000  Uiso   1.00
O772   O     0.07307   0.79275   0.27282   0.00000  Uiso   1.00
O773   O     0.42693   0.70726   0.72718   0.00000  Uiso   1.00
O774   O     0.20726   0.92693   0.72718   0.00000  Uiso   1.00
O775   O     0.00000   0.75000   0.25000   0.00000  Uiso   1.00
O776   O     0.29275   0.57307   0.27282   0.00000  Uiso   1.00
O777   O     0.42693   0.79275   0.72718   0.00000  Uiso   1.00
O778   O     0.07307   0.70726   0.27282   0.00000  Uiso   1.00
O779   O     0.29275   0.57307   0.72718   0.00000  Uiso   1.00
O780   O     0.20726   0.92693   0.27282   0.00000  Uiso   1.00
O781   O     0.07307   0.70726   0.72718   0.00000  Uiso   1.00
O782   O     0.42693   0.79275   0.27282   0.00000  Uiso   1.00
O783   O     0.45726   0.82307   0.77282   0.00000  Uiso   1.00
O784   O     0.04275   0.67693   0.22718   0.00000  Uiso   1.00
O785   O     0.17693   0.95726   0.77282   0.00000  Uiso   1.00
O786   O     0.00000   0.75000   0.75000   0.00000  Uiso   1.00
O787   O     0.32307   0.54275   0.22718   0.00000  Uiso   1.00
O788   O     0.04275   0.67693   0.77282   0.00000  Uiso   1.00
O789   O     0.45726   0.82307   0.22718   0.00000  Uiso   1.00
O790   O     0.32307   0.54275   0.77282   0.00000  Uiso   1.00
O791   O     0.17693   0.95726   0.22718   0.00000  Uiso   1.00
O792   O     0.45726   0.67693   0.22718   0.00000  Uiso   1.00
O793   O     0.04275   0.82307   0.77282   0.00000  Uiso   1.00
O794   O     0.17693   0.54275   0.22718   0.00000  Uiso   1.00
O795   O     0.32307   0.95726   0.77282   0.00000  Uiso   1.00
O796   O     0.04275   0.82307   0.22718   0.00000  Uiso   1.00
O797   O     0.25000   0.96964   0.33683   0.00000  Uiso   1.00
O798   O     0.45726   0.67693   0.77282   0.00000  Uiso   1.00
O799   O     0.32307   0.95726   0.22718   0.00000  Uiso   1.00
O800   O     0.17693   0.54275   0.77282   0.00000  Uiso   1.00
O801   O     0.16201   0.88911   0.18083   0.00000  Uiso   1.00
O802   O     0.39568   0.55322   0.73315   0.00000  Uiso   1.00
O803   O     0.11092   0.66203   0.18084   0.00000  Uiso   1.00
O804   O     0.38863   0.83752   0.81899   0.00000  Uiso   1.00
O805   O     0.39364   0.55139   0.24172   0.00000  Uiso   1.00
O806   O     0.10636   0.94861   0.75829   0.00000  Uiso   1.00
O807   O     0.38917   0.83792   0.18085   0.00000  Uiso   1.00
O808   O     0.25000   0.53036   0.66317   0.00000  Uiso   1.00
O809   O     0.11127   0.66251   0.81899   0.00000  Uiso   1.00
O810   O     0.16244   0.61132   0.81900   0.00000  Uiso   1.00
O811   O     0.33802   0.88913   0.18082   0.00000  Uiso   1.00
O812   O     0.05100   0.89343   0.75255   0.00000  Uiso   1.00
O813   O     0.44900   0.60657   0.24745   0.00000  Uiso   1.00
O814   O     0.33745   0.88869   0.81898   0.00000  Uiso   1.00
O815   O     0.16212   0.61088   0.18086   0.00000  Uiso   1.00
O816   O     0.44679   0.60433   0.73315   0.00000  Uiso   1.00
O817   O     0.11090   0.83800   0.18083   0.00000  Uiso   1.00
O818   O     0.35432   0.69678   0.76685   0.00000  Uiso   1.00
O819   O     0.03036   0.75000   0.33683   0.00000  Uiso   1.00
O820   O     0.08799   0.86089   0.31917   0.00000  Uiso   1.00
O821   O     0.36137   0.91248   0.68101   0.00000  Uiso   1.00
O822   O     0.13908   0.58797   0.31916   0.00000  Uiso   1.00
O823   O     0.14364   0.80139   0.74171   0.00000  Uiso   1.00
O824   O     0.35636   0.69861   0.25828   0.00000  Uiso   1.00
O825   O     0.13873   0.58749   0.68100   0.00000  Uiso   1.00
O826   O     0.36083   0.91208   0.31915   0.00000  Uiso   1.00
O827   O     0.41198   0.86087   0.31917   0.00000  Uiso   1.00
O828   O     0.08756   0.63869   0.68100   0.00000  Uiso   1.00
O829   O     0.30100   0.64343   0.25254   0.00000  Uiso   1.00
O830   O     0.46964   0.75000   0.66317   0.00000  Uiso   1.00
O831   O     0.19900   0.85657   0.74745   0.00000  Uiso   1.00
O832   O     0.08788   0.63913   0.31914   0.00000  Uiso   1.00
O833   O     0.41255   0.86131   0.68102   0.00000  Uiso   1.00
O834   O     0.13910   0.91200   0.31917   0.00000  Uiso   1.00
O835   O     0.30321   0.64567   0.76685   0.00000  Uiso   1.00
O836   O     0.25000   0.53036   0.33683   0.00000  Uiso   1.00
Zn837  Zn    0.20660   0.50000   0.21760   0.00000  Uiso   1.00
Zn838  Zn    0.04340   0.75000   0.28240   0.00000  Uiso   1.00
Zn839  Zn    0.25000   0.95660   0.71760   0.00000  Uiso   1.00
Zn840  Zn    0.25000   0.54340   0.28240   0.00000  Uiso   1.00
Zn841  Zn    0.04340   0.75000   0.71760   0.00000  Uiso   1.00
Zn842  Zn    0.45660   0.75000   0.28240   0.00000  Uiso   1.00
Zn843  Zn    0.25000   0.54340   0.71760   0.00000  Uiso   1.00
Zn844  Zn    0.25000   0.95660   0.28240   0.00000  Uiso   1.00
Zn845  Zn    0.29340   0.50000   0.78240   0.00000  Uiso   1.00
Zn846  Zn    0.00000   0.70660   0.21760   0.00000  Uiso   1.00
Zn847  Zn    0.00000   0.79340   0.78240   0.00000  Uiso   1.00
Zn848  Zn    0.29340   0.50000   0.21760   0.00000  Uiso   1.00
Zn849  Zn    0.20660   0.50000   0.78240   0.00000  Uiso   1.00
Zn850  Zn    0.00000   0.79340   0.21760   0.00000  Uiso   1.00
Zn851  Zn    0.00000   0.70660   0.78240   0.00000  Uiso   1.00
Zn852  Zn    0.45660   0.75000   0.71760   0.00000  Uiso   1.00
C853   C     0.71880   0.51107   0.04185   0.00000  Uiso   1.00
C854   C     0.53120   0.73893   0.45815   0.00000  Uiso   1.00
C855   C     0.84801   0.90197   0.74999   0.00000  Uiso   1.00
C856   C     0.90178   0.65195   0.24978   0.00000  Uiso   1.00
C857   C     0.59822   0.84805   0.75022   0.00000  Uiso   1.00
C858   C     0.84803   0.90200   0.24999   0.00000  Uiso   1.00
C859   C     0.65197   0.59801   0.75001   0.00000  Uiso   1.00
C860   C     0.59803   0.65199   0.74999   0.00000  Uiso   1.00
C861   C     0.90197   0.84800   0.25001   0.00000  Uiso   1.00
C862   C     0.65178   0.90195   0.74978   0.00000  Uiso   1.00
C863   C     0.84822   0.59805   0.25022   0.00000  Uiso   1.00
C864   C     0.90199   0.84803   0.75000   0.00000  Uiso   1.00
C865   C     0.73931   0.96867   0.54180   0.00000  Uiso   1.00
C866   C     0.59801   0.65197   0.24999   0.00000  Uiso   1.00
C867   C     0.84803   0.59803   0.75000   0.00000  Uiso   1.00
C868   C     0.65197   0.90197   0.25000   0.00000  Uiso   1.00
C869   C     0.75001   0.99998   0.10245   0.00000  Uiso   1.00
C870   C     0.74998   0.50000   0.89757   0.00000  Uiso   1.00
C871   C     0.50002   0.74999   0.10245   0.00000  Uiso   1.00
C872   C     0.50001   0.75001   0.89757   0.00000  Uiso   1.00
C873   C     0.50002   0.75000   0.60243   0.00000  Uiso   1.00
C874   C     0.99999   0.75002   0.39755   0.00000  Uiso   1.00
C875   C     0.74999   0.99999   0.60243   0.00000  Uiso   1.00
C876   C     0.73883   0.53119   0.45819   0.00000  Uiso   1.00
C877   C     0.74998   0.50001   0.39755   0.00000  Uiso   1.00
C878   C     0.53134   0.76069   0.54180   0.00000  Uiso   1.00
C879   C     0.96881   0.76116   0.45819   0.00000  Uiso   1.00
C880   C     0.76062   0.53131   0.54181   0.00000  Uiso   1.00
C881   C     0.76107   0.96880   0.45815   0.00000  Uiso   1.00
C882   C     0.71873   0.51082   0.08210   0.00000  Uiso   1.00
C883   C     0.78139   0.51038   0.91793   0.00000  Uiso   1.00
C884   C     0.51089   0.71872   0.08206   0.00000  Uiso   1.00
C885   C     0.78132   0.51062   0.95818   0.00000  Uiso   1.00
C886   C     0.51041   0.78142   0.91794   0.00000  Uiso   1.00
C887   C     0.78129   0.98911   0.08206   0.00000  Uiso   1.00
C888   C     0.71858   0.98959   0.91795   0.00000  Uiso   1.00
C889   C     0.98918   0.78127   0.08210   0.00000  Uiso   1.00
C890   C     0.98962   0.71861   0.91794   0.00000  Uiso   1.00
C891   C     0.96861   0.73962   0.58207   0.00000  Uiso   1.00
C892   C     0.53127   0.73918   0.41790   0.00000  Uiso   1.00
C893   C     0.73959   0.96858   0.58206   0.00000  Uiso   1.00
C894   C     0.73911   0.53128   0.41794   0.00000  Uiso   1.00
C895   C     0.53142   0.76041   0.58205   0.00000  Uiso   1.00
C896   C     0.51117   0.71881   0.04181   0.00000  Uiso   1.00
C897   C     0.96871   0.76089   0.41794   0.00000  Uiso   1.00
C898   C     0.76038   0.53139   0.58206   0.00000  Uiso   1.00
C899   C     0.76082   0.96873   0.41790   0.00000  Uiso   1.00
C900   C     0.75000   0.99995   0.02133   0.00000  Uiso   1.00
C901   C     0.74999   0.99996   0.97869   0.00000  Uiso   1.00
C902   C     0.50005   0.75001   0.02133   0.00000  Uiso   1.00
C903   C     0.50004   0.75001   0.97869   0.00000  Uiso   1.00
C904   C     0.50001   0.75004   0.52131   0.00000  Uiso   1.00
C905   C     0.50001   0.75005   0.47867   0.00000  Uiso   1.00
C906   C     0.74996   0.99999   0.52131   0.00000  Uiso   1.00
C907   C     0.51069   0.78133   0.95820   0.00000  Uiso   1.00
C908   C     0.74995   0.99999   0.47867   0.00000  Uiso   1.00
C909   C     0.74999   0.50000   0.35522   0.00000  Uiso   1.00
C910   C     0.75000   0.99999   0.64478   0.00000  Uiso   1.00
C911   C     0.99999   0.75001   0.35522   0.00000  Uiso   1.00
C912   C     0.50001   0.75000   0.64478   0.00000  Uiso   1.00
C913   C     0.50000   0.75001   0.85522   0.00000  Uiso   1.00
C914   C     0.50001   0.75000   0.14478   0.00000  Uiso   1.00
C915   C     0.74999   0.50000   0.85522   0.00000  Uiso   1.00
C916   C     0.75001   0.99999   0.14478   0.00000  Uiso   1.00
C917   C     0.68003   0.56998   0.25000   0.00000  Uiso   1.00
C918   C     0.78119   0.98884   0.04181   0.00000  Uiso   1.00
C919   C     0.81997   0.93002   0.75000   0.00000  Uiso   1.00
C920   C     0.92992   0.68000   0.24994   0.00000  Uiso   1.00
C921   C     0.57008   0.82000   0.75005   0.00000  Uiso   1.00
C922   C     0.81998   0.93003   0.24999   0.00000  Uiso   1.00
C923   C     0.68002   0.56997   0.75000   0.00000  Uiso   1.00
C924   C     0.56998   0.81998   0.25000   0.00000  Uiso   1.00
C925   C     0.93002   0.68002   0.75000   0.00000  Uiso   1.00
C926   C     0.67992   0.93000   0.74994   0.00000  Uiso   1.00
C927   C     0.82008   0.57000   0.25005   0.00000  Uiso   1.00
C928   C     0.93003   0.81998   0.75000   0.00000  Uiso   1.00
C929   C     0.71866   0.98931   0.95820   0.00000  Uiso   1.00
C930   C     0.56997   0.68002   0.25000   0.00000  Uiso   1.00
C931   C     0.81998   0.56998   0.75000   0.00000  Uiso   1.00
C932   C     0.68002   0.93002   0.25000   0.00000  Uiso   1.00
C933   C     0.56998   0.68003   0.74999   0.00000  Uiso   1.00
C934   C     0.93002   0.81997   0.25000   0.00000  Uiso   1.00
C935   C     0.64373   0.88313   0.21531   0.00000  Uiso   1.00
C936   C     0.88475   0.58839   0.74221   0.00000  Uiso   1.00
C937   C     0.61689   0.64374   0.21532   0.00000  Uiso   1.00
C938   C     0.88288   0.85603   0.78460   0.00000  Uiso   1.00
C939   C     0.88506   0.58790   0.24621   0.00000  Uiso   1.00
C940   C     0.98893   0.78120   0.04185   0.00000  Uiso   1.00
C941   C     0.61494   0.91210   0.75379   0.00000  Uiso   1.00
C942   C     0.88315   0.85624   0.21532   0.00000  Uiso   1.00
C943   C     0.61708   0.64399   0.78460   0.00000  Uiso   1.00
C944   C     0.64395   0.61710   0.78461   0.00000  Uiso   1.00
C945   C     0.85628   0.88313   0.21531   0.00000  Uiso   1.00
C946   C     0.58779   0.88490   0.75288   0.00000  Uiso   1.00
C947   C     0.91221   0.61510   0.24713   0.00000  Uiso   1.00
C948   C     0.85599   0.88290   0.78460   0.00000  Uiso   1.00
C949   C     0.64379   0.61687   0.21532   0.00000  Uiso   1.00
C950   C     0.91161   0.61525   0.74221   0.00000  Uiso   1.00
C951   C     0.98938   0.71869   0.95819   0.00000  Uiso   1.00
C952   C     0.61688   0.85627   0.21531   0.00000  Uiso   1.00
C953   C     0.86525   0.66161   0.75779   0.00000  Uiso   1.00
C954   C     0.60627   0.86687   0.28468   0.00000  Uiso   1.00
C955   C     0.86712   0.89397   0.71540   0.00000  Uiso   1.00
C956   C     0.63311   0.60626   0.28468   0.00000  Uiso   1.00
C957   C     0.63506   0.83790   0.74621   0.00000  Uiso   1.00
C958   C     0.86494   0.66210   0.25379   0.00000  Uiso   1.00
C959   C     0.63293   0.60601   0.71540   0.00000  Uiso   1.00
C960   C     0.86685   0.89376   0.28468   0.00000  Uiso   1.00
C961   C     0.89372   0.86687   0.28469   0.00000  Uiso   1.00
C962   C     0.96869   0.73938   0.54182   0.00000  Uiso   1.00
C963   C     0.60605   0.63291   0.71539   0.00000  Uiso   1.00
C964   C     0.83779   0.63491   0.25287   0.00000  Uiso   1.00
C965   C     0.66221   0.86510   0.74712   0.00000  Uiso   1.00
C966   C     0.60621   0.63313   0.28467   0.00000  Uiso   1.00
C967   C     0.89401   0.86710   0.71540   0.00000  Uiso   1.00
C968   C     0.63313   0.89373   0.28468   0.00000  Uiso   1.00
C969   C     0.83839   0.63475   0.75779   0.00000  Uiso   1.00
C970   C     0.59803   0.84803   0.25000   0.00000  Uiso   1.00
C971   C     0.90197   0.65197   0.75000   0.00000  Uiso   1.00
C972   C     0.65199   0.59803   0.25001   0.00000  Uiso   1.00
H973   H     0.69460   0.52040   0.02682   0.00000  Uiso   1.00
H974   H     0.55540   0.72960   0.47317   0.00000  Uiso   1.00
H975   H     0.73033   0.94436   0.52676   0.00000  Uiso   1.00
H976   H     0.72950   0.55538   0.47325   0.00000  Uiso   1.00
H977   H     0.55564   0.76967   0.52674   0.00000  Uiso   1.00
H978   H     0.94461   0.77050   0.47326   0.00000  Uiso   1.00
H979   H     0.76959   0.55562   0.52677   0.00000  Uiso   1.00
H980   H     0.77040   0.94461   0.47318   0.00000  Uiso   1.00
H981   H     0.69438   0.51961   0.09729   0.00000  Uiso   1.00
H982   H     0.80585   0.51881   0.90276   0.00000  Uiso   1.00
H983   H     0.51968   0.69438   0.09722   0.00000  Uiso   1.00
H984   H     0.80562   0.51959   0.97322   0.00000  Uiso   1.00
H985   H     0.51882   0.80587   0.90278   0.00000  Uiso   1.00
H986   H     0.80563   0.98033   0.09722   0.00000  Uiso   1.00
H987   H     0.69412   0.98118   0.90279   0.00000  Uiso   1.00
H988   H     0.98039   0.80562   0.09729   0.00000  Uiso   1.00
H989   H     0.98119   0.69415   0.90277   0.00000  Uiso   1.00
H990   H     0.94415   0.73119   0.59724   0.00000  Uiso   1.00
H991   H     0.55562   0.73039   0.40271   0.00000  Uiso   1.00
H992   H     0.73118   0.94413   0.59722   0.00000  Uiso   1.00
H993   H     0.73032   0.55562   0.40277   0.00000  Uiso   1.00
H994   H     0.55588   0.76882   0.59721   0.00000  Uiso   1.00
H995   H     0.52051   0.69462   0.02675   0.00000  Uiso   1.00
H996   H     0.94437   0.76967   0.40278   0.00000  Uiso   1.00
H997   H     0.76881   0.55585   0.59723   0.00000  Uiso   1.00
H998   H     0.76962   0.94438   0.40271   0.00000  Uiso   1.00
H999   H     0.68546   0.90161   0.18569   0.00000  Uiso   1.00
H1000  H     0.87448   0.53846   0.72494   0.00000  Uiso   1.00
H1001  H     0.59836   0.68548   0.18571   0.00000  Uiso   1.00
H1002  H     0.90136   0.81417   0.81406   0.00000  Uiso   1.00
H1003  H     0.91607   0.54936   0.22584   0.00000  Uiso   1.00
H1004  H     0.58393   0.95064   0.77417   0.00000  Uiso   1.00
H1005  H     0.90165   0.81444   0.18573   0.00000  Uiso   1.00
H1006  H     0.51967   0.80564   0.97324   0.00000  Uiso   1.00
H1007  H     0.59857   0.68587   0.81407   0.00000  Uiso   1.00
H1008  H     0.68580   0.59860   0.81408   0.00000  Uiso   1.00
H1009  H     0.81455   0.90167   0.18569   0.00000  Uiso   1.00
H1010  H     0.54763   0.91770   0.74046   0.00000  Uiso   1.00
H1011  H     0.95237   0.58230   0.25955   0.00000  Uiso   1.00
H1012  H     0.81410   0.90141   0.81406   0.00000  Uiso   1.00
H1013  H     0.68559   0.59837   0.18575   0.00000  Uiso   1.00
H1014  H     0.96155   0.62553   0.72494   0.00000  Uiso   1.00
H1015  H     0.59841   0.81455   0.18569   0.00000  Uiso   1.00
H1016  H     0.87552   0.71154   0.77506   0.00000  Uiso   1.00
H1017  H     0.80539   0.97950   0.02674   0.00000  Uiso   1.00
H1018  H     0.56454   0.84839   0.31431   0.00000  Uiso   1.00
H1019  H     0.84864   0.93583   0.68594   0.00000  Uiso   1.00
H1020  H     0.65164   0.56452   0.31429   0.00000  Uiso   1.00
H1021  H     0.66607   0.79936   0.72583   0.00000  Uiso   1.00
H1022  H     0.83393   0.70064   0.27416   0.00000  Uiso   1.00
H1023  H     0.65143   0.56413   0.68593   0.00000  Uiso   1.00
H1024  H     0.84835   0.93556   0.31426   0.00000  Uiso   1.00
H1025  H     0.93545   0.84833   0.31431   0.00000  Uiso   1.00
H1026  H     0.56421   0.65140   0.68591   0.00000  Uiso   1.00
H1027  H     0.79763   0.66770   0.24045   0.00000  Uiso   1.00
H1028  H     0.69436   0.98033   0.97325   0.00000  Uiso   1.00
H1029  H     0.70237   0.83230   0.75954   0.00000  Uiso   1.00
H1030  H     0.56441   0.65163   0.31425   0.00000  Uiso   1.00
H1031  H     0.93590   0.84859   0.68594   0.00000  Uiso   1.00
H1032  H     0.65159   0.93545   0.31430   0.00000  Uiso   1.00
H1033  H     0.78845   0.62447   0.77506   0.00000  Uiso   1.00
H1034  H     0.97960   0.80539   0.02682   0.00000  Uiso   1.00
H1035  H     0.98041   0.69438   0.97323   0.00000  Uiso   1.00
H1036  H     0.94438   0.73041   0.52678   0.00000  Uiso   1.00
O1037  O     0.75000   0.50000   0.25000   0.00000  Uiso   1.00
O1038  O     0.75000   0.96964   0.66317   0.00000  Uiso   1.00
O1039  O     0.96964   0.75000   0.33683   0.00000  Uiso   1.00
O1040  O     0.53036   0.75000   0.66317   0.00000  Uiso   1.00
O1041  O     0.50000   0.71964   0.83683   0.00000  Uiso   1.00
O1042  O     0.50000   0.78036   0.16317   0.00000  Uiso   1.00
O1043  O     0.78036   0.50000   0.83683   0.00000  Uiso   1.00
O1044  O     0.71964   0.50000   0.16317   0.00000  Uiso   1.00
O1045  O     0.50000   0.78036   0.83683   0.00000  Uiso   1.00
O1046  O     0.50000   0.71964   0.16317   0.00000  Uiso   1.00
O1047  O     0.71964   0.50000   0.83683   0.00000  Uiso   1.00
O1048  O     0.75000   0.50000   0.75000   0.00000  Uiso   1.00
O1049  O     0.78036   0.50000   0.16317   0.00000  Uiso   1.00
O1050  O     0.70726   0.57307   0.27282   0.00000  Uiso   1.00
O1051  O     0.79275   0.92693   0.72718   0.00000  Uiso   1.00
O1052  O     0.92693   0.70726   0.27282   0.00000  Uiso   1.00
O1053  O     0.57307   0.79275   0.72718   0.00000  Uiso   1.00
O1054  O     0.79275   0.92693   0.27282   0.00000  Uiso   1.00
O1055  O     0.70726   0.57307   0.72718   0.00000  Uiso   1.00
O1056  O     0.57307   0.79275   0.27282   0.00000  Uiso   1.00
O1057  O     0.92693   0.70726   0.72718   0.00000  Uiso   1.00
O1058  O     0.70726   0.92693   0.72718   0.00000  Uiso   1.00
O1059  O     0.50000   0.75000   0.25000   0.00000  Uiso   1.00
O1060  O     0.79275   0.57307   0.27282   0.00000  Uiso   1.00
O1061  O     0.92693   0.79275   0.72718   0.00000  Uiso   1.00
O1062  O     0.57307   0.70726   0.27282   0.00000  Uiso   1.00
O1063  O     0.79275   0.57307   0.72718   0.00000  Uiso   1.00
O1064  O     0.70726   0.92693   0.27282   0.00000  Uiso   1.00
O1065  O     0.57307   0.70726   0.72718   0.00000  Uiso   1.00
O1066  O     0.92693   0.79275   0.27282   0.00000  Uiso   1.00
O1067  O     0.95726   0.82307   0.77282   0.00000  Uiso   1.00
O1068  O     0.54275   0.67693   0.22718   0.00000  Uiso   1.00
O1069  O     0.67693   0.95726   0.77282   0.00000  Uiso   1.00
O1070  O     0.50000   0.75000   0.75000   0.00000  Uiso   1.00
O1071  O     0.82307   0.54275   0.22718   0.00000  Uiso   1.00
O1072  O     0.54275   0.67693   0.77282   0.00000  Uiso   1.00
O1073  O     0.95726   0.82307   0.22718   0.00000  Uiso   1.00
O1074  O     0.82307   0.54275   0.77282   0.00000  Uiso   1.00
O1075  O     0.67693   0.95726   0.22718   0.00000  Uiso   1.00
O1076  O     0.95726   0.67693   0.22718   0.00000  Uiso   1.00
O1077  O     0.54275   0.82307   0.77282   0.00000  Uiso   1.00
O1078  O     0.67693   0.54275   0.22718   0.00000  Uiso   1.00
O1079  O     0.82307   0.95726   0.77282   0.00000  Uiso   1.00
O1080  O     0.54275   0.82307   0.22718   0.00000  Uiso   1.00
O1081  O     0.75000   0.96964   0.33683   0.00000  Uiso   1.00
O1082  O     0.95726   0.67693   0.77282   0.00000  Uiso   1.00
O1083  O     0.82307   0.95726   0.22718   0.00000  Uiso   1.00
O1084  O     0.67693   0.54275   0.77282   0.00000  Uiso   1.00
O1085  O     0.66201   0.88911   0.18083   0.00000  Uiso   1.00
O1086  O     0.89568   0.55322   0.73315   0.00000  Uiso   1.00
O1087  O     0.61092   0.66203   0.18084   0.00000  Uiso   1.00
O1088  O     0.88863   0.83752   0.81899   0.00000  Uiso   1.00
O1089  O     0.89364   0.55139   0.24172   0.00000  Uiso   1.00
O1090  O     0.60636   0.94861   0.75829   0.00000  Uiso   1.00
O1091  O     0.88917   0.83792   0.18085   0.00000  Uiso   1.00
O1092  O     0.75000   0.53036   0.66317   0.00000  Uiso   1.00
O1093  O     0.61127   0.66251   0.81899   0.00000  Uiso   1.00
O1094  O     0.66244   0.61132   0.81900   0.00000  Uiso   1.00
O1095  O     0.83802   0.88913   0.18082   0.00000  Uiso   1.00
O1096  O     0.55100   0.89343   0.75255   0.00000  Uiso   1.00
O1097  O     0.94900   0.60657   0.24745   0.00000  Uiso   1.00
O1098  O     0.83745   0.88869   0.81898   0.00000  Uiso   1.00
O1099  O     0.66212   0.61088   0.18086   0.00000  Uiso   1.00
O1100  O     0.94679   0.60433   0.73315   0.00000  Uiso   1.00
O1101  O     0.61090   0.83800   0.18083   0.00000  Uiso   1.00
O1102  O     0.85432   0.69678   0.76685   0.00000  Uiso   1.00
O1103  O     0.53036   0.75000   0.33683   0.00000  Uiso   1.00
O1104  O     0.58799   0.86089   0.31917   0.00000  Uiso   1.00
O1105  O     0.86137   0.91248   0.68101   0.00000  Uiso   1.00
O1106  O     0.63908   0.58797   0.31916   0.00000  Uiso   1.00
O1107  O     0.64364   0.80139   0.74171   0.00000  Uiso   1.00
O1108  O     0.85636   0.69861   0.25828   0.00000  Uiso   1.00
O1109  O     0.63873   0.58749   0.68100   0.00000  Uiso   1.00
O1110  O     0.86083   0.91208   0.31915   0.00000  Uiso   1.00
O1111  O     0.91198   0.86087   0.31917   0.00000  Uiso   1.00
O1112  O     0.58756   0.63869   0.68100   0.00000  Uiso   1.00
O1113  O     0.80100   0.64343   0.25254   0.00000  Uiso   1.00
O1114  O     0.96964   0.75000   0.66317   0.00000  Uiso   1.00
O1115  O     0.69900   0.85657   0.74745   0.00000  Uiso   1.00
O1116  O     0.58788   0.63913   0.31914   0.00000  Uiso   1.00
O1117  O     0.91255   0.86131   0.68102   0.00000  Uiso   1.00
O1118  O     0.63910   0.91200   0.31917   0.00000  Uiso   1.00
O1119  O     0.80321   0.64567   0.76685   0.00000  Uiso   1.00
O1120  O     0.75000   0.53036   0.33683   0.00000  Uiso   1.00
Zn1121 Zn    0.70660   0.50000   0.21760   0.00000  Uiso   1.00
Zn1122 Zn    0.54340   0.75000   0.28240   0.00000  Uiso   1.00
Zn1123 Zn    0.75000   0.95660   0.71760   0.00000  Uiso   1.00
Zn1124 Zn    0.75000   0.54340   0.28240   0.00000  Uiso   1.00
Zn1125 Zn    0.54340   0.75000   0.71760   0.00000  Uiso   1.00
Zn1126 Zn    0.95660   0.75000   0.28240   0.00000  Uiso   1.00
Zn1127 Zn    0.75000   0.54340   0.71760   0.00000  Uiso   1.00
Zn1128 Zn    0.75000   0.95660   0.28240   0.00000  Uiso   1.00
Zn1129 Zn    0.79340   0.50000   0.78240   0.00000  Uiso   1.00
Zn1130 Zn    0.50000   0.70660   0.21760   0.00000  Uiso   1.00
Zn1131 Zn    0.50000   0.79340   0.78240   0.00000  Uiso   1.00
Zn1132 Zn    0.79340   0.50000   0.21760   0.00000  Uiso   1.00
Zn1133 Zn    0.70660   0.50000   0.78240   0.00000  Uiso   1.00
Zn1134 Zn    0.50000   0.79340   0.21760   0.00000  Uiso   1.00
Zn1135 Zn    0.50000   0.70660   0.78240   0.00000  Uiso   1.00
Zn1136 Zn    0.95660   0.75000   0.71760   0.00000  Uiso   1.00
loop_
_geom_bond_atom_site_label_1
_geom_bond_atom_site_label_2
_geom_bond_distance
_geom_bond_site_symmetry_2
_ccdc_geom_bond_type
C1     H121    1.083   .     S
C1     C30     1.391   .     A
C1     C616    1.404   1_545 S
C2     C40     1.391   .     A
C2     H122    1.083   .     S
C2     C53     1.404   .     A
C3     C96     1.416   .     A
C3     C103    1.416   .     A
C3     C67     1.452   .     S
C4     C68     1.457   .     S
C4     C106    1.406   .     A
C4     C95     1.406   .     A
C5     C94     1.406   .     A
C5     C69     1.457   .     S
C5     C105    1.406   .     A
C6     C108    1.416   .     A
C6     C93     1.416   .     A
C6     C70     1.452   .     S
C7     C71     1.452   .     S
C7     C107    1.416   .     A
C7     C92     1.416   .     A
C8     C81     1.452   .     S
C8     C91     1.416   .     A
C8     C111    1.416   .     A
C9     C82     1.452   .     S
C9     C109    1.416   .     A
C9     C90     1.416   .     A
C10    C89     1.406   .     A
C10    C74     1.457   .     S
C10    C113    1.406   .     A
C11    C87     1.406   .     A
C11    C112    1.406   .     A
C11    C75     1.457   .     S
C12    C115    1.416   .     A
C12    C76     1.452   .     S
C12    C86     1.416   .     A
C13    C41     1.391   .     A
C13    H123    1.083   .     S
C13    C54     1.404   .     A
C14    C114    1.416   .     A
C14    C85     1.416   .     A
C14    C78     1.452   .     S
C15    C79     1.454   .     S
C15    C84     1.416   .     A
C15    C117    1.416   .     A
C16    C116    1.416   .     A
C16    C83     1.416   .     A
C16    C80     1.454   .     S
C17    C64     1.463   .     S
C17    C35     1.402   .     A
C17    C598    1.402   .     S
C18    C604    1.402   1_545 A
C18    C31     1.402   .     S
C18    C63     1.464   .     S
C19    C62     1.463   .     S
C19    C32     1.402   .     A
C19    C321    1.402   1_455 S
C20    C34     1.402   .     A
C20    C322    1.402   1_455 S
C20    C61     1.464   .     S
C21    C43     1.402   .     A
C21    C60     1.464   .     S
C21    C323    1.402   1_455 S
C22    C59     1.463   .     S
C22    C45     1.402   .     A
C22    C324    1.402   .     S
C23    C41     1.402   .     A
C23    C58     1.464   .     S
C23    C614    1.402   .     S
C24    C42     1.391   .     A
C24    H124    1.083   .     S
C24    C624    1.405   1_545 S
C25    C57     1.463   .     S
C25    C42     1.402   .     A
C25    C615    1.402   1_545 S
C26    C43     1.391   .     A
C26    C52     1.404   .     A
C26    H125    1.083   .     S
C27    H126    1.083   .     S
C27    C45     1.391   .     A
C27    C337    1.405   .     S
C28    C46     1.391   .     A
C28    H127    1.083   .     S
C28    C622    1.404   1_545 S
C29    C47     1.391   .     A
C29    C56     1.404   .     A
C29    H128    1.083   .     S
C30    H129    1.083   .     S
C30    C585    1.402   1_545 S
C31    H130    1.083   .     S
C31    C33     1.391   .     A
C32    C44     1.391   .     A
C32    H131    1.083   .     S
C33    H132    1.083   .     S
C33    C617    1.404   1_545 S
C34    C55     1.391   .     A
C34    H133    1.083   .     S
C35    C66     1.391   .     A
C35    H134    1.083   .     S
C36    H135    1.083   .     S
C36    C77     1.391   .     A
C36    C586    1.402   .     A
C37    C88     1.391   .     A
C37    H136    1.083   .     S
C37    C303    1.402   .     S
C38    C99     1.391   .     A
C38    H137    1.083   .     S
C38    C304    1.402   .     S
C39    C110    1.391   .     A
C39    H138    1.083   .     S
C39    C305    1.402   .     S
C40    H139    1.083   .     S
C40    C306    1.402   1_455 S
C41    H140    1.083   .     S
C42    H141    1.083   .     S
C43    H142    1.083   .     S
C44    C50     1.405   .     A
C44    H143    1.083   .     S
C45    H144    1.083   .     S
C46    H145    1.083   .     S
C46    C591    1.402   1_545 S
C47    H146    1.083   .     S
C47    C593    1.402   .     S
C48    C66     1.405   .     A
C48    C569    1.404   .     S
C48    C49     1.474   1_554 S
C49    C77     1.404   .     A
C49    C48     1.474   1_556 S
C49    C601    1.404   .     S
C50    C51     1.474   1_554 S
C50    C372    1.404   1_455 S
C51    C55     1.404   .     A
C51    C50     1.474   1_556 S
C51    C383    1.404   1_455 S
C52    C53     1.474   .     S
C52    C394    1.404   1_455 S
C53    C311    1.405   1_455 S
C54    C56     1.474   .     S
C54    C596    1.404   .     S
C55    H154    1.083   .     S
C56    C592    1.405   .     S
C57    O268    1.281   .     A
C57    O797    1.281   1_545 S
C58    O186    1.281   .     A
C58    O808    1.281   .     S
C59    O187    1.281   .     A
C59    O535    1.281   .     S
C60    O188    1.281   .     A
C60    O546    1.281   1_455 S
C61    O189    1.281   .     S
C61    O193    1.281   .     S
C62    O190    1.281   .     A
C62    O194    1.281   .     A
C63    O191    1.281   .     A
C63    O195    1.281   .     A
C64    O760    1.281   .     S
C64    O765    1.281   .     S
C65    C120    1.452   .     S
C65    O226    1.277   .     A
C65    O198    1.277   .     A
C66    H165    1.083   .     S
C67    O227    1.277   .     A
C67    O199    1.277   .     A
C68    O200    1.278   .     A
C68    O224    1.278   .     A
C69    O201    1.278   .     A
C69    O225    1.278   .     A
C70    O231    1.277   .     A
C70    O202    1.277   .     A
C71    O203    1.277   .     A
C71    O232    1.277   .     A
C72    C118    1.454   .     S
C72    O204    1.277   .     A
C72    O228    1.277   .     A
C73    C119    1.454   .     S
C73    O230    1.277   .     A
C73    O205    1.277   .     A
C74    O217    1.278   .     A
C74    O206    1.278   .     A
C75    O219    1.278   .     A
C75    O208    1.278   .     A
C76    O209    1.277   .     A
C76    O215    1.277   .     A
C77    H176    1.083   .     S
C78    O210    1.277   .     A
C78    O216    1.277   .     A
C79    O222    1.277   .     A
C79    O211    1.277   .     A
C80    O212    1.277   .     A
C80    O223    1.277   .     A
C81    O213    1.277   .     A
C81    O220    1.277   .     A
C82    O221    1.277   .     A
C82    O214    1.277   .     A
C83    O233    1.385   .     S
C83    C100    1.392   .     A
C84    O234    1.385   .     S
C84    C98     1.392   .     A
C85    O235    1.385   .     S
C85    C97     1.392   .     A
C86    O236    1.385   .     S
C86    C96     1.392   .     A
C87    O237    1.382   .     S
C87    C95     1.409   .     A
C88    H182    1.083   .     S
C88    C334    1.404   .     S
C89    C94     1.409   .     A
C89    O238    1.382   .     S
C90    O239    1.385   .     S
C90    C93     1.392   .     A
C91    O241    1.385   .     S
C91    C92     1.392   .     A
C92    O242    1.385   .     S
C93    O243    1.385   .     S
C94    O244    1.383   .     S
C95    O245    1.383   .     S
C96    O246    1.385   .     S
C97    O247    1.385   .     S
C97    C120    1.416   .     A
C98    C119    1.416   .     A
C98    O248    1.385   .     S
C99    H183    1.083   .     S
C99    C335    1.404   .     S
C100   O249    1.385   .     S
C100   C118    1.416   .     A
C101   O250    1.385   .     S
C101   C119    1.416   .     A
C101   C117    1.392   .     A
C102   C118    1.416   .     A
C102   C116    1.392   .     A
C102   O252    1.385   .     S
C103   C115    1.392   .     A
C103   O253    1.385   .     S
C104   O254    1.385   .     S
C104   C120    1.416   .     A
C104   C114    1.392   .     A
C105   C113    1.409   .     A
C105   O255    1.382   .     S
C106   C112    1.409   .     A
C106   O256    1.382   .     S
C107   C111    1.392   .     A
C107   O257    1.385   .     S
C108   C109    1.392   .     A
C108   O258    1.385   .     S
C109   O259    1.385   .     S
C110   H184    1.083   .     S
C110   C336    1.404   .     S
C111   O260    1.385   .     S
C112   O261    1.383   .     S
C113   O263    1.383   .     S
C114   O264    1.385   .     S
C115   O265    1.385   .     S
C116   O266    1.385   .     S
C117   O267    1.385   .     S
H147   O233    0.988   .     S
H148   O234    0.988   .     S
H149   O235    0.988   .     S
H150   O236    0.988   .     S
H151   O237    0.990   .     S
H152   O238    0.991   .     S
H153   O239    0.988   .     S
H155   O241    0.988   .     S
H156   O242    0.988   .     S
H157   O243    0.988   .     S
H158   O244    0.990   .     S
H159   O245    0.990   .     S
H160   O246    0.988   .     S
H161   O247    0.988   .     S
H162   O248    0.988   .     S
H163   O249    0.988   .     S
H164   O250    0.988   .     S
H166   O252    0.988   .     S
H167   O253    0.988   .     S
H168   O254    0.988   .     S
H169   O255    0.991   .     S
H170   O256    0.990   .     S
H171   O257    0.988   .     S
H172   O258    0.988   .     S
H173   O259    0.988   .     S
H174   O260    0.988   .     S
H175   O261    0.990   .     S
H177   O263    0.990   .     S
H178   O264    0.988   .     S
H179   O265    0.988   .     S
H180   O266    0.988   .     S
H181   O267    0.988   .     S
O185   Zn272   1.944   .     S
O185   Zn269   1.945   .     S
O185   Zn280   1.944   .     S
O185   Zn844   1.945   1_545 S
O186   Zn271   1.941   .     S
O187   Zn274   1.941   .     S
O188   Zn273   1.941   .     S
O189   Zn283   1.941   .     S
O190   Zn282   1.941   .     S
O191   Zn277   1.941   .     S
O192   Zn269   1.941   .     S
O192   C632    1.281   1_545 S
O193   Zn279   1.941   .     S
O194   Zn278   1.941   .     S
O195   Zn281   1.941   .     S
O196   Zn277   1.945   .     S
O196   Zn275   1.945   .     S
O196   Zn281   1.944   .     S
O196   Zn839   1.944   1_545 S
O197   Zn280   1.941   .     S
O197   C632    1.281   1_545 S
O198   Zn272   1.934   .     S
O199   Zn271   1.934   .     S
O200   Zn274   1.936   .     S
O201   Zn273   1.936   .     S
O202   Zn276   1.933   .     S
O203   Zn275   1.933   .     S
O204   Zn270   1.936   .     S
O205   Zn284   1.936   .     S
O206   Zn271   1.936   .     S
O207   Zn270   1.945   .     S
O207   Zn278   1.944   .     S
O207   Zn282   1.945   .     S
O207   Zn558   1.944   1_455 S
O208   Zn272   1.936   .     S
O209   Zn284   1.933   .     S
O210   Zn270   1.933   .     S
O211   Zn275   1.936   .     S
O212   Zn276   1.936   .     S
O213   Zn273   1.934   .     S
O214   Zn274   1.934   .     S
O215   Zn563   1.934   .     S
O216   Zn278   1.934   .     S
O217   Zn849   1.936   .     S
O218   Zn279   1.944   .     S
O218   Zn283   1.945   .     S
O218   Zn273   1.944   .     S
O218   Zn568   1.945   1_455 S
O219   Zn280   1.936   .     S
O220   Zn283   1.933   .     S
O221   Zn566   1.933   .     S
O222   Zn277   1.936   .     S
O223   Zn837   1.936   .     S
O224   Zn562   1.936   .     S
O225   Zn279   1.936   .     S
O226   Zn269   1.933   .     S
O227   Zn845   1.933   .     S
O228   Zn282   1.936   .     S
O229   Zn276   1.941   .     S
O229   C625    1.281   .     S
O230   Zn567   1.936   .     S
O231   Zn848   1.934   .     S
O232   Zn281   1.934   .     S
O240   Zn275   1.941   .     S
O240   C626    1.281   1_545 S
O251   Zn270   1.941   .     S
O251   C343    1.281   1_455 S
O262   Zn284   1.941   .     S
O262   C344    1.281   .     S
O268   Zn272   1.941   .     S
Zn269  O791    1.936   1_545 S
Zn271  O764    1.944   .     S
Zn274  O491    1.944   .     S
Zn276  O753    1.945   .     S
Zn277  O795    1.933   1_545 S
Zn278  O508    1.936   1_455 S
Zn279  O499    1.934   1_455 S
Zn280  O799    1.934   1_545 S
Zn281  O785    1.936   1_545 S
Zn282  O505    1.933   1_455 S
Zn283  O514    1.936   1_455 S
Zn284  O502    1.945   .     S
C285   H405    1.083   .     S
C285   C314    1.391   .     A
C285   C900    1.404   1_545 S
C286   C324    1.391   .     A
C286   H406    1.083   .     S
C286   C337    1.404   .     A
C287   C380    1.416   .     A
C287   C387    1.416   .     A
C287   C351    1.452   .     S
C288   C352    1.457   .     S
C288   C390    1.406   .     A
C288   C379    1.406   .     A
C289   C378    1.406   .     A
C289   C353    1.457   .     S
C289   C389    1.406   .     A
C290   C392    1.416   .     A
C290   C377    1.416   .     A
C290   C354    1.452   .     S
C291   C355    1.452   .     S
C291   C391    1.416   .     A
C291   C376    1.416   .     A
C292   C365    1.452   .     S
C292   C375    1.416   .     A
C292   C395    1.416   .     A
C293   C366    1.452   .     S
C293   C393    1.416   .     A
C293   C374    1.416   .     A
C294   C373    1.406   .     A
C294   C358    1.457   .     S
C294   C397    1.406   .     A
C295   C371    1.406   .     A
C295   C396    1.406   .     A
C295   C359    1.457   .     S
C296   C399    1.416   .     A
C296   C360    1.452   .     S
C296   C370    1.416   .     A
C297   C325    1.391   .     A
C297   H407    1.083   .     S
C297   C338    1.404   .     A
C298   C398    1.416   .     A
C298   C369    1.416   .     A
C298   C362    1.452   .     S
C299   C363    1.454   .     S
C299   C368    1.416   .     A
C299   C401    1.416   .     A
C300   C400    1.416   .     A
C300   C367    1.416   .     A
C300   C364    1.454   .     S
C301   C348    1.463   .     S
C301   C319    1.402   .     A
C301   C882    1.402   .     S
C302   C888    1.402   1_545 A
C302   C315    1.402   .     S
C302   C347    1.464   .     S
C303   C346    1.463   .     S
C303   C316    1.402   .     A
C304   C318    1.402   .     A
C304   C345    1.464   .     S
C305   C327    1.402   .     A
C305   C344    1.464   .     S
C306   C343    1.463   .     S
C306   C329    1.402   .     A
C306   C40     1.402   1_655 S
C307   C325    1.402   .     A
C307   C342    1.464   .     S
C307   C898    1.402   .     S
C308   C326    1.391   .     A
C308   H408    1.083   .     S
C308   C908    1.405   1_545 S
C309   C341    1.463   .     S
C309   C326    1.402   .     A
C309   C899    1.402   1_545 S
C310   C327    1.391   .     A
C310   C336    1.404   .     A
C310   H409    1.083   .     S
C311   H410    1.083   .     S
C311   C329    1.391   .     A
C311   C53     1.405   1_655 S
C312   C330    1.391   .     A
C312   H411    1.083   .     S
C312   C906    1.404   1_545 S
C313   C331    1.391   .     A
C313   C340    1.404   .     A
C313   H412    1.083   .     S
C314   H413    1.083   .     S
C314   C869    1.402   1_545 S
C315   H414    1.083   .     S
C315   C317    1.391   .     A
C316   C328    1.391   .     A
C316   H415    1.083   .     S
C317   H416    1.083   .     S
C317   C901    1.404   1_545 S
C318   C339    1.391   .     A
C318   H417    1.083   .     S
C319   C350    1.391   .     A
C319   H418    1.083   .     S
C320   H419    1.083   .     S
C320   C361    1.391   .     A
C320   C870    1.402   .     A
C321   C372    1.391   .     A
C321   H420    1.083   .     S
C321   C19     1.402   1_655 S
C322   C383    1.391   .     A
C322   H421    1.083   .     S
C322   C20     1.402   1_655 S
C323   C394    1.391   .     A
C323   H422    1.083   .     S
C323   C21     1.402   1_655 S
C324   H423    1.083   .     S
C325   H424    1.083   .     S
C326   H425    1.083   .     S
C327   H426    1.083   .     S
C328   C334    1.405   .     A
C328   H427    1.083   .     S
C329   H428    1.083   .     S
C330   H429    1.083   .     S
C330   C875    1.402   1_545 S
C331   H430    1.083   .     S
C331   C877    1.402   .     S
C332   C350    1.405   .     A
C332   C853    1.404   .     S
C332   C333    1.474   1_554 S
C333   C361    1.404   .     A
C333   C332    1.474   1_556 S
C333   C885    1.404   .     S
C334   C335    1.474   1_554 S
C335   C339    1.404   .     A
C335   C334    1.474   1_556 S
C336   C337    1.474   .     S
C338   C340    1.474   .     S
C338   C880    1.404   .     S
C339   H438    1.083   .     S
C340   C876    1.405   .     S
C341   O552    1.281   .     A
C341   O1081   1.281   1_545 S
C342   O470    1.281   .     A
C342   O1092   1.281   .     S
C343   O471    1.281   .     A
C343   O251    1.281   1_655 S
C344   O472    1.281   .     A
C345   O473    1.281   .     S
C345   O477    1.281   .     S
C346   O474    1.281   .     A
C346   O478    1.281   .     A
C347   O475    1.281   .     A
C347   O479    1.281   .     A
C348   O1044   1.281   .     S
C348   O1049   1.281   .     S
C349   C404    1.452   .     S
C349   O510    1.277   .     A
C349   O482    1.277   .     A
C350   H449    1.083   .     S
C351   O511    1.277   .     A
C351   O483    1.277   .     A
C352   O484    1.278   .     A
C352   O508    1.278   .     A
C353   O485    1.278   .     A
C353   O509    1.278   .     A
C354   O515    1.277   .     A
C354   O486    1.277   .     A
C355   O487    1.277   .     A
C355   O516    1.277   .     A
C356   C402    1.454   .     S
C356   O488    1.277   .     A
C356   O512    1.277   .     A
C357   C403    1.454   .     S
C357   O514    1.277   .     A
C357   O489    1.277   .     A
C358   O501    1.278   .     A
C358   O490    1.278   .     A
C359   O503    1.278   .     A
C359   O492    1.278   .     A
C360   O493    1.277   .     A
C360   O499    1.277   .     A
C361   H460    1.083   .     S
C362   O494    1.277   .     A
C362   O500    1.277   .     A
C363   O506    1.277   .     A
C363   O495    1.277   .     A
C364   O496    1.277   .     A
C364   O507    1.277   .     A
C365   O497    1.277   .     A
C365   O504    1.277   .     A
C366   O505    1.277   .     A
C366   O498    1.277   .     A
C367   O517    1.385   .     S
C367   C384    1.392   .     A
C368   O518    1.385   .     S
C368   C382    1.392   .     A
C369   O519    1.385   .     S
C369   C381    1.392   .     A
C370   O520    1.385   .     S
C370   C380    1.392   .     A
C371   O521    1.382   .     S
C371   C379    1.409   .     A
C372   H466    1.083   .     S
C372   C50     1.404   1_655 S
C373   C378    1.409   .     A
C373   O522    1.382   .     S
C374   O523    1.385   .     S
C374   C377    1.392   .     A
C375   O525    1.385   .     S
C375   C376    1.392   .     A
C376   O526    1.385   .     S
C377   O527    1.385   .     S
C378   O528    1.383   .     S
C379   O529    1.383   .     S
C380   O530    1.385   .     S
C381   O531    1.385   .     S
C381   C404    1.416   .     A
C382   C403    1.416   .     A
C382   O532    1.385   .     S
C383   H467    1.083   .     S
C383   C51     1.404   1_655 S
C384   O533    1.385   .     S
C384   C402    1.416   .     A
C385   O534    1.385   .     S
C385   C403    1.416   .     A
C385   C401    1.392   .     A
C386   C402    1.416   .     A
C386   C400    1.392   .     A
C386   O536    1.385   .     S
C387   C399    1.392   .     A
C387   O537    1.385   .     S
C388   O538    1.385   .     S
C388   C404    1.416   .     A
C388   C398    1.392   .     A
C389   C397    1.409   .     A
C389   O539    1.382   .     S
C390   C396    1.409   .     A
C390   O540    1.382   .     S
C391   C395    1.392   .     A
C391   O541    1.385   .     S
C392   C393    1.392   .     A
C392   O542    1.385   .     S
C393   O543    1.385   .     S
C394   H468    1.083   .     S
C394   C52     1.404   1_655 S
C395   O544    1.385   .     S
C396   O545    1.383   .     S
C397   O547    1.383   .     S
C398   O548    1.385   .     S
C399   O549    1.385   .     S
C400   O550    1.385   .     S
C401   O551    1.385   .     S
H431   O517    0.988   .     S
H432   O518    0.988   .     S
H433   O519    0.988   .     S
H434   O520    0.988   .     S
H435   O521    0.990   .     S
H436   O522    0.991   .     S
H437   O523    0.988   .     S
H439   O525    0.988   .     S
H440   O526    0.988   .     S
H441   O527    0.988   .     S
H442   O528    0.990   .     S
H443   O529    0.990   .     S
H444   O530    0.988   .     S
H445   O531    0.988   .     S
H446   O532    0.988   .     S
H447   O533    0.988   .     S
H448   O534    0.988   .     S
H450   O536    0.988   .     S
H451   O537    0.988   .     S
H452   O538    0.988   .     S
H453   O539    0.991   .     S
H454   O540    0.990   .     S
H455   O541    0.988   .     S
H456   O542    0.988   .     S
H457   O543    0.988   .     S
H458   O544    0.988   .     S
H459   O545    0.990   .     S
H461   O547    0.990   .     S
H462   O548    0.988   .     S
H463   O549    0.988   .     S
H464   O550    0.988   .     S
H465   O551    0.988   .     S
O469   Zn556   1.944   .     S
O469   Zn553   1.945   .     S
O469   Zn564   1.944   .     S
O469   Zn1128  1.945   1_545 S
O470   Zn555   1.941   .     S
O471   Zn558   1.941   .     S
O472   Zn557   1.941   .     S
O473   Zn567   1.941   .     S
O474   Zn566   1.941   .     S
O475   Zn561   1.941   .     S
O476   Zn553   1.941   .     S
O476   C916    1.281   1_545 S
O477   Zn563   1.941   .     S
O478   Zn562   1.941   .     S
O479   Zn565   1.941   .     S
O480   Zn561   1.945   .     S
O480   Zn559   1.945   .     S
O480   Zn565   1.944   .     S
O480   Zn1123  1.944   1_545 S
O481   Zn564   1.941   .     S
O481   C916    1.281   1_545 S
O482   Zn556   1.934   .     S
O483   Zn555   1.934   .     S
O484   Zn558   1.936   .     S
O485   Zn557   1.936   .     S
O486   Zn560   1.933   .     S
O487   Zn559   1.933   .     S
O488   Zn554   1.936   .     S
O489   Zn568   1.936   .     S
O490   Zn555   1.936   .     S
O491   Zn554   1.945   .     S
O491   Zn562   1.944   .     S
O491   Zn566   1.945   .     S
O492   Zn556   1.936   .     S
O493   Zn568   1.933   .     S
O494   Zn554   1.933   .     S
O495   Zn559   1.936   .     S
O496   Zn560   1.936   .     S
O497   Zn557   1.934   .     S
O498   Zn558   1.934   .     S
O499   Zn279   1.934   1_655 S
O500   Zn562   1.934   .     S
O501   Zn1133  1.936   .     S
O502   Zn563   1.944   .     S
O502   Zn567   1.945   .     S
O502   Zn557   1.944   .     S
O503   Zn564   1.936   .     S
O504   Zn567   1.933   .     S
O505   Zn282   1.933   1_655 S
O506   Zn561   1.936   .     S
O507   Zn1121  1.936   .     S
O508   Zn278   1.936   1_655 S
O509   Zn563   1.936   .     S
O510   Zn553   1.933   .     S
O511   Zn1129  1.933   .     S
O512   Zn566   1.936   .     S
O513   Zn560   1.941   .     S
O513   C909    1.281   .     S
O514   Zn283   1.936   1_655 S
O515   Zn1132  1.934   .     S
O516   Zn565   1.934   .     S
O524   Zn559   1.941   .     S
O524   C910    1.281   1_545 S
O535   Zn554   1.941   .     S
O546   Zn568   1.941   .     S
O546   C60     1.281   1_655 S
O552   Zn556   1.941   .     S
Zn553  O1075   1.936   1_545 S
Zn555  O1048   1.944   .     S
Zn558  O207    1.944   1_655 S
Zn560  O1037   1.945   .     S
Zn561  O1079   1.933   1_545 S
Zn564  O1083   1.934   1_545 S
Zn565  O1069   1.936   1_545 S
Zn568  O218    1.945   1_655 S
C569   H689    1.083   .     S
C569   C598    1.391   .     A
C570   C608    1.391   .     A
C570   H690    1.083   .     S
C570   C621    1.404   .     A
C571   C664    1.416   .     A
C571   C671    1.416   .     A
C571   C635    1.452   .     S
C572   C636    1.457   .     S
C572   C674    1.406   .     A
C572   C663    1.406   .     A
C573   C662    1.406   .     A
C573   C637    1.457   .     S
C573   C673    1.406   .     A
C574   C676    1.416   .     A
C574   C661    1.416   .     A
C574   C638    1.452   .     S
C575   C639    1.452   .     S
C575   C675    1.416   .     A
C575   C660    1.416   .     A
C576   C649    1.452   .     S
C576   C659    1.416   .     A
C576   C679    1.416   .     A
C577   C650    1.452   .     S
C577   C677    1.416   .     A
C577   C658    1.416   .     A
C578   C657    1.406   .     A
C578   C642    1.457   .     S
C578   C681    1.406   .     A
C579   C655    1.406   .     A
C579   C680    1.406   .     A
C579   C643    1.457   .     S
C580   C683    1.416   .     A
C580   C644    1.452   .     S
C580   C654    1.416   .     A
C581   C609    1.391   .     A
C581   H691    1.083   .     S
C581   C622    1.404   .     A
C582   C682    1.416   .     A
C582   C653    1.416   .     A
C582   C646    1.452   .     S
C583   C647    1.454   .     S
C583   C652    1.416   .     A
C583   C685    1.416   .     A
C584   C684    1.416   .     A
C584   C651    1.416   .     A
C584   C648    1.454   .     S
C585   C632    1.463   .     S
C585   C603    1.402   .     A
C585   C30     1.402   1_565 S
C586   C599    1.402   .     S
C586   C631    1.464   .     S
C587   C630    1.463   .     S
C587   C600    1.402   .     A
C587   C889    1.402   1_455 S
C588   C602    1.402   .     A
C588   C890    1.402   1_455 S
C588   C629    1.464   .     S
C589   C611    1.402   .     A
C589   C628    1.464   .     S
C589   C891    1.402   1_455 S
C590   C627    1.463   .     S
C590   C613    1.402   .     A
C590   C892    1.402   .     S
C591   C609    1.402   .     A
C591   C626    1.464   .     S
C591   C46     1.402   1_565 S
C592   C610    1.391   .     A
C592   H692    1.083   .     S
C593   C625    1.463   .     S
C593   C610    1.402   .     A
C594   C611    1.391   .     A
C594   C620    1.404   .     A
C594   H693    1.083   .     S
C595   H694    1.083   .     S
C595   C613    1.391   .     A
C595   C905    1.405   .     S
C596   C614    1.391   .     A
C596   H695    1.083   .     S
C597   C615    1.391   .     A
C597   C624    1.404   .     A
C597   H696    1.083   .     S
C598   H697    1.083   .     S
C599   H698    1.083   .     S
C599   C601    1.391   .     A
C600   C612    1.391   .     A
C600   H699    1.083   .     S
C601   H700    1.083   .     S
C602   C623    1.391   .     A
C602   H701    1.083   .     S
C603   C634    1.391   .     A
C603   H702    1.083   .     S
C604   H703    1.083   .     S
C604   C645    1.391   .     A
C604   C18     1.402   1_565 A
C605   C656    1.391   .     A
C605   H704    1.083   .     S
C605   C871    1.402   .     S
C606   C667    1.391   .     A
C606   H705    1.083   .     S
C606   C872    1.402   .     S
C607   C678    1.391   .     A
C607   H706    1.083   .     S
C607   C873    1.402   .     S
C608   H707    1.083   .     S
C608   C874    1.402   1_455 S
C609   H708    1.083   .     S
C610   H709    1.083   .     S
C611   H710    1.083   .     S
C612   C618    1.405   .     A
C612   H711    1.083   .     S
C613   H712    1.083   .     S
C614   H713    1.083   .     S
C615   H714    1.083   .     S
C615   C25     1.402   1_565 S
C616   C634    1.405   .     A
C616   C1      1.404   1_565 S
C616   C617    1.474   1_554 S
C617   C645    1.404   .     A
C617   C616    1.474   1_556 S
C617   C33     1.404   1_565 S
C618   C619    1.474   1_554 S
C618   C940    1.404   1_455 S
C619   C623    1.404   .     A
C619   C618    1.474   1_556 S
C619   C951    1.404   1_455 S
C620   C621    1.474   .     S
C620   C962    1.404   1_455 S
C621   C879    1.405   1_455 S
C622   C624    1.474   .     S
C622   C28     1.404   1_565 S
C623   H722    1.083   .     S
C624   C24     1.405   1_565 S
C625   O836    1.281   .     A
C626   O754    1.281   .     A
C626   O240    1.281   1_565 S
C627   O755    1.281   .     A
C627   O1103   1.281   .     S
C628   O756    1.281   .     A
C628   O1114   1.281   1_455 S
C629   O757    1.281   .     S
C629   O761    1.281   .     S
C630   O758    1.281   .     A
C630   O762    1.281   .     A
C631   O759    1.281   .     A
C631   O763    1.281   .     A
C632   O192    1.281   1_565 S
C632   O197    1.281   1_565 S
C633   C688    1.452   .     S
C633   O794    1.277   .     A
C633   O766    1.277   .     A
C634   H733    1.083   .     S
C635   O795    1.277   .     A
C635   O767    1.277   .     A
C636   O768    1.278   .     A
C636   O792    1.278   .     A
C637   O769    1.278   .     A
C637   O793    1.278   .     A
C638   O799    1.277   .     A
C638   O770    1.277   .     A
C639   O771    1.277   .     A
C639   O800    1.277   .     A
C640   C686    1.454   .     S
C640   O772    1.277   .     A
C640   O796    1.277   .     A
C641   C687    1.454   .     S
C641   O798    1.277   .     A
C641   O773    1.277   .     A
C642   O785    1.278   .     A
C642   O774    1.278   .     A
C643   O787    1.278   .     A
C643   O776    1.278   .     A
C644   O777    1.277   .     A
C644   O783    1.277   .     A
C645   H744    1.083   .     S
C646   O778    1.277   .     A
C646   O784    1.277   .     A
C647   O790    1.277   .     A
C647   O779    1.277   .     A
C648   O780    1.277   .     A
C648   O791    1.277   .     A
C649   O781    1.277   .     A
C649   O788    1.277   .     A
C650   O789    1.277   .     A
C650   O782    1.277   .     A
C651   O801    1.385   .     S
C651   C668    1.392   .     A
C652   O802    1.385   .     S
C652   C666    1.392   .     A
C653   O803    1.385   .     S
C653   C665    1.392   .     A
C654   O804    1.385   .     S
C654   C664    1.392   .     A
C655   O805    1.382   .     S
C655   C663    1.409   .     A
C656   H750    1.083   .     S
C656   C902    1.404   .     S
C657   C662    1.409   .     A
C657   O806    1.382   .     S
C658   O807    1.385   .     S
C658   C661    1.392   .     A
C659   O809    1.385   .     S
C659   C660    1.392   .     A
C660   O810    1.385   .     S
C661   O811    1.385   .     S
C662   O812    1.383   .     S
C663   O813    1.383   .     S
C664   O814    1.385   .     S
C665   O815    1.385   .     S
C665   C688    1.416   .     A
C666   C687    1.416   .     A
C666   O816    1.385   .     S
C667   H751    1.083   .     S
C667   C903    1.404   .     S
C668   O817    1.385   .     S
C668   C686    1.416   .     A
C669   O818    1.385   .     S
C669   C687    1.416   .     A
C669   C685    1.392   .     A
C670   C686    1.416   .     A
C670   C684    1.392   .     A
C670   O820    1.385   .     S
C671   C683    1.392   .     A
C671   O821    1.385   .     S
C672   O822    1.385   .     S
C672   C688    1.416   .     A
C672   C682    1.392   .     A
C673   C681    1.409   .     A
C673   O823    1.382   .     S
C674   C680    1.409   .     A
C674   O824    1.382   .     S
C675   C679    1.392   .     A
C675   O825    1.385   .     S
C676   C677    1.392   .     A
C676   O826    1.385   .     S
C677   O827    1.385   .     S
C678   H752    1.083   .     S
C678   C904    1.404   .     S
C679   O828    1.385   .     S
C680   O829    1.383   .     S
C681   O831    1.383   .     S
C682   O832    1.385   .     S
C683   O833    1.385   .     S
C684   O834    1.385   .     S
C685   O835    1.385   .     S
H715   O801    0.988   .     S
H716   O802    0.988   .     S
H717   O803    0.988   .     S
H718   O804    0.988   .     S
H719   O805    0.990   .     S
H720   O806    0.991   .     S
H721   O807    0.988   .     S
H723   O809    0.988   .     S
H724   O810    0.988   .     S
H725   O811    0.988   .     S
H726   O812    0.990   .     S
H727   O813    0.990   .     S
H728   O814    0.988   .     S
H729   O815    0.988   .     S
H730   O816    0.988   .     S
H731   O817    0.988   .     S
H732   O818    0.988   .     S
H734   O820    0.988   .     S
H735   O821    0.988   .     S
H736   O822    0.988   .     S
H737   O823    0.991   .     S
H738   O824    0.990   .     S
H739   O825    0.988   .     S
H740   O826    0.988   .     S
H741   O827    0.988   .     S
H742   O828    0.988   .     S
H743   O829    0.990   .     S
H745   O831    0.990   .     S
H746   O832    0.988   .     S
H747   O833    0.988   .     S
H748   O834    0.988   .     S
H749   O835    0.988   .     S
O753   Zn840   1.944   .     S
O753   Zn837   1.945   .     S
O753   Zn848   1.944   .     S
O754   Zn839   1.941   .     S
O755   Zn842   1.941   .     S
O756   Zn841   1.941   .     S
O757   Zn851   1.941   .     S
O758   Zn850   1.941   .     S
O759   Zn845   1.941   .     S
O760   Zn837   1.941   .     S
O761   Zn847   1.941   .     S
O762   Zn846   1.941   .     S
O763   Zn849   1.941   .     S
O764   Zn845   1.945   .     S
O764   Zn843   1.945   .     S
O764   Zn849   1.944   .     S
O765   Zn848   1.941   .     S
O766   Zn840   1.934   .     S
O767   Zn839   1.934   .     S
O768   Zn842   1.936   .     S
O769   Zn841   1.936   .     S
O770   Zn844   1.933   .     S
O771   Zn843   1.933   .     S
O772   Zn838   1.936   .     S
O773   Zn852   1.936   .     S
O774   Zn839   1.936   .     S
O775   Zn838   1.945   .     S
O775   Zn846   1.944   .     S
O775   Zn850   1.945   .     S
O775   Zn1126  1.944   1_455 S
O776   Zn840   1.936   .     S
O777   Zn852   1.933   .     S
O778   Zn838   1.933   .     S
O779   Zn843   1.936   .     S
O780   Zn844   1.936   .     S
O781   Zn841   1.934   .     S
O782   Zn842   1.934   .     S
O783   Zn1131  1.934   .     S
O784   Zn846   1.934   .     S
O785   Zn281   1.936   1_565 S
O786   Zn847   1.944   .     S
O786   Zn851   1.945   .     S
O786   Zn841   1.944   .     S
O786   Zn1136  1.945   1_455 S
O787   Zn848   1.936   .     S
O788   Zn851   1.933   .     S
O789   Zn1134  1.933   .     S
O790   Zn845   1.936   .     S
O791   Zn269   1.936   1_565 S
O792   Zn1130  1.936   .     S
O793   Zn847   1.936   .     S
O794   Zn837   1.933   .     S
O795   Zn277   1.933   1_565 S
O796   Zn850   1.936   .     S
O797   Zn844   1.941   .     S
O797   C57     1.281   1_565 S
O798   Zn1135  1.936   .     S
O799   Zn280   1.934   1_565 S
O800   Zn849   1.934   .     S
O808   Zn843   1.941   .     S
O819   Zn838   1.941   .     S
O819   C911    1.281   1_455 S
O830   Zn852   1.941   .     S
O830   C912    1.281   .     S
O836   Zn840   1.941   .     S
Zn839  O196    1.944   1_565 S
Zn842  O1059   1.944   .     S
Zn844  O185    1.945   1_565 S
Zn846  O1076   1.936   1_455 S
Zn847  O1067   1.934   1_455 S
Zn850  O1073   1.933   1_455 S
Zn851  O1082   1.936   1_455 S
Zn852  O1070   1.945   .     S
C853   H973    1.083   .     S
C853   C882    1.391   .     A
C854   C892    1.391   .     A
C854   H974    1.083   .     S
C854   C905    1.404   .     A
C855   C948    1.416   .     A
C855   C955    1.416   .     A
C855   C919    1.452   .     S
C856   C920    1.457   .     S
C856   C958    1.406   .     A
C856   C947    1.406   .     A
C857   C946    1.406   .     A
C857   C921    1.457   .     S
C857   C957    1.406   .     A
C858   C960    1.416   .     A
C858   C945    1.416   .     A
C858   C922    1.452   .     S
C859   C923    1.452   .     S
C859   C959    1.416   .     A
C859   C944    1.416   .     A
C860   C933    1.452   .     S
C860   C943    1.416   .     A
C860   C963    1.416   .     A
C861   C934    1.452   .     S
C861   C961    1.416   .     A
C861   C942    1.416   .     A
C862   C941    1.406   .     A
C862   C926    1.457   .     S
C862   C965    1.406   .     A
C863   C939    1.406   .     A
C863   C964    1.406   .     A
C863   C927    1.457   .     S
C864   C967    1.416   .     A
C864   C928    1.452   .     S
C864   C938    1.416   .     A
C865   C893    1.391   .     A
C865   H975    1.083   .     S
C865   C906    1.404   .     A
C866   C966    1.416   .     A
C866   C937    1.416   .     A
C866   C930    1.452   .     S
C867   C931    1.454   .     S
C867   C936    1.416   .     A
C867   C969    1.416   .     A
C868   C968    1.416   .     A
C868   C935    1.416   .     A
C868   C932    1.454   .     S
C869   C916    1.463   .     S
C869   C887    1.402   .     A
C869   C314    1.402   1_565 S
C870   C883    1.402   .     S
C870   C915    1.464   .     S
C871   C914    1.463   .     S
C871   C884    1.402   .     A
C872   C886    1.402   .     A
C872   C913    1.464   .     S
C873   C895    1.402   .     A
C873   C912    1.464   .     S
C874   C911    1.463   .     S
C874   C897    1.402   .     A
C874   C608    1.402   1_655 S
C875   C893    1.402   .     A
C875   C910    1.464   .     S
C875   C330    1.402   1_565 S
C876   C894    1.391   .     A
C876   H976    1.083   .     S
C877   C909    1.463   .     S
C877   C894    1.402   .     A
C878   C895    1.391   .     A
C878   C904    1.404   .     A
C878   H977    1.083   .     S
C879   H978    1.083   .     S
C879   C897    1.391   .     A
C879   C621    1.405   1_655 S
C880   C898    1.391   .     A
C880   H979    1.083   .     S
C881   C899    1.391   .     A
C881   C908    1.404   .     A
C881   H980    1.083   .     S
C882   H981    1.083   .     S
C883   H982    1.083   .     S
C883   C885    1.391   .     A
C884   C896    1.391   .     A
C884   H983    1.083   .     S
C885   H984    1.083   .     S
C886   C907    1.391   .     A
C886   H985    1.083   .     S
C887   C918    1.391   .     A
C887   H986    1.083   .     S
C888   H987    1.083   .     S
C888   C929    1.391   .     A
C888   C302    1.402   1_565 A
C889   C940    1.391   .     A
C889   H988    1.083   .     S
C889   C587    1.402   1_655 S
C890   C951    1.391   .     A
C890   H989    1.083   .     S
C890   C588    1.402   1_655 S
C891   C962    1.391   .     A
C891   H990    1.083   .     S
C891   C589    1.402   1_655 S
C892   H991    1.083   .     S
C893   H992    1.083   .     S
C894   H993    1.083   .     S
C895   H994    1.083   .     S
C896   C902    1.405   .     A
C896   H995    1.083   .     S
C897   H996    1.083   .     S
C898   H997    1.083   .     S
C899   H998    1.083   .     S
C899   C309    1.402   1_565 S
C900   C918    1.405   .     A
C900   C285    1.404   1_565 S
C900   C901    1.474   1_554 S
C901   C929    1.404   .     A
C901   C900    1.474   1_556 S
C901   C317    1.404   1_565 S
C902   C903    1.474   1_554 S
C903   C907    1.404   .     A
C903   C902    1.474   1_556 S
C904   C905    1.474   .     S
C906   C908    1.474   .     S
C906   C312    1.404   1_565 S
C907   H1006   1.083   .     S
C908   C308    1.405   1_565 S
C909   O1120   1.281   .     A
C910   O1038   1.281   .     A
C910   O524    1.281   1_565 S
C911   O1039   1.281   .     A
C911   O819    1.281   1_655 S
C912   O1040   1.281   .     A
C913   O1041   1.281   .     S
C913   O1045   1.281   .     S
C914   O1042   1.281   .     A
C914   O1046   1.281   .     A
C915   O1043   1.281   .     A
C915   O1047   1.281   .     A
C916   O476    1.281   1_565 S
C916   O481    1.281   1_565 S
C917   C972    1.452   .     S
C917   O1078   1.277   .     A
C917   O1050   1.277   .     A
C918   H1017   1.083   .     S
C919   O1079   1.277   .     A
C919   O1051   1.277   .     A
C920   O1052   1.278   .     A
C920   O1076   1.278   .     A
C921   O1053   1.278   .     A
C921   O1077   1.278   .     A
C922   O1083   1.277   .     A
C922   O1054   1.277   .     A
C923   O1055   1.277   .     A
C923   O1084   1.277   .     A
C924   C970    1.454   .     S
C924   O1056   1.277   .     A
C924   O1080   1.277   .     A
C925   C971    1.454   .     S
C925   O1082   1.277   .     A
C925   O1057   1.277   .     A
C926   O1069   1.278   .     A
C926   O1058   1.278   .     A
C927   O1071   1.278   .     A
C927   O1060   1.278   .     A
C928   O1061   1.277   .     A
C928   O1067   1.277   .     A
C929   H1028   1.083   .     S
C930   O1062   1.277   .     A
C930   O1068   1.277   .     A
C931   O1074   1.277   .     A
C931   O1063   1.277   .     A
C932   O1064   1.277   .     A
C932   O1075   1.277   .     A
C933   O1065   1.277   .     A
C933   O1072   1.277   .     A
C934   O1073   1.277   .     A
C934   O1066   1.277   .     A
C935   O1085   1.385   .     S
C935   C952    1.392   .     A
C936   O1086   1.385   .     S
C936   C950    1.392   .     A
C937   O1087   1.385   .     S
C937   C949    1.392   .     A
C938   O1088   1.385   .     S
C938   C948    1.392   .     A
C939   O1089   1.382   .     S
C939   C947    1.409   .     A
C940   H1034   1.083   .     S
C940   C618    1.404   1_655 S
C941   C946    1.409   .     A
C941   O1090   1.382   .     S
C942   O1091   1.385   .     S
C942   C945    1.392   .     A
C943   O1093   1.385   .     S
C943   C944    1.392   .     A
C944   O1094   1.385   .     S
C945   O1095   1.385   .     S
C946   O1096   1.383   .     S
C947   O1097   1.383   .     S
C948   O1098   1.385   .     S
C949   O1099   1.385   .     S
C949   C972    1.416   .     A
C950   C971    1.416   .     A
C950   O1100   1.385   .     S
C951   H1035   1.083   .     S
C951   C619    1.404   1_655 S
C952   O1101   1.385   .     S
C952   C970    1.416   .     A
C953   O1102   1.385   .     S
C953   C971    1.416   .     A
C953   C969    1.392   .     A
C954   C970    1.416   .     A
C954   C968    1.392   .     A
C954   O1104   1.385   .     S
C955   C967    1.392   .     A
C955   O1105   1.385   .     S
C956   O1106   1.385   .     S
C956   C972    1.416   .     A
C956   C966    1.392   .     A
C957   C965    1.409   .     A
C957   O1107   1.382   .     S
C958   C964    1.409   .     A
C958   O1108   1.382   .     S
C959   C963    1.392   .     A
C959   O1109   1.385   .     S
C960   C961    1.392   .     A
C960   O1110   1.385   .     S
C961   O1111   1.385   .     S
C962   H1036   1.083   .     S
C962   C620    1.404   1_655 S
C963   O1112   1.385   .     S
C964   O1113   1.383   .     S
C965   O1115   1.383   .     S
C966   O1116   1.385   .     S
C967   O1117   1.385   .     S
C968   O1118   1.385   .     S
C969   O1119   1.385   .     S
H999   O1085   0.988   .     S
H1000  O1086   0.988   .     S
H1001  O1087   0.988   .     S
H1002  O1088   0.988   .     S
H1003  O1089   0.990   .     S
H1004  O1090   0.991   .     S
H1005  O1091   0.988   .     S
H1007  O1093   0.988   .     S
H1008  O1094   0.988   .     S
H1009  O1095   0.988   .     S
H1010  O1096   0.990   .     S
H1011  O1097   0.990   .     S
H1012  O1098   0.988   .     S
H1013  O1099   0.988   .     S
H1014  O1100   0.988   .     S
H1015  O1101   0.988   .     S
H1016  O1102   0.988   .     S
H1018  O1104   0.988   .     S
H1019  O1105   0.988   .     S
H1020  O1106   0.988   .     S
H1021  O1107   0.991   .     S
H1022  O1108   0.990   .     S
H1023  O1109   0.988   .     S
H1024  O1110   0.988   .     S
H1025  O1111   0.988   .     S
H1026  O1112   0.988   .     S
H1027  O1113   0.990   .     S
H1029  O1115   0.990   .     S
H1030  O1116   0.988   .     S
H1031  O1117   0.988   .     S
H1032  O1118   0.988   .     S
H1033  O1119   0.988   .     S
O1037  Zn1124  1.944   .     S
O1037  Zn1121  1.945   .     S
O1037  Zn1132  1.944   .     S
O1038  Zn1123  1.941   .     S
O1039  Zn1126  1.941   .     S
O1040  Zn1125  1.941   .     S
O1041  Zn1135  1.941   .     S
O1042  Zn1134  1.941   .     S
O1043  Zn1129  1.941   .     S
O1044  Zn1121  1.941   .     S
O1045  Zn1131  1.941   .     S
O1046  Zn1130  1.941   .     S
O1047  Zn1133  1.941   .     S
O1048  Zn1129  1.945   .     S
O1048  Zn1127  1.945   .     S
O1048  Zn1133  1.944   .     S
O1049  Zn1132  1.941   .     S
O1050  Zn1124  1.934   .     S
O1051  Zn1123  1.934   .     S
O1052  Zn1126  1.936   .     S
O1053  Zn1125  1.936   .     S
O1054  Zn1128  1.933   .     S
O1055  Zn1127  1.933   .     S
O1056  Zn1122  1.936   .     S
O1057  Zn1136  1.936   .     S
O1058  Zn1123  1.936   .     S
O1059  Zn1122  1.945   .     S
O1059  Zn1130  1.944   .     S
O1059  Zn1134  1.945   .     S
O1060  Zn1124  1.936   .     S
O1061  Zn1136  1.933   .     S
O1062  Zn1122  1.933   .     S
O1063  Zn1127  1.936   .     S
O1064  Zn1128  1.936   .     S
O1065  Zn1125  1.934   .     S
O1066  Zn1126  1.934   .     S
O1067  Zn847   1.934   1_655 S
O1068  Zn1130  1.934   .     S
O1069  Zn565   1.936   1_565 S
O1070  Zn1131  1.944   .     S
O1070  Zn1135  1.945   .     S
O1070  Zn1125  1.944   .     S
O1071  Zn1132  1.936   .     S
O1072  Zn1135  1.933   .     S
O1073  Zn850   1.933   1_655 S
O1074  Zn1129  1.936   .     S
O1075  Zn553   1.936   1_565 S
O1076  Zn846   1.936   1_655 S
O1077  Zn1131  1.936   .     S
O1078  Zn1121  1.933   .     S
O1079  Zn561   1.933   1_565 S
O1080  Zn1134  1.936   .     S
O1081  Zn1128  1.941   .     S
O1081  C341    1.281   1_565 S
O1082  Zn851   1.936   1_655 S
O1083  Zn564   1.934   1_565 S
O1084  Zn1133  1.934   .     S
O1092  Zn1127  1.941   .     S
O1103  Zn1122  1.941   .     S
O1114  Zn1136  1.941   .     S
O1114  C628    1.281   1_655 S
O1120  Zn1124  1.941   .     S
Zn1123 O480    1.944   1_565 S
Zn1126 O775    1.944   1_655 S
Zn1128 O469    1.945   1_565 S
Zn1136 O786    1.945   1_655 S
