data_str_m3_o1_o18_pcu_sym.114
_audit_creation_date              2020-01-03
_audit_creation_method            'Materials Studio'
_symmetry_space_group_name_H-M    'P1'
_symmetry_Int_Tables_number       1
_symmetry_cell_setting            triclinic
loop_
_symmetry_equiv_pos_as_xyz
  x,y,z
_cell_length_a                    29.9888
_cell_length_b                    31.9847
_cell_length_c                    29.6038
_cell_angle_alpha                 90.3129
_cell_angle_beta                  72.3128
_cell_angle_gamma                 90.0726
loop_
_atom_site_label
_atom_site_type_symbol
_atom_site_fract_x
_atom_site_fract_y
_atom_site_fract_z
_atom_site_U_iso_or_equiv
_atom_site_adp_type
_atom_site_occupancy
C1     C     0.16684   0.24649   0.24966   0.00000  Uiso   1.00
C2     C     0.16650   0.08684   0.25033   0.00000  Uiso   1.00
C3     C     0.10637   0.09384   0.05048   0.00000  Uiso   1.00
C4     C     0.21470   0.08277   0.45521   0.00000  Uiso   1.00
C5     C     0.07487   0.10496   0.02639   0.00000  Uiso   1.00
C6     C     0.24804   0.08674   0.47940   0.00000  Uiso   1.00
C7     C     0.20791   0.31215   0.22550   0.00000  Uiso   1.00
C8     C     0.12543   0.02120   0.27448   0.00000  Uiso   1.00
C9     C     0.20750   0.02170   0.22607   0.00000  Uiso   1.00
C10    C     0.12583   0.31165   0.27388   0.00000  Uiso   1.00
C11    C     0.16637   0.04264   0.25045   0.00000  Uiso   1.00
C12    C     0.16697   0.29070   0.24952   0.00000  Uiso   1.00
C13    C     0.31615   0.13553   0.22800   0.00000  Uiso   1.00
C14    C     0.01703   0.19744   0.27265   0.00000  Uiso   1.00
C15    C     0.03052   0.13578   0.22758   0.00000  Uiso   1.00
C16    C     0.30280   0.19750   0.27252   0.00000  Uiso   1.00
C17    C     0.13844   0.16537   0.33838   0.00000  Uiso   1.00
C18    C     0.19502   0.16505   0.16142   0.00000  Uiso   1.00
C19    C     0.12460   0.15573   0.38944   0.00000  Uiso   1.00
C20    C     0.20855   0.15163   0.11099   0.00000  Uiso   1.00
C21    C     0.06783   0.15604   0.46704   0.00000  Uiso   1.00
C22    C     0.26758   0.13005   0.03908   0.00000  Uiso   1.00
C23    C     0.08106   0.16863   0.41951   0.00000  Uiso   1.00
C24    C     0.25533   0.15203   0.08233   0.00000  Uiso   1.00
C25    C     0.15588   0.13381   0.40847   0.00000  Uiso   1.00
C26    C     0.17390   0.13543   0.09214   0.00000  Uiso   1.00
C27    C     0.13911   0.11562   0.45408   0.00000  Uiso   1.00
C28    C     0.18701   0.11123   0.04983   0.00000  Uiso   1.00
C29    C     0.09248   0.12426   0.48171   0.00000  Uiso   1.00
C30    C     0.23482   0.10763   0.02392   0.00000  Uiso   1.00
C31    C     0.16884   0.09656   0.47743   0.00000  Uiso   1.00
C32    C     0.15413   0.09817   0.02727   0.00000  Uiso   1.00
H33    H     0.23892   0.03850   0.20693   0.00000  Uiso   1.00
H34    H     0.09440   0.29486   0.29298   0.00000  Uiso   1.00
N35    N     0.04759   0.16668   0.25001   0.00000  Uiso   1.00
N36    N     0.28574   0.16666   0.24999   0.00000  Uiso   1.00
O37    O     0.12846   0.22775   0.25001   0.00000  Uiso   1.00
O38    O     0.20488   0.10558   0.25000   0.00000  Uiso   1.00
O39    O     0.20490   0.22774   0.25000   0.00000  Uiso   1.00
O40    O     0.12843   0.10559   0.25000   0.00000  Uiso   1.00
O41    O     0.10661   0.16667   0.31613   0.00000  Uiso   1.00
O42    O     0.22672   0.16666   0.18388   0.00000  Uiso   1.00
O43    O     0.18305   0.16666   0.31612   0.00000  Uiso   1.00
O44    O     0.15028   0.16667   0.18388   0.00000  Uiso   1.00
Zn45   Zn    0.11562   0.16667   0.25000   0.00000  Uiso   1.00
Zn46   Zn    0.21771   0.16666   0.25000   0.00000  Uiso   1.00
O47    O     0.02757   0.09952   0.04731   0.00000  Uiso   1.00
C48    C     0.01697   0.05644   0.04884   0.00000  Uiso   1.00
H49    H     0.02917   0.04016   0.07596   0.00000  Uiso   1.00
H50    H     0.03186   0.04114   0.01358   0.00000  Uiso   1.00
H51    H     0.31174   0.05281   0.05935   0.00000  Uiso   1.00
O52    O     0.29441   0.07725   0.45631   0.00000  Uiso   1.00
C53    C     0.30010   0.03349   0.45610   0.00000  Uiso   1.00
H54    H     0.28226   0.01781   0.43277   0.00000  Uiso   1.00
H55    H     0.28738   0.02035   0.49255   0.00000  Uiso   1.00
H56    H     0.00463   0.02623   0.44165   0.00000  Uiso   1.00
O57    O     0.12763   0.14704   0.11257   0.00000  Uiso   1.00
C58    C     0.12067   0.18677   0.09521   0.00000  Uiso   1.00
H59    H     0.12566   0.18558   0.05641   0.00000  Uiso   1.00
H60    H     0.14407   0.21084   0.10322   0.00000  Uiso   1.00
H61    H     0.08417   0.19675   0.11318   0.00000  Uiso   1.00
O62    O     0.20304   0.13276   0.38355   0.00000  Uiso   1.00
C63    C     0.22465   0.16860   0.39566   0.00000  Uiso   1.00
H64    H     0.22228   0.16894   0.43390   0.00000  Uiso   1.00
H65    H     0.20952   0.19797   0.38659   0.00000  Uiso   1.00
H66    H     0.26223   0.16792   0.37492   0.00000  Uiso   1.00
O67    O     0.28539   0.18209   0.09040   0.00000  Uiso   1.00
C68    C     0.31606   0.16482   0.11321   0.00000  Uiso   1.00
H69    H     0.30870   0.13165   0.12437   0.00000  Uiso   1.00
H70    H     0.31409   0.18387   0.14517   0.00000  Uiso   1.00
H71    H     0.01911   0.16770   0.08969   0.00000  Uiso   1.00
O72    O     0.05677   0.19955   0.40410   0.00000  Uiso   1.00
C73    C     0.01001   0.18712   0.41113   0.00000  Uiso   1.00
H74    H     0.00700   0.15367   0.40165   0.00000  Uiso   1.00
H75    H     0.32885   0.20621   0.38775   0.00000  Uiso   1.00
H76    H     0.32162   0.19368   0.44808   0.00000  Uiso   1.00
F77    F     0.03915   0.18144   0.00012   0.00000  Uiso   1.00
F78    F     0.30973   0.13557   0.00782   0.00000  Uiso   1.00
F79    F     0.09065   0.08037   0.09605   0.00000  Uiso   1.00
F80    F     0.22718   0.06615   0.41081   0.00000  Uiso   1.00
F81    F     0.24760   0.29177   0.20069   0.00000  Uiso   1.00
F82    F     0.08576   0.04158   0.29933   0.00000  Uiso   1.00
F83    F     0.30070   0.10374   0.20630   0.00000  Uiso   1.00
F84    F     0.03216   0.22844   0.29571   0.00000  Uiso   1.00
F85    F     0.05942   0.10475   0.20459   0.00000  Uiso   1.00
F86    F     0.27388   0.22850   0.29557   0.00000  Uiso   1.00
C87    C     0.50017   0.24649   0.24966   0.00000  Uiso   1.00
C88    C     0.49984   0.08684   0.25033   0.00000  Uiso   1.00
C89    C     0.43970   0.09384   0.05048   0.00000  Uiso   1.00
C90    C     0.54803   0.08277   0.45521   0.00000  Uiso   1.00
C91    C     0.40821   0.10496   0.02639   0.00000  Uiso   1.00
C92    C     0.58137   0.08674   0.47940   0.00000  Uiso   1.00
C93    C     0.54124   0.31215   0.22550   0.00000  Uiso   1.00
C94    C     0.45877   0.02120   0.27448   0.00000  Uiso   1.00
C95    C     0.54084   0.02170   0.22607   0.00000  Uiso   1.00
C96    C     0.45916   0.31165   0.27388   0.00000  Uiso   1.00
C97    C     0.49970   0.04264   0.25045   0.00000  Uiso   1.00
C98    C     0.50030   0.29070   0.24952   0.00000  Uiso   1.00
C99    C     0.64948   0.13553   0.22800   0.00000  Uiso   1.00
C100   C     0.35036   0.19744   0.27265   0.00000  Uiso   1.00
C101   C     0.36385   0.13578   0.22758   0.00000  Uiso   1.00
C102   C     0.63613   0.19750   0.27252   0.00000  Uiso   1.00
C103   C     0.47177   0.16537   0.33838   0.00000  Uiso   1.00
C104   C     0.52835   0.16505   0.16142   0.00000  Uiso   1.00
C105   C     0.45794   0.15573   0.38944   0.00000  Uiso   1.00
C106   C     0.54188   0.15163   0.11099   0.00000  Uiso   1.00
C107   C     0.40116   0.15604   0.46704   0.00000  Uiso   1.00
C108   C     0.60092   0.13005   0.03908   0.00000  Uiso   1.00
C109   C     0.41440   0.16863   0.41951   0.00000  Uiso   1.00
C110   C     0.58866   0.15203   0.08233   0.00000  Uiso   1.00
C111   C     0.48922   0.13381   0.40847   0.00000  Uiso   1.00
C112   C     0.50724   0.13543   0.09214   0.00000  Uiso   1.00
C113   C     0.47244   0.11562   0.45408   0.00000  Uiso   1.00
C114   C     0.52034   0.11123   0.04983   0.00000  Uiso   1.00
C115   C     0.42581   0.12426   0.48171   0.00000  Uiso   1.00
C116   C     0.56816   0.10763   0.02392   0.00000  Uiso   1.00
C117   C     0.50218   0.09656   0.47743   0.00000  Uiso   1.00
C118   C     0.48746   0.09817   0.02727   0.00000  Uiso   1.00
H119   H     0.57225   0.03850   0.20693   0.00000  Uiso   1.00
H120   H     0.42774   0.29486   0.29298   0.00000  Uiso   1.00
N121   N     0.38093   0.16668   0.25001   0.00000  Uiso   1.00
N122   N     0.61907   0.16666   0.24999   0.00000  Uiso   1.00
O123   O     0.46179   0.22775   0.25001   0.00000  Uiso   1.00
O124   O     0.53821   0.10558   0.25000   0.00000  Uiso   1.00
O125   O     0.53823   0.22774   0.25000   0.00000  Uiso   1.00
O126   O     0.46177   0.10559   0.25000   0.00000  Uiso   1.00
O127   O     0.43994   0.16667   0.31613   0.00000  Uiso   1.00
O128   O     0.56006   0.16666   0.18388   0.00000  Uiso   1.00
O129   O     0.51639   0.16666   0.31612   0.00000  Uiso   1.00
O130   O     0.48361   0.16667   0.18388   0.00000  Uiso   1.00
Zn131  Zn    0.44896   0.16667   0.25000   0.00000  Uiso   1.00
Zn132  Zn    0.55104   0.16666   0.25000   0.00000  Uiso   1.00
O133   O     0.36090   0.09952   0.04731   0.00000  Uiso   1.00
C134   C     0.35031   0.05644   0.04884   0.00000  Uiso   1.00
H135   H     0.36250   0.04016   0.07596   0.00000  Uiso   1.00
H136   H     0.36519   0.04114   0.01358   0.00000  Uiso   1.00
H137   H     0.64507   0.05281   0.05935   0.00000  Uiso   1.00
O138   O     0.62774   0.07725   0.45631   0.00000  Uiso   1.00
C139   C     0.63344   0.03349   0.45610   0.00000  Uiso   1.00
H140   H     0.61559   0.01781   0.43277   0.00000  Uiso   1.00
H141   H     0.62072   0.02035   0.49255   0.00000  Uiso   1.00
H142   H     0.33797   0.02623   0.44165   0.00000  Uiso   1.00
O143   O     0.46096   0.14704   0.11257   0.00000  Uiso   1.00
C144   C     0.45401   0.18677   0.09521   0.00000  Uiso   1.00
H145   H     0.45899   0.18558   0.05641   0.00000  Uiso   1.00
H146   H     0.47740   0.21084   0.10322   0.00000  Uiso   1.00
H147   H     0.41750   0.19675   0.11318   0.00000  Uiso   1.00
O148   O     0.53637   0.13276   0.38355   0.00000  Uiso   1.00
C149   C     0.55798   0.16860   0.39566   0.00000  Uiso   1.00
H150   H     0.55561   0.16894   0.43390   0.00000  Uiso   1.00
H151   H     0.54285   0.19797   0.38659   0.00000  Uiso   1.00
H152   H     0.59556   0.16792   0.37492   0.00000  Uiso   1.00
O153   O     0.61872   0.18209   0.09040   0.00000  Uiso   1.00
C154   C     0.64939   0.16482   0.11321   0.00000  Uiso   1.00
H155   H     0.64204   0.13165   0.12437   0.00000  Uiso   1.00
H156   H     0.64742   0.18387   0.14517   0.00000  Uiso   1.00
H157   H     0.35245   0.16770   0.08969   0.00000  Uiso   1.00
O158   O     0.39011   0.19955   0.40410   0.00000  Uiso   1.00
C159   C     0.34334   0.18712   0.41113   0.00000  Uiso   1.00
H160   H     0.34033   0.15367   0.40165   0.00000  Uiso   1.00
H161   H     0.66218   0.20621   0.38775   0.00000  Uiso   1.00
H162   H     0.65495   0.19368   0.44808   0.00000  Uiso   1.00
F163   F     0.37248   0.18144   0.00012   0.00000  Uiso   1.00
F164   F     0.64306   0.13557   0.00782   0.00000  Uiso   1.00
F165   F     0.42399   0.08037   0.09605   0.00000  Uiso   1.00
F166   F     0.56051   0.06615   0.41081   0.00000  Uiso   1.00
F167   F     0.58093   0.29177   0.20069   0.00000  Uiso   1.00
F168   F     0.41910   0.04158   0.29933   0.00000  Uiso   1.00
F169   F     0.63403   0.10374   0.20630   0.00000  Uiso   1.00
F170   F     0.36549   0.22844   0.29571   0.00000  Uiso   1.00
F171   F     0.39275   0.10475   0.20459   0.00000  Uiso   1.00
F172   F     0.60722   0.22850   0.29557   0.00000  Uiso   1.00
C173   C     0.83350   0.24649   0.24966   0.00000  Uiso   1.00
C174   C     0.83317   0.08684   0.25033   0.00000  Uiso   1.00
C175   C     0.77304   0.09384   0.05048   0.00000  Uiso   1.00
C176   C     0.88136   0.08277   0.45521   0.00000  Uiso   1.00
C177   C     0.74154   0.10496   0.02639   0.00000  Uiso   1.00
C178   C     0.91471   0.08674   0.47940   0.00000  Uiso   1.00
C179   C     0.87458   0.31215   0.22550   0.00000  Uiso   1.00
C180   C     0.79210   0.02120   0.27448   0.00000  Uiso   1.00
C181   C     0.87417   0.02170   0.22607   0.00000  Uiso   1.00
C182   C     0.79249   0.31165   0.27388   0.00000  Uiso   1.00
C183   C     0.83304   0.04264   0.25045   0.00000  Uiso   1.00
C184   C     0.83364   0.29070   0.24952   0.00000  Uiso   1.00
C185   C     0.98282   0.13553   0.22800   0.00000  Uiso   1.00
C186   C     0.68369   0.19744   0.27265   0.00000  Uiso   1.00
C187   C     0.69719   0.13578   0.22758   0.00000  Uiso   1.00
C188   C     0.96947   0.19750   0.27252   0.00000  Uiso   1.00
C189   C     0.80511   0.16537   0.33838   0.00000  Uiso   1.00
C190   C     0.86169   0.16505   0.16142   0.00000  Uiso   1.00
C191   C     0.79127   0.15573   0.38944   0.00000  Uiso   1.00
C192   C     0.87522   0.15163   0.11099   0.00000  Uiso   1.00
C193   C     0.73450   0.15604   0.46704   0.00000  Uiso   1.00
C194   C     0.93425   0.13005   0.03908   0.00000  Uiso   1.00
C195   C     0.74773   0.16863   0.41951   0.00000  Uiso   1.00
C196   C     0.92200   0.15203   0.08233   0.00000  Uiso   1.00
C197   C     0.82255   0.13381   0.40847   0.00000  Uiso   1.00
C198   C     0.84057   0.13543   0.09214   0.00000  Uiso   1.00
C199   C     0.80577   0.11562   0.45408   0.00000  Uiso   1.00
C200   C     0.85368   0.11123   0.04983   0.00000  Uiso   1.00
C201   C     0.75915   0.12426   0.48171   0.00000  Uiso   1.00
C202   C     0.90149   0.10763   0.02392   0.00000  Uiso   1.00
C203   C     0.83551   0.09656   0.47743   0.00000  Uiso   1.00
C204   C     0.82079   0.09817   0.02727   0.00000  Uiso   1.00
H205   H     0.90558   0.03850   0.20693   0.00000  Uiso   1.00
H206   H     0.76107   0.29486   0.29298   0.00000  Uiso   1.00
N207   N     0.71426   0.16668   0.25001   0.00000  Uiso   1.00
N208   N     0.95241   0.16666   0.24999   0.00000  Uiso   1.00
O209   O     0.79512   0.22775   0.25001   0.00000  Uiso   1.00
O210   O     0.87154   0.10558   0.25000   0.00000  Uiso   1.00
O211   O     0.87157   0.22774   0.25000   0.00000  Uiso   1.00
O212   O     0.79510   0.10559   0.25000   0.00000  Uiso   1.00
O213   O     0.77328   0.16667   0.31613   0.00000  Uiso   1.00
O214   O     0.89339   0.16666   0.18388   0.00000  Uiso   1.00
O215   O     0.84972   0.16666   0.31612   0.00000  Uiso   1.00
O216   O     0.81695   0.16667   0.18388   0.00000  Uiso   1.00
Zn217  Zn    0.78229   0.16667   0.25000   0.00000  Uiso   1.00
Zn218  Zn    0.88438   0.16666   0.25000   0.00000  Uiso   1.00
O219   O     0.69424   0.09952   0.04731   0.00000  Uiso   1.00
C220   C     0.68364   0.05644   0.04884   0.00000  Uiso   1.00
H221   H     0.69584   0.04016   0.07596   0.00000  Uiso   1.00
H222   H     0.69853   0.04114   0.01358   0.00000  Uiso   1.00
H223   H     0.97840   0.05281   0.05935   0.00000  Uiso   1.00
O224   O     0.96108   0.07725   0.45631   0.00000  Uiso   1.00
C225   C     0.96677   0.03349   0.45610   0.00000  Uiso   1.00
H226   H     0.94893   0.01781   0.43277   0.00000  Uiso   1.00
H227   H     0.95405   0.02035   0.49255   0.00000  Uiso   1.00
H228   H     0.67130   0.02623   0.44165   0.00000  Uiso   1.00
O229   O     0.79430   0.14704   0.11257   0.00000  Uiso   1.00
C230   C     0.78734   0.18677   0.09521   0.00000  Uiso   1.00
H231   H     0.79232   0.18558   0.05641   0.00000  Uiso   1.00
H232   H     0.81074   0.21084   0.10322   0.00000  Uiso   1.00
H233   H     0.75083   0.19675   0.11318   0.00000  Uiso   1.00
O234   O     0.86970   0.13276   0.38355   0.00000  Uiso   1.00
C235   C     0.89131   0.16860   0.39566   0.00000  Uiso   1.00
H236   H     0.88894   0.16894   0.43390   0.00000  Uiso   1.00
H237   H     0.87618   0.19797   0.38659   0.00000  Uiso   1.00
H238   H     0.92890   0.16792   0.37492   0.00000  Uiso   1.00
O239   O     0.95205   0.18209   0.09040   0.00000  Uiso   1.00
C240   C     0.98272   0.16482   0.11321   0.00000  Uiso   1.00
H241   H     0.97537   0.13165   0.12437   0.00000  Uiso   1.00
H242   H     0.98075   0.18387   0.14517   0.00000  Uiso   1.00
H243   H     0.68578   0.16770   0.08969   0.00000  Uiso   1.00
O244   O     0.72344   0.19955   0.40410   0.00000  Uiso   1.00
C245   C     0.67667   0.18712   0.41113   0.00000  Uiso   1.00
H246   H     0.67367   0.15367   0.40165   0.00000  Uiso   1.00
H247   H     0.99552   0.20621   0.38775   0.00000  Uiso   1.00
H248   H     0.98828   0.19368   0.44808   0.00000  Uiso   1.00
F249   F     0.70582   0.18144   0.00012   0.00000  Uiso   1.00
F250   F     0.97640   0.13557   0.00782   0.00000  Uiso   1.00
F251   F     0.75732   0.08037   0.09605   0.00000  Uiso   1.00
F252   F     0.89385   0.06615   0.41081   0.00000  Uiso   1.00
F253   F     0.91426   0.29177   0.20069   0.00000  Uiso   1.00
F254   F     0.75243   0.04158   0.29933   0.00000  Uiso   1.00
F255   F     0.96737   0.10374   0.20630   0.00000  Uiso   1.00
F256   F     0.69883   0.22844   0.29571   0.00000  Uiso   1.00
F257   F     0.72609   0.10475   0.20459   0.00000  Uiso   1.00
F258   F     0.94055   0.22850   0.29557   0.00000  Uiso   1.00
C259   C     0.16684   0.57983   0.24966   0.00000  Uiso   1.00
C260   C     0.16650   0.42017   0.25033   0.00000  Uiso   1.00
C261   C     0.10637   0.42717   0.05048   0.00000  Uiso   1.00
C262   C     0.21470   0.41610   0.45521   0.00000  Uiso   1.00
C263   C     0.07487   0.43829   0.02639   0.00000  Uiso   1.00
C264   C     0.24804   0.42007   0.47940   0.00000  Uiso   1.00
C265   C     0.20791   0.64548   0.22550   0.00000  Uiso   1.00
C266   C     0.12543   0.35454   0.27448   0.00000  Uiso   1.00
C267   C     0.20750   0.35503   0.22607   0.00000  Uiso   1.00
C268   C     0.12583   0.64499   0.27388   0.00000  Uiso   1.00
C269   C     0.16637   0.37598   0.25045   0.00000  Uiso   1.00
C270   C     0.16697   0.62404   0.24952   0.00000  Uiso   1.00
C271   C     0.31615   0.46887   0.22800   0.00000  Uiso   1.00
C272   C     0.01703   0.53078   0.27265   0.00000  Uiso   1.00
C273   C     0.03052   0.46911   0.22758   0.00000  Uiso   1.00
C274   C     0.30280   0.53083   0.27252   0.00000  Uiso   1.00
C275   C     0.13844   0.49870   0.33838   0.00000  Uiso   1.00
C276   C     0.19502   0.49838   0.16142   0.00000  Uiso   1.00
C277   C     0.12460   0.48907   0.38944   0.00000  Uiso   1.00
C278   C     0.20855   0.48496   0.11099   0.00000  Uiso   1.00
C279   C     0.06783   0.48937   0.46704   0.00000  Uiso   1.00
C280   C     0.26758   0.46338   0.03908   0.00000  Uiso   1.00
C281   C     0.08106   0.50197   0.41951   0.00000  Uiso   1.00
C282   C     0.25533   0.48536   0.08233   0.00000  Uiso   1.00
C283   C     0.15588   0.46714   0.40847   0.00000  Uiso   1.00
C284   C     0.17390   0.46877   0.09214   0.00000  Uiso   1.00
C285   C     0.13911   0.44896   0.45408   0.00000  Uiso   1.00
C286   C     0.18701   0.44456   0.04983   0.00000  Uiso   1.00
C287   C     0.09248   0.45759   0.48171   0.00000  Uiso   1.00
C288   C     0.23482   0.44096   0.02392   0.00000  Uiso   1.00
C289   C     0.16884   0.42990   0.47743   0.00000  Uiso   1.00
C290   C     0.15413   0.43150   0.02727   0.00000  Uiso   1.00
H291   H     0.23892   0.37183   0.20693   0.00000  Uiso   1.00
H292   H     0.09440   0.62819   0.29298   0.00000  Uiso   1.00
N293   N     0.04759   0.50001   0.25001   0.00000  Uiso   1.00
N294   N     0.28574   0.49999   0.24999   0.00000  Uiso   1.00
O295   O     0.12846   0.56108   0.25001   0.00000  Uiso   1.00
O296   O     0.20488   0.43892   0.25000   0.00000  Uiso   1.00
O297   O     0.20490   0.56107   0.25000   0.00000  Uiso   1.00
O298   O     0.12843   0.43893   0.25000   0.00000  Uiso   1.00
O299   O     0.10661   0.50001   0.31613   0.00000  Uiso   1.00
O300   O     0.22672   0.49999   0.18388   0.00000  Uiso   1.00
O301   O     0.18305   0.50000   0.31612   0.00000  Uiso   1.00
O302   O     0.15028   0.50000   0.18388   0.00000  Uiso   1.00
Zn303  Zn    0.11562   0.50001   0.25000   0.00000  Uiso   1.00
Zn304  Zn    0.21771   0.49999   0.25000   0.00000  Uiso   1.00
O305   O     0.02757   0.43286   0.04731   0.00000  Uiso   1.00
C306   C     0.01697   0.38978   0.04884   0.00000  Uiso   1.00
H307   H     0.02917   0.37349   0.07596   0.00000  Uiso   1.00
H308   H     0.03186   0.37448   0.01358   0.00000  Uiso   1.00
H309   H     0.31174   0.38614   0.05935   0.00000  Uiso   1.00
O310   O     0.29441   0.41059   0.45631   0.00000  Uiso   1.00
C311   C     0.30010   0.36682   0.45610   0.00000  Uiso   1.00
H312   H     0.28226   0.35114   0.43277   0.00000  Uiso   1.00
H313   H     0.28738   0.35368   0.49255   0.00000  Uiso   1.00
H314   H     0.00463   0.35956   0.44165   0.00000  Uiso   1.00
O315   O     0.12763   0.48037   0.11257   0.00000  Uiso   1.00
C316   C     0.12067   0.52010   0.09521   0.00000  Uiso   1.00
H317   H     0.12566   0.51891   0.05641   0.00000  Uiso   1.00
H318   H     0.14407   0.54417   0.10322   0.00000  Uiso   1.00
H319   H     0.08417   0.53009   0.11318   0.00000  Uiso   1.00
O320   O     0.20304   0.46609   0.38355   0.00000  Uiso   1.00
C321   C     0.22465   0.50193   0.39566   0.00000  Uiso   1.00
H322   H     0.22228   0.50228   0.43390   0.00000  Uiso   1.00
H323   H     0.20952   0.53130   0.38659   0.00000  Uiso   1.00
H324   H     0.26223   0.50126   0.37492   0.00000  Uiso   1.00
O325   O     0.28539   0.51543   0.09040   0.00000  Uiso   1.00
C326   C     0.31606   0.49815   0.11321   0.00000  Uiso   1.00
H327   H     0.30870   0.46498   0.12437   0.00000  Uiso   1.00
H328   H     0.31409   0.51720   0.14517   0.00000  Uiso   1.00
H329   H     0.01911   0.50103   0.08969   0.00000  Uiso   1.00
O330   O     0.05677   0.53288   0.40410   0.00000  Uiso   1.00
C331   C     0.01001   0.52046   0.41113   0.00000  Uiso   1.00
H332   H     0.00700   0.48700   0.40165   0.00000  Uiso   1.00
H333   H     0.32885   0.53955   0.38775   0.00000  Uiso   1.00
H334   H     0.32162   0.52702   0.44808   0.00000  Uiso   1.00
F335   F     0.03915   0.51478   0.00012   0.00000  Uiso   1.00
F336   F     0.30973   0.46890   0.00782   0.00000  Uiso   1.00
F337   F     0.09065   0.41370   0.09605   0.00000  Uiso   1.00
F338   F     0.22718   0.39948   0.41081   0.00000  Uiso   1.00
F339   F     0.24760   0.62510   0.20069   0.00000  Uiso   1.00
F340   F     0.08576   0.37492   0.29933   0.00000  Uiso   1.00
F341   F     0.30070   0.43708   0.20630   0.00000  Uiso   1.00
F342   F     0.03216   0.56177   0.29571   0.00000  Uiso   1.00
F343   F     0.05942   0.43808   0.20459   0.00000  Uiso   1.00
F344   F     0.27388   0.56183   0.29557   0.00000  Uiso   1.00
C345   C     0.50017   0.57983   0.24966   0.00000  Uiso   1.00
C346   C     0.49984   0.42017   0.25033   0.00000  Uiso   1.00
C347   C     0.43970   0.42717   0.05048   0.00000  Uiso   1.00
C348   C     0.54803   0.41610   0.45521   0.00000  Uiso   1.00
C349   C     0.40821   0.43829   0.02639   0.00000  Uiso   1.00
C350   C     0.58137   0.42007   0.47940   0.00000  Uiso   1.00
C351   C     0.54124   0.64548   0.22550   0.00000  Uiso   1.00
C352   C     0.45877   0.35454   0.27448   0.00000  Uiso   1.00
C353   C     0.54084   0.35503   0.22607   0.00000  Uiso   1.00
C354   C     0.45916   0.64499   0.27388   0.00000  Uiso   1.00
C355   C     0.49970   0.37598   0.25045   0.00000  Uiso   1.00
C356   C     0.50030   0.62404   0.24952   0.00000  Uiso   1.00
C357   C     0.64948   0.46887   0.22800   0.00000  Uiso   1.00
C358   C     0.35036   0.53078   0.27265   0.00000  Uiso   1.00
C359   C     0.36385   0.46911   0.22758   0.00000  Uiso   1.00
C360   C     0.63613   0.53083   0.27252   0.00000  Uiso   1.00
C361   C     0.47177   0.49870   0.33838   0.00000  Uiso   1.00
C362   C     0.52835   0.49838   0.16142   0.00000  Uiso   1.00
C363   C     0.45794   0.48907   0.38944   0.00000  Uiso   1.00
C364   C     0.54188   0.48496   0.11099   0.00000  Uiso   1.00
C365   C     0.40116   0.48937   0.46704   0.00000  Uiso   1.00
C366   C     0.60092   0.46338   0.03908   0.00000  Uiso   1.00
C367   C     0.41440   0.50197   0.41951   0.00000  Uiso   1.00
C368   C     0.58866   0.48536   0.08233   0.00000  Uiso   1.00
C369   C     0.48922   0.46714   0.40847   0.00000  Uiso   1.00
C370   C     0.50724   0.46877   0.09214   0.00000  Uiso   1.00
C371   C     0.47244   0.44896   0.45408   0.00000  Uiso   1.00
C372   C     0.52034   0.44456   0.04983   0.00000  Uiso   1.00
C373   C     0.42581   0.45759   0.48171   0.00000  Uiso   1.00
C374   C     0.56816   0.44096   0.02392   0.00000  Uiso   1.00
C375   C     0.50218   0.42990   0.47743   0.00000  Uiso   1.00
C376   C     0.48746   0.43150   0.02727   0.00000  Uiso   1.00
H377   H     0.57225   0.37183   0.20693   0.00000  Uiso   1.00
H378   H     0.42774   0.62819   0.29298   0.00000  Uiso   1.00
N379   N     0.38093   0.50001   0.25001   0.00000  Uiso   1.00
N380   N     0.61907   0.49999   0.24999   0.00000  Uiso   1.00
O381   O     0.46179   0.56108   0.25001   0.00000  Uiso   1.00
O382   O     0.53821   0.43892   0.25000   0.00000  Uiso   1.00
O383   O     0.53823   0.56107   0.25000   0.00000  Uiso   1.00
O384   O     0.46177   0.43893   0.25000   0.00000  Uiso   1.00
O385   O     0.43994   0.50001   0.31613   0.00000  Uiso   1.00
O386   O     0.56006   0.49999   0.18388   0.00000  Uiso   1.00
O387   O     0.51639   0.50000   0.31612   0.00000  Uiso   1.00
O388   O     0.48361   0.50000   0.18388   0.00000  Uiso   1.00
Zn389  Zn    0.44896   0.50001   0.25000   0.00000  Uiso   1.00
Zn390  Zn    0.55104   0.49999   0.25000   0.00000  Uiso   1.00
O391   O     0.36090   0.43286   0.04731   0.00000  Uiso   1.00
C392   C     0.35031   0.38978   0.04884   0.00000  Uiso   1.00
H393   H     0.36250   0.37349   0.07596   0.00000  Uiso   1.00
H394   H     0.36519   0.37448   0.01358   0.00000  Uiso   1.00
H395   H     0.64507   0.38614   0.05935   0.00000  Uiso   1.00
O396   O     0.62774   0.41059   0.45631   0.00000  Uiso   1.00
C397   C     0.63344   0.36682   0.45610   0.00000  Uiso   1.00
H398   H     0.61559   0.35114   0.43277   0.00000  Uiso   1.00
H399   H     0.62072   0.35368   0.49255   0.00000  Uiso   1.00
H400   H     0.33797   0.35956   0.44165   0.00000  Uiso   1.00
O401   O     0.46096   0.48037   0.11257   0.00000  Uiso   1.00
C402   C     0.45401   0.52010   0.09521   0.00000  Uiso   1.00
H403   H     0.45899   0.51891   0.05641   0.00000  Uiso   1.00
H404   H     0.47740   0.54417   0.10322   0.00000  Uiso   1.00
H405   H     0.41750   0.53009   0.11318   0.00000  Uiso   1.00
O406   O     0.53637   0.46609   0.38355   0.00000  Uiso   1.00
C407   C     0.55798   0.50193   0.39566   0.00000  Uiso   1.00
H408   H     0.55561   0.50228   0.43390   0.00000  Uiso   1.00
H409   H     0.54285   0.53130   0.38659   0.00000  Uiso   1.00
H410   H     0.59556   0.50126   0.37492   0.00000  Uiso   1.00
O411   O     0.61872   0.51543   0.09040   0.00000  Uiso   1.00
C412   C     0.64939   0.49815   0.11321   0.00000  Uiso   1.00
H413   H     0.64204   0.46498   0.12437   0.00000  Uiso   1.00
H414   H     0.64742   0.51720   0.14517   0.00000  Uiso   1.00
H415   H     0.35245   0.50103   0.08969   0.00000  Uiso   1.00
O416   O     0.39011   0.53288   0.40410   0.00000  Uiso   1.00
C417   C     0.34334   0.52046   0.41113   0.00000  Uiso   1.00
H418   H     0.34033   0.48700   0.40165   0.00000  Uiso   1.00
H419   H     0.66218   0.53955   0.38775   0.00000  Uiso   1.00
H420   H     0.65495   0.52702   0.44808   0.00000  Uiso   1.00
F421   F     0.37248   0.51478   0.00012   0.00000  Uiso   1.00
F422   F     0.64306   0.46890   0.00782   0.00000  Uiso   1.00
F423   F     0.42399   0.41370   0.09605   0.00000  Uiso   1.00
F424   F     0.56051   0.39948   0.41081   0.00000  Uiso   1.00
F425   F     0.58093   0.62510   0.20069   0.00000  Uiso   1.00
F426   F     0.41910   0.37492   0.29933   0.00000  Uiso   1.00
F427   F     0.63403   0.43708   0.20630   0.00000  Uiso   1.00
F428   F     0.36549   0.56177   0.29571   0.00000  Uiso   1.00
F429   F     0.39275   0.43808   0.20459   0.00000  Uiso   1.00
F430   F     0.60722   0.56183   0.29557   0.00000  Uiso   1.00
C431   C     0.83350   0.57983   0.24966   0.00000  Uiso   1.00
C432   C     0.83317   0.42017   0.25033   0.00000  Uiso   1.00
C433   C     0.77304   0.42717   0.05048   0.00000  Uiso   1.00
C434   C     0.88136   0.41610   0.45521   0.00000  Uiso   1.00
C435   C     0.74154   0.43829   0.02639   0.00000  Uiso   1.00
C436   C     0.91471   0.42007   0.47940   0.00000  Uiso   1.00
C437   C     0.87458   0.64548   0.22550   0.00000  Uiso   1.00
C438   C     0.79210   0.35454   0.27448   0.00000  Uiso   1.00
C439   C     0.87417   0.35503   0.22607   0.00000  Uiso   1.00
C440   C     0.79249   0.64499   0.27388   0.00000  Uiso   1.00
C441   C     0.83304   0.37598   0.25045   0.00000  Uiso   1.00
C442   C     0.83364   0.62404   0.24952   0.00000  Uiso   1.00
C443   C     0.98282   0.46887   0.22800   0.00000  Uiso   1.00
C444   C     0.68369   0.53078   0.27265   0.00000  Uiso   1.00
C445   C     0.69719   0.46911   0.22758   0.00000  Uiso   1.00
C446   C     0.96947   0.53083   0.27252   0.00000  Uiso   1.00
C447   C     0.80511   0.49870   0.33838   0.00000  Uiso   1.00
C448   C     0.86169   0.49838   0.16142   0.00000  Uiso   1.00
C449   C     0.79127   0.48907   0.38944   0.00000  Uiso   1.00
C450   C     0.87522   0.48496   0.11099   0.00000  Uiso   1.00
C451   C     0.73450   0.48937   0.46704   0.00000  Uiso   1.00
C452   C     0.93425   0.46338   0.03908   0.00000  Uiso   1.00
C453   C     0.74773   0.50197   0.41951   0.00000  Uiso   1.00
C454   C     0.92200   0.48536   0.08233   0.00000  Uiso   1.00
C455   C     0.82255   0.46714   0.40847   0.00000  Uiso   1.00
C456   C     0.84057   0.46877   0.09214   0.00000  Uiso   1.00
C457   C     0.80577   0.44896   0.45408   0.00000  Uiso   1.00
C458   C     0.85368   0.44456   0.04983   0.00000  Uiso   1.00
C459   C     0.75915   0.45759   0.48171   0.00000  Uiso   1.00
C460   C     0.90149   0.44096   0.02392   0.00000  Uiso   1.00
C461   C     0.83551   0.42990   0.47743   0.00000  Uiso   1.00
C462   C     0.82079   0.43150   0.02727   0.00000  Uiso   1.00
H463   H     0.90558   0.37183   0.20693   0.00000  Uiso   1.00
H464   H     0.76107   0.62819   0.29298   0.00000  Uiso   1.00
N465   N     0.71426   0.50001   0.25001   0.00000  Uiso   1.00
N466   N     0.95241   0.49999   0.24999   0.00000  Uiso   1.00
O467   O     0.79512   0.56108   0.25001   0.00000  Uiso   1.00
O468   O     0.87154   0.43892   0.25000   0.00000  Uiso   1.00
O469   O     0.87157   0.56107   0.25000   0.00000  Uiso   1.00
O470   O     0.79510   0.43893   0.25000   0.00000  Uiso   1.00
O471   O     0.77328   0.50001   0.31613   0.00000  Uiso   1.00
O472   O     0.89339   0.49999   0.18388   0.00000  Uiso   1.00
O473   O     0.84972   0.50000   0.31612   0.00000  Uiso   1.00
O474   O     0.81695   0.50000   0.18388   0.00000  Uiso   1.00
Zn475  Zn    0.78229   0.50001   0.25000   0.00000  Uiso   1.00
Zn476  Zn    0.88438   0.49999   0.25000   0.00000  Uiso   1.00
O477   O     0.69424   0.43286   0.04731   0.00000  Uiso   1.00
C478   C     0.68364   0.38978   0.04884   0.00000  Uiso   1.00
H479   H     0.69584   0.37349   0.07596   0.00000  Uiso   1.00
H480   H     0.69853   0.37448   0.01358   0.00000  Uiso   1.00
H481   H     0.97840   0.38614   0.05935   0.00000  Uiso   1.00
O482   O     0.96108   0.41059   0.45631   0.00000  Uiso   1.00
C483   C     0.96677   0.36682   0.45610   0.00000  Uiso   1.00
H484   H     0.94893   0.35114   0.43277   0.00000  Uiso   1.00
H485   H     0.95405   0.35368   0.49255   0.00000  Uiso   1.00
H486   H     0.67130   0.35956   0.44165   0.00000  Uiso   1.00
O487   O     0.79430   0.48037   0.11257   0.00000  Uiso   1.00
C488   C     0.78734   0.52010   0.09521   0.00000  Uiso   1.00
H489   H     0.79232   0.51891   0.05641   0.00000  Uiso   1.00
H490   H     0.81074   0.54417   0.10322   0.00000  Uiso   1.00
H491   H     0.75083   0.53009   0.11318   0.00000  Uiso   1.00
O492   O     0.86970   0.46609   0.38355   0.00000  Uiso   1.00
C493   C     0.89131   0.50193   0.39566   0.00000  Uiso   1.00
H494   H     0.88894   0.50228   0.43390   0.00000  Uiso   1.00
H495   H     0.87618   0.53130   0.38659   0.00000  Uiso   1.00
H496   H     0.92890   0.50126   0.37492   0.00000  Uiso   1.00
O497   O     0.95205   0.51543   0.09040   0.00000  Uiso   1.00
C498   C     0.98272   0.49815   0.11321   0.00000  Uiso   1.00
H499   H     0.97537   0.46498   0.12437   0.00000  Uiso   1.00
H500   H     0.98075   0.51720   0.14517   0.00000  Uiso   1.00
H501   H     0.68578   0.50103   0.08969   0.00000  Uiso   1.00
O502   O     0.72344   0.53288   0.40410   0.00000  Uiso   1.00
C503   C     0.67667   0.52046   0.41113   0.00000  Uiso   1.00
H504   H     0.67367   0.48700   0.40165   0.00000  Uiso   1.00
H505   H     0.99552   0.53955   0.38775   0.00000  Uiso   1.00
H506   H     0.98828   0.52702   0.44808   0.00000  Uiso   1.00
F507   F     0.70582   0.51478   0.00012   0.00000  Uiso   1.00
F508   F     0.97640   0.46890   0.00782   0.00000  Uiso   1.00
F509   F     0.75732   0.41370   0.09605   0.00000  Uiso   1.00
F510   F     0.89385   0.39948   0.41081   0.00000  Uiso   1.00
F511   F     0.91426   0.62510   0.20069   0.00000  Uiso   1.00
F512   F     0.75243   0.37492   0.29933   0.00000  Uiso   1.00
F513   F     0.96737   0.43708   0.20630   0.00000  Uiso   1.00
F514   F     0.69883   0.56177   0.29571   0.00000  Uiso   1.00
F515   F     0.72609   0.43808   0.20459   0.00000  Uiso   1.00
F516   F     0.94055   0.56183   0.29557   0.00000  Uiso   1.00
C517   C     0.16684   0.91316   0.24966   0.00000  Uiso   1.00
C518   C     0.16650   0.75351   0.25033   0.00000  Uiso   1.00
C519   C     0.10637   0.76051   0.05048   0.00000  Uiso   1.00
C520   C     0.21470   0.74943   0.45521   0.00000  Uiso   1.00
C521   C     0.07487   0.77162   0.02639   0.00000  Uiso   1.00
C522   C     0.24804   0.75340   0.47940   0.00000  Uiso   1.00
C523   C     0.20791   0.97881   0.22550   0.00000  Uiso   1.00
C524   C     0.12543   0.68787   0.27448   0.00000  Uiso   1.00
C525   C     0.20750   0.68836   0.22607   0.00000  Uiso   1.00
C526   C     0.12583   0.97832   0.27388   0.00000  Uiso   1.00
C527   C     0.16637   0.70931   0.25045   0.00000  Uiso   1.00
C528   C     0.16697   0.95737   0.24952   0.00000  Uiso   1.00
C529   C     0.31615   0.80220   0.22800   0.00000  Uiso   1.00
C530   C     0.01703   0.86411   0.27265   0.00000  Uiso   1.00
C531   C     0.03052   0.80245   0.22758   0.00000  Uiso   1.00
C532   C     0.30280   0.86417   0.27252   0.00000  Uiso   1.00
C533   C     0.13844   0.83203   0.33838   0.00000  Uiso   1.00
C534   C     0.19502   0.83171   0.16142   0.00000  Uiso   1.00
C535   C     0.12460   0.82240   0.38944   0.00000  Uiso   1.00
C536   C     0.20855   0.81830   0.11099   0.00000  Uiso   1.00
C537   C     0.06783   0.82271   0.46704   0.00000  Uiso   1.00
C538   C     0.26758   0.79671   0.03908   0.00000  Uiso   1.00
C539   C     0.08106   0.83530   0.41951   0.00000  Uiso   1.00
C540   C     0.25533   0.81869   0.08233   0.00000  Uiso   1.00
C541   C     0.15588   0.80048   0.40847   0.00000  Uiso   1.00
C542   C     0.17390   0.80210   0.09214   0.00000  Uiso   1.00
C543   C     0.13911   0.78229   0.45408   0.00000  Uiso   1.00
C544   C     0.18701   0.77790   0.04983   0.00000  Uiso   1.00
C545   C     0.09248   0.79092   0.48171   0.00000  Uiso   1.00
C546   C     0.23482   0.77429   0.02392   0.00000  Uiso   1.00
C547   C     0.16884   0.76323   0.47743   0.00000  Uiso   1.00
C548   C     0.15413   0.76484   0.02727   0.00000  Uiso   1.00
H549   H     0.23892   0.70516   0.20693   0.00000  Uiso   1.00
H550   H     0.09440   0.96152   0.29298   0.00000  Uiso   1.00
N551   N     0.04759   0.83334   0.25001   0.00000  Uiso   1.00
N552   N     0.28574   0.83332   0.24999   0.00000  Uiso   1.00
O553   O     0.12846   0.89442   0.25001   0.00000  Uiso   1.00
O554   O     0.20488   0.77225   0.25000   0.00000  Uiso   1.00
O555   O     0.20490   0.89441   0.25000   0.00000  Uiso   1.00
O556   O     0.12843   0.77226   0.25000   0.00000  Uiso   1.00
O557   O     0.10661   0.83334   0.31613   0.00000  Uiso   1.00
O558   O     0.22672   0.83333   0.18388   0.00000  Uiso   1.00
O559   O     0.18305   0.83333   0.31612   0.00000  Uiso   1.00
O560   O     0.15028   0.83334   0.18388   0.00000  Uiso   1.00
Zn561  Zn    0.11562   0.83334   0.25000   0.00000  Uiso   1.00
Zn562  Zn    0.21771   0.83333   0.25000   0.00000  Uiso   1.00
O563   O     0.02757   0.76619   0.04731   0.00000  Uiso   1.00
C564   C     0.01697   0.72311   0.04884   0.00000  Uiso   1.00
H565   H     0.02917   0.70682   0.07596   0.00000  Uiso   1.00
H566   H     0.03186   0.70781   0.01358   0.00000  Uiso   1.00
H567   H     0.31174   0.71948   0.05935   0.00000  Uiso   1.00
O568   O     0.29441   0.74392   0.45631   0.00000  Uiso   1.00
C569   C     0.30010   0.70015   0.45610   0.00000  Uiso   1.00
H570   H     0.28226   0.68448   0.43277   0.00000  Uiso   1.00
H571   H     0.28738   0.68701   0.49255   0.00000  Uiso   1.00
H572   H     0.00463   0.69290   0.44165   0.00000  Uiso   1.00
O573   O     0.12763   0.81371   0.11257   0.00000  Uiso   1.00
C574   C     0.12067   0.85344   0.09521   0.00000  Uiso   1.00
H575   H     0.12566   0.85224   0.05641   0.00000  Uiso   1.00
H576   H     0.14407   0.87751   0.10322   0.00000  Uiso   1.00
H577   H     0.08417   0.86342   0.11318   0.00000  Uiso   1.00
O578   O     0.20304   0.79942   0.38355   0.00000  Uiso   1.00
C579   C     0.22465   0.83526   0.39566   0.00000  Uiso   1.00
H580   H     0.22228   0.83561   0.43390   0.00000  Uiso   1.00
H581   H     0.20952   0.86463   0.38659   0.00000  Uiso   1.00
H582   H     0.26223   0.83459   0.37492   0.00000  Uiso   1.00
O583   O     0.28539   0.84876   0.09040   0.00000  Uiso   1.00
C584   C     0.31606   0.83148   0.11321   0.00000  Uiso   1.00
H585   H     0.30870   0.79831   0.12437   0.00000  Uiso   1.00
H586   H     0.31409   0.85053   0.14517   0.00000  Uiso   1.00
H587   H     0.01911   0.83436   0.08969   0.00000  Uiso   1.00
O588   O     0.05677   0.86621   0.40410   0.00000  Uiso   1.00
C589   C     0.01001   0.85379   0.41113   0.00000  Uiso   1.00
H590   H     0.00700   0.82034   0.40165   0.00000  Uiso   1.00
H591   H     0.32885   0.87288   0.38775   0.00000  Uiso   1.00
H592   H     0.32162   0.86035   0.44808   0.00000  Uiso   1.00
F593   F     0.03915   0.84811   0.00012   0.00000  Uiso   1.00
F594   F     0.30973   0.80223   0.00782   0.00000  Uiso   1.00
F595   F     0.09065   0.74703   0.09605   0.00000  Uiso   1.00
F596   F     0.22718   0.73281   0.41081   0.00000  Uiso   1.00
F597   F     0.24760   0.95843   0.20069   0.00000  Uiso   1.00
F598   F     0.08576   0.70825   0.29933   0.00000  Uiso   1.00
F599   F     0.30070   0.77041   0.20630   0.00000  Uiso   1.00
F600   F     0.03216   0.89511   0.29571   0.00000  Uiso   1.00
F601   F     0.05942   0.77142   0.20459   0.00000  Uiso   1.00
F602   F     0.27388   0.89517   0.29557   0.00000  Uiso   1.00
C603   C     0.50017   0.91316   0.24966   0.00000  Uiso   1.00
C604   C     0.49984   0.75351   0.25033   0.00000  Uiso   1.00
C605   C     0.43970   0.76051   0.05048   0.00000  Uiso   1.00
C606   C     0.54803   0.74943   0.45521   0.00000  Uiso   1.00
C607   C     0.40821   0.77162   0.02639   0.00000  Uiso   1.00
C608   C     0.58137   0.75340   0.47940   0.00000  Uiso   1.00
C609   C     0.54124   0.97881   0.22550   0.00000  Uiso   1.00
C610   C     0.45877   0.68787   0.27448   0.00000  Uiso   1.00
C611   C     0.54084   0.68836   0.22607   0.00000  Uiso   1.00
C612   C     0.45916   0.97832   0.27388   0.00000  Uiso   1.00
C613   C     0.49970   0.70931   0.25045   0.00000  Uiso   1.00
C614   C     0.50030   0.95737   0.24952   0.00000  Uiso   1.00
C615   C     0.64948   0.80220   0.22800   0.00000  Uiso   1.00
C616   C     0.35036   0.86411   0.27265   0.00000  Uiso   1.00
C617   C     0.36385   0.80245   0.22758   0.00000  Uiso   1.00
C618   C     0.63613   0.86417   0.27252   0.00000  Uiso   1.00
C619   C     0.47177   0.83203   0.33838   0.00000  Uiso   1.00
C620   C     0.52835   0.83171   0.16142   0.00000  Uiso   1.00
C621   C     0.45794   0.82240   0.38944   0.00000  Uiso   1.00
C622   C     0.54188   0.81830   0.11099   0.00000  Uiso   1.00
C623   C     0.40116   0.82271   0.46704   0.00000  Uiso   1.00
C624   C     0.60092   0.79671   0.03908   0.00000  Uiso   1.00
C625   C     0.41440   0.83530   0.41951   0.00000  Uiso   1.00
C626   C     0.58866   0.81869   0.08233   0.00000  Uiso   1.00
C627   C     0.48922   0.80048   0.40847   0.00000  Uiso   1.00
C628   C     0.50724   0.80210   0.09214   0.00000  Uiso   1.00
C629   C     0.47244   0.78229   0.45408   0.00000  Uiso   1.00
C630   C     0.52034   0.77790   0.04983   0.00000  Uiso   1.00
C631   C     0.42581   0.79092   0.48171   0.00000  Uiso   1.00
C632   C     0.56816   0.77429   0.02392   0.00000  Uiso   1.00
C633   C     0.50218   0.76323   0.47743   0.00000  Uiso   1.00
C634   C     0.48746   0.76484   0.02727   0.00000  Uiso   1.00
H635   H     0.57225   0.70516   0.20693   0.00000  Uiso   1.00
H636   H     0.42774   0.96152   0.29298   0.00000  Uiso   1.00
N637   N     0.38093   0.83334   0.25001   0.00000  Uiso   1.00
N638   N     0.61907   0.83332   0.24999   0.00000  Uiso   1.00
O639   O     0.46179   0.89442   0.25001   0.00000  Uiso   1.00
O640   O     0.53821   0.77225   0.25000   0.00000  Uiso   1.00
O641   O     0.53823   0.89441   0.25000   0.00000  Uiso   1.00
O642   O     0.46177   0.77226   0.25000   0.00000  Uiso   1.00
O643   O     0.43994   0.83334   0.31613   0.00000  Uiso   1.00
O644   O     0.56006   0.83333   0.18388   0.00000  Uiso   1.00
O645   O     0.51639   0.83333   0.31612   0.00000  Uiso   1.00
O646   O     0.48361   0.83334   0.18388   0.00000  Uiso   1.00
Zn647  Zn    0.44896   0.83334   0.25000   0.00000  Uiso   1.00
Zn648  Zn    0.55104   0.83333   0.25000   0.00000  Uiso   1.00
O649   O     0.36090   0.76619   0.04731   0.00000  Uiso   1.00
C650   C     0.35031   0.72311   0.04884   0.00000  Uiso   1.00
H651   H     0.36250   0.70682   0.07596   0.00000  Uiso   1.00
H652   H     0.36519   0.70781   0.01358   0.00000  Uiso   1.00
H653   H     0.64507   0.71948   0.05935   0.00000  Uiso   1.00
O654   O     0.62774   0.74392   0.45631   0.00000  Uiso   1.00
C655   C     0.63344   0.70015   0.45610   0.00000  Uiso   1.00
H656   H     0.61559   0.68448   0.43277   0.00000  Uiso   1.00
H657   H     0.62072   0.68701   0.49255   0.00000  Uiso   1.00
H658   H     0.33797   0.69290   0.44165   0.00000  Uiso   1.00
O659   O     0.46096   0.81371   0.11257   0.00000  Uiso   1.00
C660   C     0.45401   0.85344   0.09521   0.00000  Uiso   1.00
H661   H     0.45899   0.85224   0.05641   0.00000  Uiso   1.00
H662   H     0.47740   0.87751   0.10322   0.00000  Uiso   1.00
H663   H     0.41750   0.86342   0.11318   0.00000  Uiso   1.00
O664   O     0.53637   0.79942   0.38355   0.00000  Uiso   1.00
C665   C     0.55798   0.83526   0.39566   0.00000  Uiso   1.00
H666   H     0.55561   0.83561   0.43390   0.00000  Uiso   1.00
H667   H     0.54285   0.86463   0.38659   0.00000  Uiso   1.00
H668   H     0.59556   0.83459   0.37492   0.00000  Uiso   1.00
O669   O     0.61872   0.84876   0.09040   0.00000  Uiso   1.00
C670   C     0.64939   0.83148   0.11321   0.00000  Uiso   1.00
H671   H     0.64204   0.79831   0.12437   0.00000  Uiso   1.00
H672   H     0.64742   0.85053   0.14517   0.00000  Uiso   1.00
H673   H     0.35245   0.83436   0.08969   0.00000  Uiso   1.00
O674   O     0.39011   0.86621   0.40410   0.00000  Uiso   1.00
C675   C     0.34334   0.85379   0.41113   0.00000  Uiso   1.00
H676   H     0.34033   0.82034   0.40165   0.00000  Uiso   1.00
H677   H     0.66218   0.87288   0.38775   0.00000  Uiso   1.00
H678   H     0.65495   0.86035   0.44808   0.00000  Uiso   1.00
F679   F     0.37248   0.84811   0.00012   0.00000  Uiso   1.00
F680   F     0.64306   0.80223   0.00782   0.00000  Uiso   1.00
F681   F     0.42399   0.74703   0.09605   0.00000  Uiso   1.00
F682   F     0.56051   0.73281   0.41081   0.00000  Uiso   1.00
F683   F     0.58093   0.95843   0.20069   0.00000  Uiso   1.00
F684   F     0.41910   0.70825   0.29933   0.00000  Uiso   1.00
F685   F     0.63403   0.77041   0.20630   0.00000  Uiso   1.00
F686   F     0.36549   0.89511   0.29571   0.00000  Uiso   1.00
F687   F     0.39275   0.77142   0.20459   0.00000  Uiso   1.00
F688   F     0.60722   0.89517   0.29557   0.00000  Uiso   1.00
C689   C     0.83350   0.91316   0.24966   0.00000  Uiso   1.00
C690   C     0.83317   0.75351   0.25033   0.00000  Uiso   1.00
C691   C     0.77304   0.76051   0.05048   0.00000  Uiso   1.00
C692   C     0.88136   0.74943   0.45521   0.00000  Uiso   1.00
C693   C     0.74154   0.77162   0.02639   0.00000  Uiso   1.00
C694   C     0.91471   0.75340   0.47940   0.00000  Uiso   1.00
C695   C     0.87458   0.97881   0.22550   0.00000  Uiso   1.00
C696   C     0.79210   0.68787   0.27448   0.00000  Uiso   1.00
C697   C     0.87417   0.68836   0.22607   0.00000  Uiso   1.00
C698   C     0.79249   0.97832   0.27388   0.00000  Uiso   1.00
C699   C     0.83304   0.70931   0.25045   0.00000  Uiso   1.00
C700   C     0.83364   0.95737   0.24952   0.00000  Uiso   1.00
C701   C     0.98282   0.80220   0.22800   0.00000  Uiso   1.00
C702   C     0.68369   0.86411   0.27265   0.00000  Uiso   1.00
C703   C     0.69719   0.80245   0.22758   0.00000  Uiso   1.00
C704   C     0.96947   0.86417   0.27252   0.00000  Uiso   1.00
C705   C     0.80511   0.83203   0.33838   0.00000  Uiso   1.00
C706   C     0.86169   0.83171   0.16142   0.00000  Uiso   1.00
C707   C     0.79127   0.82240   0.38944   0.00000  Uiso   1.00
C708   C     0.87522   0.81830   0.11099   0.00000  Uiso   1.00
C709   C     0.73450   0.82271   0.46704   0.00000  Uiso   1.00
C710   C     0.93425   0.79671   0.03908   0.00000  Uiso   1.00
C711   C     0.74773   0.83530   0.41951   0.00000  Uiso   1.00
C712   C     0.92200   0.81869   0.08233   0.00000  Uiso   1.00
C713   C     0.82255   0.80048   0.40847   0.00000  Uiso   1.00
C714   C     0.84057   0.80210   0.09214   0.00000  Uiso   1.00
C715   C     0.80577   0.78229   0.45408   0.00000  Uiso   1.00
C716   C     0.85368   0.77790   0.04983   0.00000  Uiso   1.00
C717   C     0.75915   0.79092   0.48171   0.00000  Uiso   1.00
C718   C     0.90149   0.77429   0.02392   0.00000  Uiso   1.00
C719   C     0.83551   0.76323   0.47743   0.00000  Uiso   1.00
C720   C     0.82079   0.76484   0.02727   0.00000  Uiso   1.00
H721   H     0.90558   0.70516   0.20693   0.00000  Uiso   1.00
H722   H     0.76107   0.96152   0.29298   0.00000  Uiso   1.00
N723   N     0.71426   0.83334   0.25001   0.00000  Uiso   1.00
N724   N     0.95241   0.83332   0.24999   0.00000  Uiso   1.00
O725   O     0.79512   0.89442   0.25001   0.00000  Uiso   1.00
O726   O     0.87154   0.77225   0.25000   0.00000  Uiso   1.00
O727   O     0.87157   0.89441   0.25000   0.00000  Uiso   1.00
O728   O     0.79510   0.77226   0.25000   0.00000  Uiso   1.00
O729   O     0.77328   0.83334   0.31613   0.00000  Uiso   1.00
O730   O     0.89339   0.83333   0.18388   0.00000  Uiso   1.00
O731   O     0.84972   0.83333   0.31612   0.00000  Uiso   1.00
O732   O     0.81695   0.83334   0.18388   0.00000  Uiso   1.00
Zn733  Zn    0.78229   0.83334   0.25000   0.00000  Uiso   1.00
Zn734  Zn    0.88438   0.83333   0.25000   0.00000  Uiso   1.00
O735   O     0.69424   0.76619   0.04731   0.00000  Uiso   1.00
C736   C     0.68364   0.72311   0.04884   0.00000  Uiso   1.00
H737   H     0.69584   0.70682   0.07596   0.00000  Uiso   1.00
H738   H     0.69853   0.70781   0.01358   0.00000  Uiso   1.00
H739   H     0.97840   0.71948   0.05935   0.00000  Uiso   1.00
O740   O     0.96108   0.74392   0.45631   0.00000  Uiso   1.00
C741   C     0.96677   0.70015   0.45610   0.00000  Uiso   1.00
H742   H     0.94893   0.68448   0.43277   0.00000  Uiso   1.00
H743   H     0.95405   0.68701   0.49255   0.00000  Uiso   1.00
H744   H     0.67130   0.69290   0.44165   0.00000  Uiso   1.00
O745   O     0.79430   0.81371   0.11257   0.00000  Uiso   1.00
C746   C     0.78734   0.85344   0.09521   0.00000  Uiso   1.00
H747   H     0.79232   0.85224   0.05641   0.00000  Uiso   1.00
H748   H     0.81074   0.87751   0.10322   0.00000  Uiso   1.00
H749   H     0.75083   0.86342   0.11318   0.00000  Uiso   1.00
O750   O     0.86970   0.79942   0.38355   0.00000  Uiso   1.00
C751   C     0.89131   0.83526   0.39566   0.00000  Uiso   1.00
H752   H     0.88894   0.83561   0.43390   0.00000  Uiso   1.00
H753   H     0.87618   0.86463   0.38659   0.00000  Uiso   1.00
H754   H     0.92890   0.83459   0.37492   0.00000  Uiso   1.00
O755   O     0.95205   0.84876   0.09040   0.00000  Uiso   1.00
C756   C     0.98272   0.83148   0.11321   0.00000  Uiso   1.00
H757   H     0.97537   0.79831   0.12437   0.00000  Uiso   1.00
H758   H     0.98075   0.85053   0.14517   0.00000  Uiso   1.00
H759   H     0.68578   0.83436   0.08969   0.00000  Uiso   1.00
O760   O     0.72344   0.86621   0.40410   0.00000  Uiso   1.00
C761   C     0.67667   0.85379   0.41113   0.00000  Uiso   1.00
H762   H     0.67367   0.82034   0.40165   0.00000  Uiso   1.00
H763   H     0.99552   0.87288   0.38775   0.00000  Uiso   1.00
H764   H     0.98828   0.86035   0.44808   0.00000  Uiso   1.00
F765   F     0.70582   0.84811   0.00012   0.00000  Uiso   1.00
F766   F     0.97640   0.80223   0.00782   0.00000  Uiso   1.00
F767   F     0.75732   0.74703   0.09605   0.00000  Uiso   1.00
F768   F     0.89385   0.73281   0.41081   0.00000  Uiso   1.00
F769   F     0.91426   0.95843   0.20069   0.00000  Uiso   1.00
F770   F     0.75243   0.70825   0.29933   0.00000  Uiso   1.00
F771   F     0.96737   0.77041   0.20630   0.00000  Uiso   1.00
F772   F     0.69883   0.89511   0.29571   0.00000  Uiso   1.00
F773   F     0.72609   0.77142   0.20459   0.00000  Uiso   1.00
F774   F     0.94055   0.89517   0.29557   0.00000  Uiso   1.00
C775   C     0.16684   0.24649   0.74966   0.00000  Uiso   1.00
C776   C     0.16650   0.08684   0.75033   0.00000  Uiso   1.00
C777   C     0.10637   0.09384   0.55048   0.00000  Uiso   1.00
C778   C     0.21470   0.08277   0.95521   0.00000  Uiso   1.00
C779   C     0.07487   0.10496   0.52639   0.00000  Uiso   1.00
C780   C     0.24804   0.08674   0.97940   0.00000  Uiso   1.00
C781   C     0.20791   0.31215   0.72550   0.00000  Uiso   1.00
C782   C     0.12543   0.02120   0.77448   0.00000  Uiso   1.00
C783   C     0.20750   0.02170   0.72607   0.00000  Uiso   1.00
C784   C     0.12583   0.31165   0.77388   0.00000  Uiso   1.00
C785   C     0.16637   0.04264   0.75045   0.00000  Uiso   1.00
C786   C     0.16697   0.29070   0.74952   0.00000  Uiso   1.00
C787   C     0.31615   0.13553   0.72800   0.00000  Uiso   1.00
C788   C     0.01703   0.19744   0.77265   0.00000  Uiso   1.00
C789   C     0.03052   0.13578   0.72758   0.00000  Uiso   1.00
C790   C     0.30280   0.19750   0.77252   0.00000  Uiso   1.00
C791   C     0.13844   0.16537   0.83838   0.00000  Uiso   1.00
C792   C     0.19502   0.16505   0.66142   0.00000  Uiso   1.00
C793   C     0.12460   0.15573   0.88944   0.00000  Uiso   1.00
C794   C     0.20855   0.15163   0.61099   0.00000  Uiso   1.00
C795   C     0.06783   0.15604   0.96704   0.00000  Uiso   1.00
C796   C     0.26758   0.13005   0.53908   0.00000  Uiso   1.00
C797   C     0.08106   0.16863   0.91951   0.00000  Uiso   1.00
C798   C     0.25533   0.15203   0.58233   0.00000  Uiso   1.00
C799   C     0.15588   0.13381   0.90847   0.00000  Uiso   1.00
C800   C     0.17390   0.13543   0.59214   0.00000  Uiso   1.00
C801   C     0.13911   0.11562   0.95408   0.00000  Uiso   1.00
C802   C     0.18701   0.11123   0.54983   0.00000  Uiso   1.00
C803   C     0.09248   0.12426   0.98171   0.00000  Uiso   1.00
C804   C     0.23482   0.10763   0.52392   0.00000  Uiso   1.00
C805   C     0.16884   0.09656   0.97743   0.00000  Uiso   1.00
C806   C     0.15413   0.09817   0.52727   0.00000  Uiso   1.00
H807   H     0.23892   0.03850   0.70693   0.00000  Uiso   1.00
H808   H     0.09440   0.29486   0.79298   0.00000  Uiso   1.00
N809   N     0.04759   0.16668   0.75001   0.00000  Uiso   1.00
N810   N     0.28574   0.16666   0.74999   0.00000  Uiso   1.00
O811   O     0.12846   0.22775   0.75001   0.00000  Uiso   1.00
O812   O     0.20488   0.10558   0.75000   0.00000  Uiso   1.00
O813   O     0.20490   0.22774   0.75000   0.00000  Uiso   1.00
O814   O     0.12843   0.10559   0.75000   0.00000  Uiso   1.00
O815   O     0.10661   0.16667   0.81613   0.00000  Uiso   1.00
O816   O     0.22672   0.16666   0.68388   0.00000  Uiso   1.00
O817   O     0.18305   0.16666   0.81612   0.00000  Uiso   1.00
O818   O     0.15028   0.16667   0.68388   0.00000  Uiso   1.00
Zn819  Zn    0.11562   0.16667   0.75000   0.00000  Uiso   1.00
Zn820  Zn    0.21771   0.16666   0.75000   0.00000  Uiso   1.00
O821   O     0.02757   0.09952   0.54731   0.00000  Uiso   1.00
C822   C     0.01697   0.05644   0.54884   0.00000  Uiso   1.00
H823   H     0.02917   0.04016   0.57596   0.00000  Uiso   1.00
H824   H     0.03186   0.04114   0.51358   0.00000  Uiso   1.00
H825   H     0.31174   0.05281   0.55935   0.00000  Uiso   1.00
O826   O     0.29441   0.07725   0.95631   0.00000  Uiso   1.00
C827   C     0.30010   0.03349   0.95610   0.00000  Uiso   1.00
H828   H     0.28226   0.01781   0.93277   0.00000  Uiso   1.00
H829   H     0.28738   0.02035   0.99255   0.00000  Uiso   1.00
H830   H     0.00463   0.02623   0.94165   0.00000  Uiso   1.00
O831   O     0.12763   0.14704   0.61257   0.00000  Uiso   1.00
C832   C     0.12067   0.18677   0.59521   0.00000  Uiso   1.00
H833   H     0.12566   0.18558   0.55641   0.00000  Uiso   1.00
H834   H     0.14407   0.21084   0.60322   0.00000  Uiso   1.00
H835   H     0.08417   0.19675   0.61318   0.00000  Uiso   1.00
O836   O     0.20304   0.13276   0.88355   0.00000  Uiso   1.00
C837   C     0.22465   0.16860   0.89566   0.00000  Uiso   1.00
H838   H     0.22228   0.16894   0.93390   0.00000  Uiso   1.00
H839   H     0.20952   0.19797   0.88659   0.00000  Uiso   1.00
H840   H     0.26223   0.16792   0.87492   0.00000  Uiso   1.00
O841   O     0.28539   0.18209   0.59040   0.00000  Uiso   1.00
C842   C     0.31606   0.16482   0.61321   0.00000  Uiso   1.00
H843   H     0.30870   0.13165   0.62437   0.00000  Uiso   1.00
H844   H     0.31409   0.18387   0.64517   0.00000  Uiso   1.00
H845   H     0.01911   0.16770   0.58969   0.00000  Uiso   1.00
O846   O     0.05677   0.19955   0.90410   0.00000  Uiso   1.00
C847   C     0.01001   0.18712   0.91113   0.00000  Uiso   1.00
H848   H     0.00700   0.15367   0.90165   0.00000  Uiso   1.00
H849   H     0.32885   0.20621   0.88775   0.00000  Uiso   1.00
H850   H     0.32162   0.19368   0.94808   0.00000  Uiso   1.00
F851   F     0.03915   0.18144   0.50012   0.00000  Uiso   1.00
F852   F     0.30973   0.13557   0.50782   0.00000  Uiso   1.00
F853   F     0.09065   0.08037   0.59605   0.00000  Uiso   1.00
F854   F     0.22718   0.06615   0.91081   0.00000  Uiso   1.00
F855   F     0.24760   0.29177   0.70069   0.00000  Uiso   1.00
F856   F     0.08576   0.04158   0.79933   0.00000  Uiso   1.00
F857   F     0.30070   0.10374   0.70630   0.00000  Uiso   1.00
F858   F     0.03216   0.22844   0.79571   0.00000  Uiso   1.00
F859   F     0.05942   0.10475   0.70459   0.00000  Uiso   1.00
F860   F     0.27388   0.22850   0.79557   0.00000  Uiso   1.00
C861   C     0.50017   0.24649   0.74966   0.00000  Uiso   1.00
C862   C     0.49984   0.08684   0.75033   0.00000  Uiso   1.00
C863   C     0.43970   0.09384   0.55048   0.00000  Uiso   1.00
C864   C     0.54803   0.08277   0.95521   0.00000  Uiso   1.00
C865   C     0.40821   0.10496   0.52639   0.00000  Uiso   1.00
C866   C     0.58137   0.08674   0.97940   0.00000  Uiso   1.00
C867   C     0.54124   0.31215   0.72550   0.00000  Uiso   1.00
C868   C     0.45877   0.02120   0.77448   0.00000  Uiso   1.00
C869   C     0.54084   0.02170   0.72607   0.00000  Uiso   1.00
C870   C     0.45916   0.31165   0.77388   0.00000  Uiso   1.00
C871   C     0.49970   0.04264   0.75045   0.00000  Uiso   1.00
C872   C     0.50030   0.29070   0.74952   0.00000  Uiso   1.00
C873   C     0.64948   0.13553   0.72800   0.00000  Uiso   1.00
C874   C     0.35036   0.19744   0.77265   0.00000  Uiso   1.00
C875   C     0.36385   0.13578   0.72758   0.00000  Uiso   1.00
C876   C     0.63613   0.19750   0.77252   0.00000  Uiso   1.00
C877   C     0.47177   0.16537   0.83838   0.00000  Uiso   1.00
C878   C     0.52835   0.16505   0.66142   0.00000  Uiso   1.00
C879   C     0.45794   0.15573   0.88944   0.00000  Uiso   1.00
C880   C     0.54188   0.15163   0.61099   0.00000  Uiso   1.00
C881   C     0.40116   0.15604   0.96704   0.00000  Uiso   1.00
C882   C     0.60092   0.13005   0.53908   0.00000  Uiso   1.00
C883   C     0.41440   0.16863   0.91951   0.00000  Uiso   1.00
C884   C     0.58866   0.15203   0.58233   0.00000  Uiso   1.00
C885   C     0.48922   0.13381   0.90847   0.00000  Uiso   1.00
C886   C     0.50724   0.13543   0.59214   0.00000  Uiso   1.00
C887   C     0.47244   0.11562   0.95408   0.00000  Uiso   1.00
C888   C     0.52034   0.11123   0.54983   0.00000  Uiso   1.00
C889   C     0.42581   0.12426   0.98171   0.00000  Uiso   1.00
C890   C     0.56816   0.10763   0.52392   0.00000  Uiso   1.00
C891   C     0.50218   0.09656   0.97743   0.00000  Uiso   1.00
C892   C     0.48746   0.09817   0.52727   0.00000  Uiso   1.00
H893   H     0.57225   0.03850   0.70693   0.00000  Uiso   1.00
H894   H     0.42774   0.29486   0.79298   0.00000  Uiso   1.00
N895   N     0.38093   0.16668   0.75001   0.00000  Uiso   1.00
N896   N     0.61907   0.16666   0.74999   0.00000  Uiso   1.00
O897   O     0.46179   0.22775   0.75001   0.00000  Uiso   1.00
O898   O     0.53821   0.10558   0.75000   0.00000  Uiso   1.00
O899   O     0.53823   0.22774   0.75000   0.00000  Uiso   1.00
O900   O     0.46177   0.10559   0.75000   0.00000  Uiso   1.00
O901   O     0.43994   0.16667   0.81613   0.00000  Uiso   1.00
O902   O     0.56006   0.16666   0.68388   0.00000  Uiso   1.00
O903   O     0.51639   0.16666   0.81612   0.00000  Uiso   1.00
O904   O     0.48361   0.16667   0.68388   0.00000  Uiso   1.00
Zn905  Zn    0.44896   0.16667   0.75000   0.00000  Uiso   1.00
Zn906  Zn    0.55104   0.16666   0.75000   0.00000  Uiso   1.00
O907   O     0.36090   0.09952   0.54731   0.00000  Uiso   1.00
C908   C     0.35031   0.05644   0.54884   0.00000  Uiso   1.00
H909   H     0.36250   0.04016   0.57596   0.00000  Uiso   1.00
H910   H     0.36519   0.04114   0.51358   0.00000  Uiso   1.00
H911   H     0.64507   0.05281   0.55935   0.00000  Uiso   1.00
O912   O     0.62774   0.07725   0.95631   0.00000  Uiso   1.00
C913   C     0.63344   0.03349   0.95610   0.00000  Uiso   1.00
H914   H     0.61559   0.01781   0.93277   0.00000  Uiso   1.00
H915   H     0.62072   0.02035   0.99255   0.00000  Uiso   1.00
H916   H     0.33797   0.02623   0.94165   0.00000  Uiso   1.00
O917   O     0.46096   0.14704   0.61257   0.00000  Uiso   1.00
C918   C     0.45401   0.18677   0.59521   0.00000  Uiso   1.00
H919   H     0.45899   0.18558   0.55641   0.00000  Uiso   1.00
H920   H     0.47740   0.21084   0.60322   0.00000  Uiso   1.00
H921   H     0.41750   0.19675   0.61318   0.00000  Uiso   1.00
O922   O     0.53637   0.13276   0.88355   0.00000  Uiso   1.00
C923   C     0.55798   0.16860   0.89566   0.00000  Uiso   1.00
H924   H     0.55561   0.16894   0.93390   0.00000  Uiso   1.00
H925   H     0.54285   0.19797   0.88659   0.00000  Uiso   1.00
H926   H     0.59556   0.16792   0.87492   0.00000  Uiso   1.00
O927   O     0.61872   0.18209   0.59040   0.00000  Uiso   1.00
C928   C     0.64939   0.16482   0.61321   0.00000  Uiso   1.00
H929   H     0.64204   0.13165   0.62437   0.00000  Uiso   1.00
H930   H     0.64742   0.18387   0.64517   0.00000  Uiso   1.00
H931   H     0.35245   0.16770   0.58969   0.00000  Uiso   1.00
O932   O     0.39011   0.19955   0.90410   0.00000  Uiso   1.00
C933   C     0.34334   0.18712   0.91113   0.00000  Uiso   1.00
H934   H     0.34033   0.15367   0.90165   0.00000  Uiso   1.00
H935   H     0.66218   0.20621   0.88775   0.00000  Uiso   1.00
H936   H     0.65495   0.19368   0.94808   0.00000  Uiso   1.00
F937   F     0.37248   0.18144   0.50012   0.00000  Uiso   1.00
F938   F     0.64306   0.13557   0.50782   0.00000  Uiso   1.00
F939   F     0.42399   0.08037   0.59605   0.00000  Uiso   1.00
F940   F     0.56051   0.06615   0.91081   0.00000  Uiso   1.00
F941   F     0.58093   0.29177   0.70069   0.00000  Uiso   1.00
F942   F     0.41910   0.04158   0.79933   0.00000  Uiso   1.00
F943   F     0.63403   0.10374   0.70630   0.00000  Uiso   1.00
F944   F     0.36549   0.22844   0.79571   0.00000  Uiso   1.00
F945   F     0.39275   0.10475   0.70459   0.00000  Uiso   1.00
F946   F     0.60722   0.22850   0.79557   0.00000  Uiso   1.00
C947   C     0.83350   0.24649   0.74966   0.00000  Uiso   1.00
C948   C     0.83317   0.08684   0.75033   0.00000  Uiso   1.00
C949   C     0.77304   0.09384   0.55048   0.00000  Uiso   1.00
C950   C     0.88136   0.08277   0.95521   0.00000  Uiso   1.00
C951   C     0.74154   0.10496   0.52639   0.00000  Uiso   1.00
C952   C     0.91471   0.08674   0.97940   0.00000  Uiso   1.00
C953   C     0.87458   0.31215   0.72550   0.00000  Uiso   1.00
C954   C     0.79210   0.02120   0.77448   0.00000  Uiso   1.00
C955   C     0.87417   0.02170   0.72607   0.00000  Uiso   1.00
C956   C     0.79249   0.31165   0.77388   0.00000  Uiso   1.00
C957   C     0.83304   0.04264   0.75045   0.00000  Uiso   1.00
C958   C     0.83364   0.29070   0.74952   0.00000  Uiso   1.00
C959   C     0.98282   0.13553   0.72800   0.00000  Uiso   1.00
C960   C     0.68369   0.19744   0.77265   0.00000  Uiso   1.00
C961   C     0.69719   0.13578   0.72758   0.00000  Uiso   1.00
C962   C     0.96947   0.19750   0.77252   0.00000  Uiso   1.00
C963   C     0.80511   0.16537   0.83838   0.00000  Uiso   1.00
C964   C     0.86169   0.16505   0.66142   0.00000  Uiso   1.00
C965   C     0.79127   0.15573   0.88944   0.00000  Uiso   1.00
C966   C     0.87522   0.15163   0.61099   0.00000  Uiso   1.00
C967   C     0.73450   0.15604   0.96704   0.00000  Uiso   1.00
C968   C     0.93425   0.13005   0.53908   0.00000  Uiso   1.00
C969   C     0.74773   0.16863   0.91951   0.00000  Uiso   1.00
C970   C     0.92200   0.15203   0.58233   0.00000  Uiso   1.00
C971   C     0.82255   0.13381   0.90847   0.00000  Uiso   1.00
C972   C     0.84057   0.13543   0.59214   0.00000  Uiso   1.00
C973   C     0.80577   0.11562   0.95408   0.00000  Uiso   1.00
C974   C     0.85368   0.11123   0.54983   0.00000  Uiso   1.00
C975   C     0.75915   0.12426   0.98171   0.00000  Uiso   1.00
C976   C     0.90149   0.10763   0.52392   0.00000  Uiso   1.00
C977   C     0.83551   0.09656   0.97743   0.00000  Uiso   1.00
C978   C     0.82079   0.09817   0.52727   0.00000  Uiso   1.00
H979   H     0.90558   0.03850   0.70693   0.00000  Uiso   1.00
H980   H     0.76107   0.29486   0.79298   0.00000  Uiso   1.00
N981   N     0.71426   0.16668   0.75001   0.00000  Uiso   1.00
N982   N     0.95241   0.16666   0.74999   0.00000  Uiso   1.00
O983   O     0.79512   0.22775   0.75001   0.00000  Uiso   1.00
O984   O     0.87154   0.10558   0.75000   0.00000  Uiso   1.00
O985   O     0.87157   0.22774   0.75000   0.00000  Uiso   1.00
O986   O     0.79510   0.10559   0.75000   0.00000  Uiso   1.00
O987   O     0.77328   0.16667   0.81613   0.00000  Uiso   1.00
O988   O     0.89339   0.16666   0.68388   0.00000  Uiso   1.00
O989   O     0.84972   0.16666   0.81612   0.00000  Uiso   1.00
O990   O     0.81695   0.16667   0.68388   0.00000  Uiso   1.00
Zn991  Zn    0.78229   0.16667   0.75000   0.00000  Uiso   1.00
Zn992  Zn    0.88438   0.16666   0.75000   0.00000  Uiso   1.00
O993   O     0.69424   0.09952   0.54731   0.00000  Uiso   1.00
C994   C     0.68364   0.05644   0.54884   0.00000  Uiso   1.00
H995   H     0.69584   0.04016   0.57596   0.00000  Uiso   1.00
H996   H     0.69853   0.04114   0.51358   0.00000  Uiso   1.00
H997   H     0.97840   0.05281   0.55935   0.00000  Uiso   1.00
O998   O     0.96108   0.07725   0.95631   0.00000  Uiso   1.00
C999   C     0.96677   0.03349   0.95610   0.00000  Uiso   1.00
H1000  H     0.94893   0.01781   0.93277   0.00000  Uiso   1.00
H1001  H     0.95405   0.02035   0.99255   0.00000  Uiso   1.00
H1002  H     0.67130   0.02623   0.94165   0.00000  Uiso   1.00
O1003  O     0.79430   0.14704   0.61257   0.00000  Uiso   1.00
C1004  C     0.78734   0.18677   0.59521   0.00000  Uiso   1.00
H1005  H     0.79232   0.18558   0.55641   0.00000  Uiso   1.00
H1006  H     0.81074   0.21084   0.60322   0.00000  Uiso   1.00
H1007  H     0.75083   0.19675   0.61318   0.00000  Uiso   1.00
O1008  O     0.86970   0.13276   0.88355   0.00000  Uiso   1.00
C1009  C     0.89131   0.16860   0.89566   0.00000  Uiso   1.00
H1010  H     0.88894   0.16894   0.93390   0.00000  Uiso   1.00
H1011  H     0.87618   0.19797   0.88659   0.00000  Uiso   1.00
H1012  H     0.92890   0.16792   0.87492   0.00000  Uiso   1.00
O1013  O     0.95205   0.18209   0.59040   0.00000  Uiso   1.00
C1014  C     0.98272   0.16482   0.61321   0.00000  Uiso   1.00
H1015  H     0.97537   0.13165   0.62437   0.00000  Uiso   1.00
H1016  H     0.98075   0.18387   0.64517   0.00000  Uiso   1.00
H1017  H     0.68578   0.16770   0.58969   0.00000  Uiso   1.00
O1018  O     0.72344   0.19955   0.90410   0.00000  Uiso   1.00
C1019  C     0.67667   0.18712   0.91113   0.00000  Uiso   1.00
H1020  H     0.67367   0.15367   0.90165   0.00000  Uiso   1.00
H1021  H     0.99552   0.20621   0.88775   0.00000  Uiso   1.00
H1022  H     0.98828   0.19368   0.94808   0.00000  Uiso   1.00
F1023  F     0.70582   0.18144   0.50012   0.00000  Uiso   1.00
F1024  F     0.97640   0.13557   0.50782   0.00000  Uiso   1.00
F1025  F     0.75732   0.08037   0.59605   0.00000  Uiso   1.00
F1026  F     0.89385   0.06615   0.91081   0.00000  Uiso   1.00
F1027  F     0.91426   0.29177   0.70069   0.00000  Uiso   1.00
F1028  F     0.75243   0.04158   0.79933   0.00000  Uiso   1.00
F1029  F     0.96737   0.10374   0.70630   0.00000  Uiso   1.00
F1030  F     0.69883   0.22844   0.79571   0.00000  Uiso   1.00
F1031  F     0.72609   0.10475   0.70459   0.00000  Uiso   1.00
F1032  F     0.94055   0.22850   0.79557   0.00000  Uiso   1.00
C1033  C     0.16684   0.57983   0.74966   0.00000  Uiso   1.00
C1034  C     0.16650   0.42017   0.75033   0.00000  Uiso   1.00
C1035  C     0.10637   0.42717   0.55048   0.00000  Uiso   1.00
C1036  C     0.21470   0.41610   0.95521   0.00000  Uiso   1.00
C1037  C     0.07487   0.43829   0.52639   0.00000  Uiso   1.00
C1038  C     0.24804   0.42007   0.97940   0.00000  Uiso   1.00
C1039  C     0.20791   0.64548   0.72550   0.00000  Uiso   1.00
C1040  C     0.12543   0.35454   0.77448   0.00000  Uiso   1.00
C1041  C     0.20750   0.35503   0.72607   0.00000  Uiso   1.00
C1042  C     0.12583   0.64499   0.77388   0.00000  Uiso   1.00
C1043  C     0.16637   0.37598   0.75045   0.00000  Uiso   1.00
C1044  C     0.16697   0.62404   0.74952   0.00000  Uiso   1.00
C1045  C     0.31615   0.46887   0.72800   0.00000  Uiso   1.00
C1046  C     0.01703   0.53078   0.77265   0.00000  Uiso   1.00
C1047  C     0.03052   0.46911   0.72758   0.00000  Uiso   1.00
C1048  C     0.30280   0.53083   0.77252   0.00000  Uiso   1.00
C1049  C     0.13844   0.49870   0.83838   0.00000  Uiso   1.00
C1050  C     0.19502   0.49838   0.66142   0.00000  Uiso   1.00
C1051  C     0.12460   0.48907   0.88944   0.00000  Uiso   1.00
C1052  C     0.20855   0.48496   0.61099   0.00000  Uiso   1.00
C1053  C     0.06783   0.48937   0.96704   0.00000  Uiso   1.00
C1054  C     0.26758   0.46338   0.53908   0.00000  Uiso   1.00
C1055  C     0.08106   0.50197   0.91951   0.00000  Uiso   1.00
C1056  C     0.25533   0.48536   0.58233   0.00000  Uiso   1.00
C1057  C     0.15588   0.46714   0.90847   0.00000  Uiso   1.00
C1058  C     0.17390   0.46877   0.59214   0.00000  Uiso   1.00
C1059  C     0.13911   0.44896   0.95408   0.00000  Uiso   1.00
C1060  C     0.18701   0.44456   0.54983   0.00000  Uiso   1.00
C1061  C     0.09248   0.45759   0.98171   0.00000  Uiso   1.00
C1062  C     0.23482   0.44096   0.52392   0.00000  Uiso   1.00
C1063  C     0.16884   0.42990   0.97743   0.00000  Uiso   1.00
C1064  C     0.15413   0.43150   0.52727   0.00000  Uiso   1.00
H1065  H     0.23892   0.37183   0.70693   0.00000  Uiso   1.00
H1066  H     0.09440   0.62819   0.79298   0.00000  Uiso   1.00
N1067  N     0.04759   0.50001   0.75001   0.00000  Uiso   1.00
N1068  N     0.28574   0.49999   0.74999   0.00000  Uiso   1.00
O1069  O     0.12846   0.56108   0.75001   0.00000  Uiso   1.00
O1070  O     0.20488   0.43892   0.75000   0.00000  Uiso   1.00
O1071  O     0.20490   0.56107   0.75000   0.00000  Uiso   1.00
O1072  O     0.12843   0.43893   0.75000   0.00000  Uiso   1.00
O1073  O     0.10661   0.50001   0.81613   0.00000  Uiso   1.00
O1074  O     0.22672   0.49999   0.68388   0.00000  Uiso   1.00
O1075  O     0.18305   0.50000   0.81612   0.00000  Uiso   1.00
O1076  O     0.15028   0.50000   0.68388   0.00000  Uiso   1.00
Zn1077 Zn    0.11562   0.50001   0.75000   0.00000  Uiso   1.00
Zn1078 Zn    0.21771   0.49999   0.75000   0.00000  Uiso   1.00
O1079  O     0.02757   0.43286   0.54731   0.00000  Uiso   1.00
C1080  C     0.01697   0.38978   0.54884   0.00000  Uiso   1.00
H1081  H     0.02917   0.37349   0.57596   0.00000  Uiso   1.00
H1082  H     0.03186   0.37448   0.51358   0.00000  Uiso   1.00
H1083  H     0.31174   0.38614   0.55935   0.00000  Uiso   1.00
O1084  O     0.29441   0.41059   0.95631   0.00000  Uiso   1.00
C1085  C     0.30010   0.36682   0.95610   0.00000  Uiso   1.00
H1086  H     0.28226   0.35114   0.93277   0.00000  Uiso   1.00
H1087  H     0.28738   0.35368   0.99255   0.00000  Uiso   1.00
H1088  H     0.00463   0.35956   0.94165   0.00000  Uiso   1.00
O1089  O     0.12763   0.48037   0.61257   0.00000  Uiso   1.00
C1090  C     0.12067   0.52010   0.59521   0.00000  Uiso   1.00
H1091  H     0.12566   0.51891   0.55641   0.00000  Uiso   1.00
H1092  H     0.14407   0.54417   0.60322   0.00000  Uiso   1.00
H1093  H     0.08417   0.53009   0.61318   0.00000  Uiso   1.00
O1094  O     0.20304   0.46609   0.88355   0.00000  Uiso   1.00
C1095  C     0.22465   0.50193   0.89566   0.00000  Uiso   1.00
H1096  H     0.22228   0.50228   0.93390   0.00000  Uiso   1.00
H1097  H     0.20952   0.53130   0.88659   0.00000  Uiso   1.00
H1098  H     0.26223   0.50126   0.87492   0.00000  Uiso   1.00
O1099  O     0.28539   0.51543   0.59040   0.00000  Uiso   1.00
C1100  C     0.31606   0.49815   0.61321   0.00000  Uiso   1.00
H1101  H     0.30870   0.46498   0.62437   0.00000  Uiso   1.00
H1102  H     0.31409   0.51720   0.64517   0.00000  Uiso   1.00
H1103  H     0.01911   0.50103   0.58969   0.00000  Uiso   1.00
O1104  O     0.05677   0.53288   0.90410   0.00000  Uiso   1.00
C1105  C     0.01001   0.52046   0.91113   0.00000  Uiso   1.00
H1106  H     0.00700   0.48700   0.90165   0.00000  Uiso   1.00
H1107  H     0.32885   0.53955   0.88775   0.00000  Uiso   1.00
H1108  H     0.32162   0.52702   0.94808   0.00000  Uiso   1.00
F1109  F     0.03915   0.51478   0.50012   0.00000  Uiso   1.00
F1110  F     0.30973   0.46890   0.50782   0.00000  Uiso   1.00
F1111  F     0.09065   0.41370   0.59605   0.00000  Uiso   1.00
F1112  F     0.22718   0.39948   0.91081   0.00000  Uiso   1.00
F1113  F     0.24760   0.62510   0.70069   0.00000  Uiso   1.00
F1114  F     0.08576   0.37492   0.79933   0.00000  Uiso   1.00
F1115  F     0.30070   0.43708   0.70630   0.00000  Uiso   1.00
F1116  F     0.03216   0.56177   0.79571   0.00000  Uiso   1.00
F1117  F     0.05942   0.43808   0.70459   0.00000  Uiso   1.00
F1118  F     0.27388   0.56183   0.79557   0.00000  Uiso   1.00
C1119  C     0.50017   0.57983   0.74966   0.00000  Uiso   1.00
C1120  C     0.49984   0.42017   0.75033   0.00000  Uiso   1.00
C1121  C     0.43970   0.42717   0.55048   0.00000  Uiso   1.00
C1122  C     0.54803   0.41610   0.95521   0.00000  Uiso   1.00
C1123  C     0.40821   0.43829   0.52639   0.00000  Uiso   1.00
C1124  C     0.58137   0.42007   0.97940   0.00000  Uiso   1.00
C1125  C     0.54124   0.64548   0.72550   0.00000  Uiso   1.00
C1126  C     0.45877   0.35454   0.77448   0.00000  Uiso   1.00
C1127  C     0.54084   0.35503   0.72607   0.00000  Uiso   1.00
C1128  C     0.45916   0.64499   0.77388   0.00000  Uiso   1.00
C1129  C     0.49970   0.37598   0.75045   0.00000  Uiso   1.00
C1130  C     0.50030   0.62404   0.74952   0.00000  Uiso   1.00
C1131  C     0.64948   0.46887   0.72800   0.00000  Uiso   1.00
C1132  C     0.35036   0.53078   0.77265   0.00000  Uiso   1.00
C1133  C     0.36385   0.46911   0.72758   0.00000  Uiso   1.00
C1134  C     0.63613   0.53083   0.77252   0.00000  Uiso   1.00
C1135  C     0.47177   0.49870   0.83838   0.00000  Uiso   1.00
C1136  C     0.52835   0.49838   0.66142   0.00000  Uiso   1.00
C1137  C     0.45794   0.48907   0.88944   0.00000  Uiso   1.00
C1138  C     0.54188   0.48496   0.61099   0.00000  Uiso   1.00
C1139  C     0.40116   0.48937   0.96704   0.00000  Uiso   1.00
C1140  C     0.60092   0.46338   0.53908   0.00000  Uiso   1.00
C1141  C     0.41440   0.50197   0.91951   0.00000  Uiso   1.00
C1142  C     0.58866   0.48536   0.58233   0.00000  Uiso   1.00
C1143  C     0.48922   0.46714   0.90847   0.00000  Uiso   1.00
C1144  C     0.50724   0.46877   0.59214   0.00000  Uiso   1.00
C1145  C     0.47244   0.44896   0.95408   0.00000  Uiso   1.00
C1146  C     0.52034   0.44456   0.54983   0.00000  Uiso   1.00
C1147  C     0.42581   0.45759   0.98171   0.00000  Uiso   1.00
C1148  C     0.56816   0.44096   0.52392   0.00000  Uiso   1.00
C1149  C     0.50218   0.42990   0.97743   0.00000  Uiso   1.00
C1150  C     0.48746   0.43150   0.52727   0.00000  Uiso   1.00
H1151  H     0.57225   0.37183   0.70693   0.00000  Uiso   1.00
H1152  H     0.42774   0.62819   0.79298   0.00000  Uiso   1.00
N1153  N     0.38093   0.50001   0.75001   0.00000  Uiso   1.00
N1154  N     0.61907   0.49999   0.74999   0.00000  Uiso   1.00
O1155  O     0.46179   0.56108   0.75001   0.00000  Uiso   1.00
O1156  O     0.53821   0.43892   0.75000   0.00000  Uiso   1.00
O1157  O     0.53823   0.56107   0.75000   0.00000  Uiso   1.00
O1158  O     0.46177   0.43893   0.75000   0.00000  Uiso   1.00
O1159  O     0.43994   0.50001   0.81613   0.00000  Uiso   1.00
O1160  O     0.56006   0.49999   0.68388   0.00000  Uiso   1.00
O1161  O     0.51639   0.50000   0.81612   0.00000  Uiso   1.00
O1162  O     0.48361   0.50000   0.68388   0.00000  Uiso   1.00
Zn1163 Zn    0.44896   0.50001   0.75000   0.00000  Uiso   1.00
Zn1164 Zn    0.55104   0.49999   0.75000   0.00000  Uiso   1.00
O1165  O     0.36090   0.43286   0.54731   0.00000  Uiso   1.00
C1166  C     0.35031   0.38978   0.54884   0.00000  Uiso   1.00
H1167  H     0.36250   0.37349   0.57596   0.00000  Uiso   1.00
H1168  H     0.36519   0.37448   0.51358   0.00000  Uiso   1.00
H1169  H     0.64507   0.38614   0.55935   0.00000  Uiso   1.00
O1170  O     0.62774   0.41059   0.95631   0.00000  Uiso   1.00
C1171  C     0.63344   0.36682   0.95610   0.00000  Uiso   1.00
H1172  H     0.61559   0.35114   0.93277   0.00000  Uiso   1.00
H1173  H     0.62072   0.35368   0.99255   0.00000  Uiso   1.00
H1174  H     0.33797   0.35956   0.94165   0.00000  Uiso   1.00
O1175  O     0.46096   0.48037   0.61257   0.00000  Uiso   1.00
C1176  C     0.45401   0.52010   0.59521   0.00000  Uiso   1.00
H1177  H     0.45899   0.51891   0.55641   0.00000  Uiso   1.00
H1178  H     0.47740   0.54417   0.60322   0.00000  Uiso   1.00
H1179  H     0.41750   0.53009   0.61318   0.00000  Uiso   1.00
O1180  O     0.53637   0.46609   0.88355   0.00000  Uiso   1.00
C1181  C     0.55798   0.50193   0.89566   0.00000  Uiso   1.00
H1182  H     0.55561   0.50228   0.93390   0.00000  Uiso   1.00
H1183  H     0.54285   0.53130   0.88659   0.00000  Uiso   1.00
H1184  H     0.59556   0.50126   0.87492   0.00000  Uiso   1.00
O1185  O     0.61872   0.51543   0.59040   0.00000  Uiso   1.00
C1186  C     0.64939   0.49815   0.61321   0.00000  Uiso   1.00
H1187  H     0.64204   0.46498   0.62437   0.00000  Uiso   1.00
H1188  H     0.64742   0.51720   0.64517   0.00000  Uiso   1.00
H1189  H     0.35245   0.50103   0.58969   0.00000  Uiso   1.00
O1190  O     0.39011   0.53288   0.90410   0.00000  Uiso   1.00
C1191  C     0.34334   0.52046   0.91113   0.00000  Uiso   1.00
H1192  H     0.34033   0.48700   0.90165   0.00000  Uiso   1.00
H1193  H     0.66218   0.53955   0.88775   0.00000  Uiso   1.00
H1194  H     0.65495   0.52702   0.94808   0.00000  Uiso   1.00
F1195  F     0.37248   0.51478   0.50012   0.00000  Uiso   1.00
F1196  F     0.64306   0.46890   0.50782   0.00000  Uiso   1.00
F1197  F     0.42399   0.41370   0.59605   0.00000  Uiso   1.00
F1198  F     0.56051   0.39948   0.91081   0.00000  Uiso   1.00
F1199  F     0.58093   0.62510   0.70069   0.00000  Uiso   1.00
F1200  F     0.41910   0.37492   0.79933   0.00000  Uiso   1.00
F1201  F     0.63403   0.43708   0.70630   0.00000  Uiso   1.00
F1202  F     0.36549   0.56177   0.79571   0.00000  Uiso   1.00
F1203  F     0.39275   0.43808   0.70459   0.00000  Uiso   1.00
F1204  F     0.60722   0.56183   0.79557   0.00000  Uiso   1.00
C1205  C     0.83350   0.57983   0.74966   0.00000  Uiso   1.00
C1206  C     0.83317   0.42017   0.75033   0.00000  Uiso   1.00
C1207  C     0.77304   0.42717   0.55048   0.00000  Uiso   1.00
C1208  C     0.88136   0.41610   0.95521   0.00000  Uiso   1.00
C1209  C     0.74154   0.43829   0.52639   0.00000  Uiso   1.00
C1210  C     0.91471   0.42007   0.97940   0.00000  Uiso   1.00
C1211  C     0.87458   0.64548   0.72550   0.00000  Uiso   1.00
C1212  C     0.79210   0.35454   0.77448   0.00000  Uiso   1.00
C1213  C     0.87417   0.35503   0.72607   0.00000  Uiso   1.00
C1214  C     0.79249   0.64499   0.77388   0.00000  Uiso   1.00
C1215  C     0.83304   0.37598   0.75045   0.00000  Uiso   1.00
C1216  C     0.83364   0.62404   0.74952   0.00000  Uiso   1.00
C1217  C     0.98282   0.46887   0.72800   0.00000  Uiso   1.00
C1218  C     0.68369   0.53078   0.77265   0.00000  Uiso   1.00
C1219  C     0.69719   0.46911   0.72758   0.00000  Uiso   1.00
C1220  C     0.96947   0.53083   0.77252   0.00000  Uiso   1.00
C1221  C     0.80511   0.49870   0.83838   0.00000  Uiso   1.00
C1222  C     0.86169   0.49838   0.66142   0.00000  Uiso   1.00
C1223  C     0.79127   0.48907   0.88944   0.00000  Uiso   1.00
C1224  C     0.87522   0.48496   0.61099   0.00000  Uiso   1.00
C1225  C     0.73450   0.48937   0.96704   0.00000  Uiso   1.00
C1226  C     0.93425   0.46338   0.53908   0.00000  Uiso   1.00
C1227  C     0.74773   0.50197   0.91951   0.00000  Uiso   1.00
C1228  C     0.92200   0.48536   0.58233   0.00000  Uiso   1.00
C1229  C     0.82255   0.46714   0.90847   0.00000  Uiso   1.00
C1230  C     0.84057   0.46877   0.59214   0.00000  Uiso   1.00
C1231  C     0.80577   0.44896   0.95408   0.00000  Uiso   1.00
C1232  C     0.85368   0.44456   0.54983   0.00000  Uiso   1.00
C1233  C     0.75915   0.45759   0.98171   0.00000  Uiso   1.00
C1234  C     0.90149   0.44096   0.52392   0.00000  Uiso   1.00
C1235  C     0.83551   0.42990   0.97743   0.00000  Uiso   1.00
C1236  C     0.82079   0.43150   0.52727   0.00000  Uiso   1.00
H1237  H     0.90558   0.37183   0.70693   0.00000  Uiso   1.00
H1238  H     0.76107   0.62819   0.79298   0.00000  Uiso   1.00
N1239  N     0.71426   0.50001   0.75001   0.00000  Uiso   1.00
N1240  N     0.95241   0.49999   0.74999   0.00000  Uiso   1.00
O1241  O     0.79512   0.56108   0.75001   0.00000  Uiso   1.00
O1242  O     0.87154   0.43892   0.75000   0.00000  Uiso   1.00
O1243  O     0.87157   0.56107   0.75000   0.00000  Uiso   1.00
O1244  O     0.79510   0.43893   0.75000   0.00000  Uiso   1.00
O1245  O     0.77328   0.50001   0.81613   0.00000  Uiso   1.00
O1246  O     0.89339   0.49999   0.68388   0.00000  Uiso   1.00
O1247  O     0.84972   0.50000   0.81612   0.00000  Uiso   1.00
O1248  O     0.81695   0.50000   0.68388   0.00000  Uiso   1.00
Zn1249 Zn    0.78229   0.50001   0.75000   0.00000  Uiso   1.00
Zn1250 Zn    0.88438   0.49999   0.75000   0.00000  Uiso   1.00
O1251  O     0.69424   0.43286   0.54731   0.00000  Uiso   1.00
C1252  C     0.68364   0.38978   0.54884   0.00000  Uiso   1.00
H1253  H     0.69584   0.37349   0.57596   0.00000  Uiso   1.00
H1254  H     0.69853   0.37448   0.51358   0.00000  Uiso   1.00
H1255  H     0.97840   0.38614   0.55935   0.00000  Uiso   1.00
O1256  O     0.96108   0.41059   0.95631   0.00000  Uiso   1.00
C1257  C     0.96677   0.36682   0.95610   0.00000  Uiso   1.00
H1258  H     0.94893   0.35114   0.93277   0.00000  Uiso   1.00
H1259  H     0.95405   0.35368   0.99255   0.00000  Uiso   1.00
H1260  H     0.67130   0.35956   0.94165   0.00000  Uiso   1.00
O1261  O     0.79430   0.48037   0.61257   0.00000  Uiso   1.00
C1262  C     0.78734   0.52010   0.59521   0.00000  Uiso   1.00
H1263  H     0.79232   0.51891   0.55641   0.00000  Uiso   1.00
H1264  H     0.81074   0.54417   0.60322   0.00000  Uiso   1.00
H1265  H     0.75083   0.53009   0.61318   0.00000  Uiso   1.00
O1266  O     0.86970   0.46609   0.88355   0.00000  Uiso   1.00
C1267  C     0.89131   0.50193   0.89566   0.00000  Uiso   1.00
H1268  H     0.88894   0.50228   0.93390   0.00000  Uiso   1.00
H1269  H     0.87618   0.53130   0.88659   0.00000  Uiso   1.00
H1270  H     0.92890   0.50126   0.87492   0.00000  Uiso   1.00
O1271  O     0.95205   0.51543   0.59040   0.00000  Uiso   1.00
C1272  C     0.98272   0.49815   0.61321   0.00000  Uiso   1.00
H1273  H     0.97537   0.46498   0.62437   0.00000  Uiso   1.00
H1274  H     0.98075   0.51720   0.64517   0.00000  Uiso   1.00
H1275  H     0.68578   0.50103   0.58969   0.00000  Uiso   1.00
O1276  O     0.72344   0.53288   0.90410   0.00000  Uiso   1.00
C1277  C     0.67667   0.52046   0.91113   0.00000  Uiso   1.00
H1278  H     0.67367   0.48700   0.90165   0.00000  Uiso   1.00
H1279  H     0.99552   0.53955   0.88775   0.00000  Uiso   1.00
H1280  H     0.98828   0.52702   0.94808   0.00000  Uiso   1.00
F1281  F     0.70582   0.51478   0.50012   0.00000  Uiso   1.00
F1282  F     0.97640   0.46890   0.50782   0.00000  Uiso   1.00
F1283  F     0.75732   0.41370   0.59605   0.00000  Uiso   1.00
F1284  F     0.89385   0.39948   0.91081   0.00000  Uiso   1.00
F1285  F     0.91426   0.62510   0.70069   0.00000  Uiso   1.00
F1286  F     0.75243   0.37492   0.79933   0.00000  Uiso   1.00
F1287  F     0.96737   0.43708   0.70630   0.00000  Uiso   1.00
F1288  F     0.69883   0.56177   0.79571   0.00000  Uiso   1.00
F1289  F     0.72609   0.43808   0.70459   0.00000  Uiso   1.00
F1290  F     0.94055   0.56183   0.79557   0.00000  Uiso   1.00
C1291  C     0.16684   0.91316   0.74966   0.00000  Uiso   1.00
C1292  C     0.16650   0.75351   0.75033   0.00000  Uiso   1.00
C1293  C     0.10637   0.76051   0.55048   0.00000  Uiso   1.00
C1294  C     0.21470   0.74943   0.95521   0.00000  Uiso   1.00
C1295  C     0.07487   0.77162   0.52639   0.00000  Uiso   1.00
C1296  C     0.24804   0.75340   0.97940   0.00000  Uiso   1.00
C1297  C     0.20791   0.97881   0.72550   0.00000  Uiso   1.00
C1298  C     0.12543   0.68787   0.77448   0.00000  Uiso   1.00
C1299  C     0.20750   0.68836   0.72607   0.00000  Uiso   1.00
C1300  C     0.12583   0.97832   0.77388   0.00000  Uiso   1.00
C1301  C     0.16637   0.70931   0.75045   0.00000  Uiso   1.00
C1302  C     0.16697   0.95737   0.74952   0.00000  Uiso   1.00
C1303  C     0.31615   0.80220   0.72800   0.00000  Uiso   1.00
C1304  C     0.01703   0.86411   0.77265   0.00000  Uiso   1.00
C1305  C     0.03052   0.80245   0.72758   0.00000  Uiso   1.00
C1306  C     0.30280   0.86417   0.77252   0.00000  Uiso   1.00
C1307  C     0.13844   0.83203   0.83838   0.00000  Uiso   1.00
C1308  C     0.19502   0.83171   0.66142   0.00000  Uiso   1.00
C1309  C     0.12460   0.82240   0.88944   0.00000  Uiso   1.00
C1310  C     0.20855   0.81830   0.61099   0.00000  Uiso   1.00
C1311  C     0.06783   0.82271   0.96704   0.00000  Uiso   1.00
C1312  C     0.26758   0.79671   0.53908   0.00000  Uiso   1.00
C1313  C     0.08106   0.83530   0.91951   0.00000  Uiso   1.00
C1314  C     0.25533   0.81869   0.58233   0.00000  Uiso   1.00
C1315  C     0.15588   0.80048   0.90847   0.00000  Uiso   1.00
C1316  C     0.17390   0.80210   0.59214   0.00000  Uiso   1.00
C1317  C     0.13911   0.78229   0.95408   0.00000  Uiso   1.00
C1318  C     0.18701   0.77790   0.54983   0.00000  Uiso   1.00
C1319  C     0.09248   0.79092   0.98171   0.00000  Uiso   1.00
C1320  C     0.23482   0.77429   0.52392   0.00000  Uiso   1.00
C1321  C     0.16884   0.76323   0.97743   0.00000  Uiso   1.00
C1322  C     0.15413   0.76484   0.52727   0.00000  Uiso   1.00
H1323  H     0.23892   0.70516   0.70693   0.00000  Uiso   1.00
H1324  H     0.09440   0.96152   0.79298   0.00000  Uiso   1.00
N1325  N     0.04759   0.83334   0.75001   0.00000  Uiso   1.00
N1326  N     0.28574   0.83332   0.74999   0.00000  Uiso   1.00
O1327  O     0.12846   0.89442   0.75001   0.00000  Uiso   1.00
O1328  O     0.20488   0.77225   0.75000   0.00000  Uiso   1.00
O1329  O     0.20490   0.89441   0.75000   0.00000  Uiso   1.00
O1330  O     0.12843   0.77226   0.75000   0.00000  Uiso   1.00
O1331  O     0.10661   0.83334   0.81613   0.00000  Uiso   1.00
O1332  O     0.22672   0.83333   0.68388   0.00000  Uiso   1.00
O1333  O     0.18305   0.83333   0.81612   0.00000  Uiso   1.00
O1334  O     0.15028   0.83334   0.68388   0.00000  Uiso   1.00
Zn1335 Zn    0.11562   0.83334   0.75000   0.00000  Uiso   1.00
Zn1336 Zn    0.21771   0.83333   0.75000   0.00000  Uiso   1.00
O1337  O     0.02757   0.76619   0.54731   0.00000  Uiso   1.00
C1338  C     0.01697   0.72311   0.54884   0.00000  Uiso   1.00
H1339  H     0.02917   0.70682   0.57596   0.00000  Uiso   1.00
H1340  H     0.03186   0.70781   0.51358   0.00000  Uiso   1.00
H1341  H     0.31174   0.71948   0.55935   0.00000  Uiso   1.00
O1342  O     0.29441   0.74392   0.95631   0.00000  Uiso   1.00
C1343  C     0.30010   0.70015   0.95610   0.00000  Uiso   1.00
H1344  H     0.28226   0.68448   0.93277   0.00000  Uiso   1.00
H1345  H     0.28738   0.68701   0.99255   0.00000  Uiso   1.00
H1346  H     0.00463   0.69290   0.94165   0.00000  Uiso   1.00
O1347  O     0.12763   0.81371   0.61257   0.00000  Uiso   1.00
C1348  C     0.12067   0.85344   0.59521   0.00000  Uiso   1.00
H1349  H     0.12566   0.85224   0.55641   0.00000  Uiso   1.00
H1350  H     0.14407   0.87751   0.60322   0.00000  Uiso   1.00
H1351  H     0.08417   0.86342   0.61318   0.00000  Uiso   1.00
O1352  O     0.20304   0.79942   0.88355   0.00000  Uiso   1.00
C1353  C     0.22465   0.83526   0.89566   0.00000  Uiso   1.00
H1354  H     0.22228   0.83561   0.93390   0.00000  Uiso   1.00
H1355  H     0.20952   0.86463   0.88659   0.00000  Uiso   1.00
H1356  H     0.26223   0.83459   0.87492   0.00000  Uiso   1.00
O1357  O     0.28539   0.84876   0.59040   0.00000  Uiso   1.00
C1358  C     0.31606   0.83148   0.61321   0.00000  Uiso   1.00
H1359  H     0.30870   0.79831   0.62437   0.00000  Uiso   1.00
H1360  H     0.31409   0.85053   0.64517   0.00000  Uiso   1.00
H1361  H     0.01911   0.83436   0.58969   0.00000  Uiso   1.00
O1362  O     0.05677   0.86621   0.90410   0.00000  Uiso   1.00
C1363  C     0.01001   0.85379   0.91113   0.00000  Uiso   1.00
H1364  H     0.00700   0.82034   0.90165   0.00000  Uiso   1.00
H1365  H     0.32885   0.87288   0.88775   0.00000  Uiso   1.00
H1366  H     0.32162   0.86035   0.94808   0.00000  Uiso   1.00
F1367  F     0.03915   0.84811   0.50012   0.00000  Uiso   1.00
F1368  F     0.30973   0.80223   0.50782   0.00000  Uiso   1.00
F1369  F     0.09065   0.74703   0.59605   0.00000  Uiso   1.00
F1370  F     0.22718   0.73281   0.91081   0.00000  Uiso   1.00
F1371  F     0.24760   0.95843   0.70069   0.00000  Uiso   1.00
F1372  F     0.08576   0.70825   0.79933   0.00000  Uiso   1.00
F1373  F     0.30070   0.77041   0.70630   0.00000  Uiso   1.00
F1374  F     0.03216   0.89511   0.79571   0.00000  Uiso   1.00
F1375  F     0.05942   0.77142   0.70459   0.00000  Uiso   1.00
F1376  F     0.27388   0.89517   0.79557   0.00000  Uiso   1.00
C1377  C     0.50017   0.91316   0.74966   0.00000  Uiso   1.00
C1378  C     0.49984   0.75351   0.75033   0.00000  Uiso   1.00
C1379  C     0.43970   0.76051   0.55048   0.00000  Uiso   1.00
C1380  C     0.54803   0.74943   0.95521   0.00000  Uiso   1.00
C1381  C     0.40821   0.77162   0.52639   0.00000  Uiso   1.00
C1382  C     0.58137   0.75340   0.97940   0.00000  Uiso   1.00
C1383  C     0.54124   0.97881   0.72550   0.00000  Uiso   1.00
C1384  C     0.45877   0.68787   0.77448   0.00000  Uiso   1.00
C1385  C     0.54084   0.68836   0.72607   0.00000  Uiso   1.00
C1386  C     0.45916   0.97832   0.77388   0.00000  Uiso   1.00
C1387  C     0.49970   0.70931   0.75045   0.00000  Uiso   1.00
C1388  C     0.50030   0.95737   0.74952   0.00000  Uiso   1.00
C1389  C     0.64948   0.80220   0.72800   0.00000  Uiso   1.00
C1390  C     0.35036   0.86411   0.77265   0.00000  Uiso   1.00
C1391  C     0.36385   0.80245   0.72758   0.00000  Uiso   1.00
C1392  C     0.63613   0.86417   0.77252   0.00000  Uiso   1.00
C1393  C     0.47177   0.83203   0.83838   0.00000  Uiso   1.00
C1394  C     0.52835   0.83171   0.66142   0.00000  Uiso   1.00
C1395  C     0.45794   0.82240   0.88944   0.00000  Uiso   1.00
C1396  C     0.54188   0.81830   0.61099   0.00000  Uiso   1.00
C1397  C     0.40116   0.82271   0.96704   0.00000  Uiso   1.00
C1398  C     0.60092   0.79671   0.53908   0.00000  Uiso   1.00
C1399  C     0.41440   0.83530   0.91951   0.00000  Uiso   1.00
C1400  C     0.58866   0.81869   0.58233   0.00000  Uiso   1.00
C1401  C     0.48922   0.80048   0.90847   0.00000  Uiso   1.00
C1402  C     0.50724   0.80210   0.59214   0.00000  Uiso   1.00
C1403  C     0.47244   0.78229   0.95408   0.00000  Uiso   1.00
C1404  C     0.52034   0.77790   0.54983   0.00000  Uiso   1.00
C1405  C     0.42581   0.79092   0.98171   0.00000  Uiso   1.00
C1406  C     0.56816   0.77429   0.52392   0.00000  Uiso   1.00
C1407  C     0.50218   0.76323   0.97743   0.00000  Uiso   1.00
C1408  C     0.48746   0.76484   0.52727   0.00000  Uiso   1.00
H1409  H     0.57225   0.70516   0.70693   0.00000  Uiso   1.00
H1410  H     0.42774   0.96152   0.79298   0.00000  Uiso   1.00
N1411  N     0.38093   0.83334   0.75001   0.00000  Uiso   1.00
N1412  N     0.61907   0.83332   0.74999   0.00000  Uiso   1.00
O1413  O     0.46179   0.89442   0.75001   0.00000  Uiso   1.00
O1414  O     0.53821   0.77225   0.75000   0.00000  Uiso   1.00
O1415  O     0.53823   0.89441   0.75000   0.00000  Uiso   1.00
O1416  O     0.46177   0.77226   0.75000   0.00000  Uiso   1.00
O1417  O     0.43994   0.83334   0.81613   0.00000  Uiso   1.00
O1418  O     0.56006   0.83333   0.68388   0.00000  Uiso   1.00
O1419  O     0.51639   0.83333   0.81612   0.00000  Uiso   1.00
O1420  O     0.48361   0.83334   0.68388   0.00000  Uiso   1.00
Zn1421 Zn    0.44896   0.83334   0.75000   0.00000  Uiso   1.00
Zn1422 Zn    0.55104   0.83333   0.75000   0.00000  Uiso   1.00
O1423  O     0.36090   0.76619   0.54731   0.00000  Uiso   1.00
C1424  C     0.35031   0.72311   0.54884   0.00000  Uiso   1.00
H1425  H     0.36250   0.70682   0.57596   0.00000  Uiso   1.00
H1426  H     0.36519   0.70781   0.51358   0.00000  Uiso   1.00
H1427  H     0.64507   0.71948   0.55935   0.00000  Uiso   1.00
O1428  O     0.62774   0.74392   0.95631   0.00000  Uiso   1.00
C1429  C     0.63344   0.70015   0.95610   0.00000  Uiso   1.00
H1430  H     0.61559   0.68448   0.93277   0.00000  Uiso   1.00
H1431  H     0.62072   0.68701   0.99255   0.00000  Uiso   1.00
H1432  H     0.33797   0.69290   0.94165   0.00000  Uiso   1.00
O1433  O     0.46096   0.81371   0.61257   0.00000  Uiso   1.00
C1434  C     0.45401   0.85344   0.59521   0.00000  Uiso   1.00
H1435  H     0.45899   0.85224   0.55641   0.00000  Uiso   1.00
H1436  H     0.47740   0.87751   0.60322   0.00000  Uiso   1.00
H1437  H     0.41750   0.86342   0.61318   0.00000  Uiso   1.00
O1438  O     0.53637   0.79942   0.88355   0.00000  Uiso   1.00
C1439  C     0.55798   0.83526   0.89566   0.00000  Uiso   1.00
H1440  H     0.55561   0.83561   0.93390   0.00000  Uiso   1.00
H1441  H     0.54285   0.86463   0.88659   0.00000  Uiso   1.00
H1442  H     0.59556   0.83459   0.87492   0.00000  Uiso   1.00
O1443  O     0.61872   0.84876   0.59040   0.00000  Uiso   1.00
C1444  C     0.64939   0.83148   0.61321   0.00000  Uiso   1.00
H1445  H     0.64204   0.79831   0.62437   0.00000  Uiso   1.00
H1446  H     0.64742   0.85053   0.64517   0.00000  Uiso   1.00
H1447  H     0.35245   0.83436   0.58969   0.00000  Uiso   1.00
O1448  O     0.39011   0.86621   0.90410   0.00000  Uiso   1.00
C1449  C     0.34334   0.85379   0.91113   0.00000  Uiso   1.00
H1450  H     0.34033   0.82034   0.90165   0.00000  Uiso   1.00
H1451  H     0.66218   0.87288   0.88775   0.00000  Uiso   1.00
H1452  H     0.65495   0.86035   0.94808   0.00000  Uiso   1.00
F1453  F     0.37248   0.84811   0.50012   0.00000  Uiso   1.00
F1454  F     0.64306   0.80223   0.50782   0.00000  Uiso   1.00
F1455  F     0.42399   0.74703   0.59605   0.00000  Uiso   1.00
F1456  F     0.56051   0.73281   0.91081   0.00000  Uiso   1.00
F1457  F     0.58093   0.95843   0.70069   0.00000  Uiso   1.00
F1458  F     0.41910   0.70825   0.79933   0.00000  Uiso   1.00
F1459  F     0.63403   0.77041   0.70630   0.00000  Uiso   1.00
F1460  F     0.36549   0.89511   0.79571   0.00000  Uiso   1.00
F1461  F     0.39275   0.77142   0.70459   0.00000  Uiso   1.00
F1462  F     0.60722   0.89517   0.79557   0.00000  Uiso   1.00
C1463  C     0.83350   0.91316   0.74966   0.00000  Uiso   1.00
C1464  C     0.83317   0.75351   0.75033   0.00000  Uiso   1.00
C1465  C     0.77304   0.76051   0.55048   0.00000  Uiso   1.00
C1466  C     0.88136   0.74943   0.95521   0.00000  Uiso   1.00
C1467  C     0.74154   0.77162   0.52639   0.00000  Uiso   1.00
C1468  C     0.91471   0.75340   0.97940   0.00000  Uiso   1.00
C1469  C     0.87458   0.97881   0.72550   0.00000  Uiso   1.00
C1470  C     0.79210   0.68787   0.77448   0.00000  Uiso   1.00
C1471  C     0.87417   0.68836   0.72607   0.00000  Uiso   1.00
C1472  C     0.79249   0.97832   0.77388   0.00000  Uiso   1.00
C1473  C     0.83304   0.70931   0.75045   0.00000  Uiso   1.00
C1474  C     0.83364   0.95737   0.74952   0.00000  Uiso   1.00
C1475  C     0.98282   0.80220   0.72800   0.00000  Uiso   1.00
C1476  C     0.68369   0.86411   0.77265   0.00000  Uiso   1.00
C1477  C     0.69719   0.80245   0.72758   0.00000  Uiso   1.00
C1478  C     0.96947   0.86417   0.77252   0.00000  Uiso   1.00
C1479  C     0.80511   0.83203   0.83838   0.00000  Uiso   1.00
C1480  C     0.86169   0.83171   0.66142   0.00000  Uiso   1.00
C1481  C     0.79127   0.82240   0.88944   0.00000  Uiso   1.00
C1482  C     0.87522   0.81830   0.61099   0.00000  Uiso   1.00
C1483  C     0.73450   0.82271   0.96704   0.00000  Uiso   1.00
C1484  C     0.93425   0.79671   0.53908   0.00000  Uiso   1.00
C1485  C     0.74773   0.83530   0.91951   0.00000  Uiso   1.00
C1486  C     0.92200   0.81869   0.58233   0.00000  Uiso   1.00
C1487  C     0.82255   0.80048   0.90847   0.00000  Uiso   1.00
C1488  C     0.84057   0.80210   0.59214   0.00000  Uiso   1.00
C1489  C     0.80577   0.78229   0.95408   0.00000  Uiso   1.00
C1490  C     0.85368   0.77790   0.54983   0.00000  Uiso   1.00
C1491  C     0.75915   0.79092   0.98171   0.00000  Uiso   1.00
C1492  C     0.90149   0.77429   0.52392   0.00000  Uiso   1.00
C1493  C     0.83551   0.76323   0.97743   0.00000  Uiso   1.00
C1494  C     0.82079   0.76484   0.52727   0.00000  Uiso   1.00
H1495  H     0.90558   0.70516   0.70693   0.00000  Uiso   1.00
H1496  H     0.76107   0.96152   0.79298   0.00000  Uiso   1.00
N1497  N     0.71426   0.83334   0.75001   0.00000  Uiso   1.00
N1498  N     0.95241   0.83332   0.74999   0.00000  Uiso   1.00
O1499  O     0.79512   0.89442   0.75001   0.00000  Uiso   1.00
O1500  O     0.87154   0.77225   0.75000   0.00000  Uiso   1.00
O1501  O     0.87157   0.89441   0.75000   0.00000  Uiso   1.00
O1502  O     0.79510   0.77226   0.75000   0.00000  Uiso   1.00
O1503  O     0.77328   0.83334   0.81613   0.00000  Uiso   1.00
O1504  O     0.89339   0.83333   0.68388   0.00000  Uiso   1.00
O1505  O     0.84972   0.83333   0.81612   0.00000  Uiso   1.00
O1506  O     0.81695   0.83334   0.68388   0.00000  Uiso   1.00
Zn1507 Zn    0.78229   0.83334   0.75000   0.00000  Uiso   1.00
Zn1508 Zn    0.88438   0.83333   0.75000   0.00000  Uiso   1.00
O1509  O     0.69424   0.76619   0.54731   0.00000  Uiso   1.00
C1510  C     0.68364   0.72311   0.54884   0.00000  Uiso   1.00
H1511  H     0.69584   0.70682   0.57596   0.00000  Uiso   1.00
H1512  H     0.69853   0.70781   0.51358   0.00000  Uiso   1.00
H1513  H     0.97840   0.71948   0.55935   0.00000  Uiso   1.00
O1514  O     0.96108   0.74392   0.95631   0.00000  Uiso   1.00
C1515  C     0.96677   0.70015   0.95610   0.00000  Uiso   1.00
H1516  H     0.94893   0.68448   0.93277   0.00000  Uiso   1.00
H1517  H     0.95405   0.68701   0.99255   0.00000  Uiso   1.00
H1518  H     0.67130   0.69290   0.94165   0.00000  Uiso   1.00
O1519  O     0.79430   0.81371   0.61257   0.00000  Uiso   1.00
C1520  C     0.78734   0.85344   0.59521   0.00000  Uiso   1.00
H1521  H     0.79232   0.85224   0.55641   0.00000  Uiso   1.00
H1522  H     0.81074   0.87751   0.60322   0.00000  Uiso   1.00
H1523  H     0.75083   0.86342   0.61318   0.00000  Uiso   1.00
O1524  O     0.86970   0.79942   0.88355   0.00000  Uiso   1.00
C1525  C     0.89131   0.83526   0.89566   0.00000  Uiso   1.00
H1526  H     0.88894   0.83561   0.93390   0.00000  Uiso   1.00
H1527  H     0.87618   0.86463   0.88659   0.00000  Uiso   1.00
H1528  H     0.92890   0.83459   0.87492   0.00000  Uiso   1.00
O1529  O     0.95205   0.84876   0.59040   0.00000  Uiso   1.00
C1530  C     0.98272   0.83148   0.61321   0.00000  Uiso   1.00
H1531  H     0.97537   0.79831   0.62437   0.00000  Uiso   1.00
H1532  H     0.98075   0.85053   0.64517   0.00000  Uiso   1.00
H1533  H     0.68578   0.83436   0.58969   0.00000  Uiso   1.00
O1534  O     0.72344   0.86621   0.90410   0.00000  Uiso   1.00
C1535  C     0.67667   0.85379   0.91113   0.00000  Uiso   1.00
H1536  H     0.67367   0.82034   0.90165   0.00000  Uiso   1.00
H1537  H     0.99552   0.87288   0.88775   0.00000  Uiso   1.00
H1538  H     0.98828   0.86035   0.94808   0.00000  Uiso   1.00
F1539  F     0.70582   0.84811   0.50012   0.00000  Uiso   1.00
F1540  F     0.97640   0.80223   0.50782   0.00000  Uiso   1.00
F1541  F     0.75732   0.74703   0.59605   0.00000  Uiso   1.00
F1542  F     0.89385   0.73281   0.91081   0.00000  Uiso   1.00
F1543  F     0.91426   0.95843   0.70069   0.00000  Uiso   1.00
F1544  F     0.75243   0.70825   0.79933   0.00000  Uiso   1.00
F1545  F     0.96737   0.77041   0.70630   0.00000  Uiso   1.00
F1546  F     0.69883   0.89511   0.79571   0.00000  Uiso   1.00
F1547  F     0.72609   0.77142   0.70459   0.00000  Uiso   1.00
F1548  F     0.94055   0.89517   0.79557   0.00000  Uiso   1.00
loop_
_geom_bond_atom_site_label_1
_geom_bond_atom_site_label_2
_geom_bond_distance
_geom_bond_site_symmetry_2
_ccdc_geom_bond_type
C1     O37     1.294   .     A
C1     C12     1.414   .     S
C1     O39     1.293   .     A
C2     C11     1.414   .     S
C2     O38     1.294   .     A
C2     O40     1.293   .     A
C3     F79     1.359   .     S
C3     C5      1.393   .     A
C3     C32     1.395   .     A
C4     F80     1.358   .     S
C4     C6      1.401   .     A
C4     C31     1.403   .     A
C5     O47     1.376   .     S
C5     C803    1.412   1_554 S
C6     O52     1.384   .     S
C6     C804    1.419   .     S
C7     C12     1.399   .     A
C7     F81     1.359   .     S
C7     C267    1.372   .     S
C8     F82     1.359   .     S
C8     C11     1.399   .     A
C8     C526    1.372   1_545 S
C9     H33     1.084   .     S
C9     C11     1.395   .     A
C9     C523    1.372   1_545 S
C10    H34     1.084   .     S
C10    C12     1.395   .     A
C10    C266    1.372   .     S
C13    N36     1.371   .     A
C13    F83     1.354   .     S
C13    C101    1.427   .     S
C14    F84     1.355   .     S
C14    N35     1.371   .     A
C14    C188    1.427   1_455 S
C15    F85     1.355   .     S
C15    N35     1.370   .     A
C15    C185    1.427   1_455 S
C16    F86     1.355   .     S
C16    N36     1.371   .     A
C16    C100    1.427   .     S
C17    O43     1.300   .     A
C17    C19     1.475   .     S
C17    O41     1.315   .     A
C18    O42     1.316   .     A
C18    O44     1.305   .     A
C18    C20     1.484   .     S
C19    C23     1.399   .     A
C19    C25     1.420   .     A
C20    C24     1.402   .     A
C20    C26     1.417   .     A
C21    C23     1.402   .     A
C21    C29     1.404   .     A
C21    F851    1.356   .     S
C22    F78     1.333   .     S
C22    C24     1.405   .     A
C22    C30     1.394   .     A
C23    O72     1.388   .     S
C24    O67     1.386   .     S
C25    C27     1.418   .     A
C25    O62     1.382   .     S
C26    C28     1.419   .     A
C26    O57     1.385   .     S
C27    C29     1.416   .     A
C27    C31     1.423   .     A
C28    C32     1.410   .     A
C28    C30     1.410   .     A
C29    C779    1.412   .     S
C30    C780    1.419   1_554 S
C31    C806    1.406   .     S
C32    C805    1.406   1_554 S
N35    Zn45    2.040   .     S
N36    Zn46    2.040   .     S
O37    Zn45    1.991   .     S
O38    Zn46    1.991   .     S
O39    Zn46    1.992   .     S
O40    Zn45    1.992   .     S
O41    Zn45    1.893   .     S
O42    Zn46    1.893   .     S
O43    Zn46    1.917   .     S
O44    Zn45    1.917   .     S
O47    C48     1.412   .     S
C48    H50     1.114   .     S
C48    H49     1.110   .     S
C48    H223    1.109   1_455 S
H51    C134    1.109   .     S
O52    C53     1.410   .     S
C53    H54     1.111   .     S
C53    H55     1.114   .     S
C53    H142    1.109   .     S
H56    C225    1.109   1_455 S
O57    C58     1.413   .     S
C58    H60     1.113   .     S
C58    H61     1.108   .     S
C58    H59     1.113   .     S
O62    C63     1.413   .     S
C63    H65     1.113   .     S
C63    H66     1.108   .     S
C63    H64     1.112   .     S
O67    C68     1.411   .     S
C68    H69     1.115   .     S
C68    H70     1.109   .     S
C68    H157    1.106   .     S
H71    C240    1.106   1_455 S
O72    C73     1.411   .     S
C73    H74     1.115   .     S
C73    H247    1.108   1_455 S
C73    H248    1.109   1_455 S
H75    C159    1.108   .     S
H76    C159    1.109   .     S
F77    C795    1.356   1_554 S
C87    O123    1.294   .     A
C87    C98     1.414   .     S
C87    O125    1.293   .     A
C88    C97     1.414   .     S
C88    O124    1.294   .     A
C88    O126    1.293   .     A
C89    F165    1.359   .     S
C89    C91     1.393   .     A
C89    C118    1.395   .     A
C90    F166    1.358   .     S
C90    C92     1.401   .     A
C90    C117    1.403   .     A
C91    O133    1.376   .     S
C91    C889    1.412   1_554 S
C92    O138    1.384   .     S
C92    C890    1.419   .     S
C93    C98     1.399   .     A
C93    F167    1.359   .     S
C93    C353    1.372   .     S
C94    F168    1.359   .     S
C94    C97     1.399   .     A
C94    C612    1.372   1_545 S
C95    H119    1.084   .     S
C95    C97     1.395   .     A
C95    C609    1.372   1_545 S
C96    H120    1.084   .     S
C96    C98     1.395   .     A
C96    C352    1.372   .     S
C99    N122    1.371   .     A
C99    F169    1.354   .     S
C99    C187    1.427   .     S
C100   F170    1.355   .     S
C100   N121    1.371   .     A
C101   F171    1.355   .     S
C101   N121    1.370   .     A
C102   F172    1.355   .     S
C102   N122    1.371   .     A
C102   C186    1.427   .     S
C103   O129    1.300   .     A
C103   C105    1.475   .     S
C103   O127    1.315   .     A
C104   O128    1.316   .     A
C104   O130    1.305   .     A
C104   C106    1.484   .     S
C105   C109    1.399   .     A
C105   C111    1.420   .     A
C106   C110    1.402   .     A
C106   C112    1.417   .     A
C107   C109    1.402   .     A
C107   C115    1.404   .     A
C107   F937    1.356   .     S
C108   F164    1.333   .     S
C108   C110    1.405   .     A
C108   C116    1.394   .     A
C109   O158    1.388   .     S
C110   O153    1.386   .     S
C111   C113    1.418   .     A
C111   O148    1.382   .     S
C112   C114    1.419   .     A
C112   O143    1.385   .     S
C113   C115    1.416   .     A
C113   C117    1.423   .     A
C114   C118    1.410   .     A
C114   C116    1.410   .     A
C115   C865    1.412   .     S
C116   C866    1.419   1_554 S
C117   C892    1.406   .     S
C118   C891    1.406   1_554 S
N121   Zn131   2.040   .     S
N122   Zn132   2.040   .     S
O123   Zn131   1.991   .     S
O124   Zn132   1.991   .     S
O125   Zn132   1.992   .     S
O126   Zn131   1.992   .     S
O127   Zn131   1.893   .     S
O128   Zn132   1.893   .     S
O129   Zn132   1.917   .     S
O130   Zn131   1.917   .     S
O133   C134    1.412   .     S
C134   H136    1.114   .     S
C134   H135    1.110   .     S
H137   C220    1.109   .     S
O138   C139    1.410   .     S
C139   H140    1.111   .     S
C139   H141    1.114   .     S
C139   H228    1.109   .     S
O143   C144    1.413   .     S
C144   H146    1.113   .     S
C144   H147    1.108   .     S
C144   H145    1.113   .     S
O148   C149    1.413   .     S
C149   H151    1.113   .     S
C149   H152    1.108   .     S
C149   H150    1.112   .     S
O153   C154    1.411   .     S
C154   H155    1.115   .     S
C154   H156    1.109   .     S
C154   H243    1.106   .     S
O158   C159    1.411   .     S
C159   H160    1.115   .     S
H161   C245    1.108   .     S
H162   C245    1.109   .     S
F163   C881    1.356   1_554 S
C173   O209    1.294   .     A
C173   C184    1.414   .     S
C173   O211    1.293   .     A
C174   C183    1.414   .     S
C174   O210    1.294   .     A
C174   O212    1.293   .     A
C175   F251    1.359   .     S
C175   C177    1.393   .     A
C175   C204    1.395   .     A
C176   F252    1.358   .     S
C176   C178    1.401   .     A
C176   C203    1.403   .     A
C177   O219    1.376   .     S
C177   C975    1.412   1_554 S
C178   O224    1.384   .     S
C178   C976    1.419   .     S
C179   C184    1.399   .     A
C179   F253    1.359   .     S
C179   C439    1.372   .     S
C180   F254    1.359   .     S
C180   C183    1.399   .     A
C180   C698    1.372   1_545 S
C181   H205    1.084   .     S
C181   C183    1.395   .     A
C181   C695    1.372   1_545 S
C182   H206    1.084   .     S
C182   C184    1.395   .     A
C182   C438    1.372   .     S
C185   N208    1.371   .     A
C185   F255    1.354   .     S
C185   C15     1.427   1_655 S
C186   F256    1.355   .     S
C186   N207    1.371   .     A
C187   F257    1.355   .     S
C187   N207    1.370   .     A
C188   F258    1.355   .     S
C188   N208    1.371   .     A
C188   C14     1.427   1_655 S
C189   O215    1.300   .     A
C189   C191    1.475   .     S
C189   O213    1.315   .     A
C190   O214    1.316   .     A
C190   O216    1.305   .     A
C190   C192    1.484   .     S
C191   C195    1.399   .     A
C191   C197    1.420   .     A
C192   C196    1.402   .     A
C192   C198    1.417   .     A
C193   C195    1.402   .     A
C193   C201    1.404   .     A
C193   F1023   1.356   .     S
C194   F250    1.333   .     S
C194   C196    1.405   .     A
C194   C202    1.394   .     A
C195   O244    1.388   .     S
C196   O239    1.386   .     S
C197   C199    1.418   .     A
C197   O234    1.382   .     S
C198   C200    1.419   .     A
C198   O229    1.385   .     S
C199   C201    1.416   .     A
C199   C203    1.423   .     A
C200   C204    1.410   .     A
C200   C202    1.410   .     A
C201   C951    1.412   .     S
C202   C952    1.419   1_554 S
C203   C978    1.406   .     S
C204   C977    1.406   1_554 S
N207   Zn217   2.040   .     S
N208   Zn218   2.040   .     S
O209   Zn217   1.991   .     S
O210   Zn218   1.991   .     S
O211   Zn218   1.992   .     S
O212   Zn217   1.992   .     S
O213   Zn217   1.893   .     S
O214   Zn218   1.893   .     S
O215   Zn218   1.917   .     S
O216   Zn217   1.917   .     S
O219   C220    1.412   .     S
C220   H222    1.114   .     S
C220   H221    1.110   .     S
H223   C48     1.109   1_655 S
O224   C225    1.410   .     S
C225   H226    1.111   .     S
C225   H227    1.114   .     S
C225   H56     1.109   1_655 S
O229   C230    1.413   .     S
C230   H232    1.113   .     S
C230   H233    1.108   .     S
C230   H231    1.113   .     S
O234   C235    1.413   .     S
C235   H237    1.113   .     S
C235   H238    1.108   .     S
C235   H236    1.112   .     S
O239   C240    1.411   .     S
C240   H241    1.115   .     S
C240   H242    1.109   .     S
C240   H71     1.106   1_655 S
O244   C245    1.411   .     S
C245   H246    1.115   .     S
H247   C73     1.108   1_655 S
H248   C73     1.109   1_655 S
F249   C967    1.356   1_554 S
C259   O295    1.294   .     A
C259   C270    1.414   .     S
C259   O297    1.293   .     A
C260   C269    1.414   .     S
C260   O296    1.294   .     A
C260   O298    1.293   .     A
C261   F337    1.359   .     S
C261   C263    1.393   .     A
C261   C290    1.395   .     A
C262   F338    1.358   .     S
C262   C264    1.401   .     A
C262   C289    1.403   .     A
C263   O305    1.376   .     S
C263   C1061   1.412   1_554 S
C264   O310    1.384   .     S
C264   C1062   1.419   .     S
C265   C270    1.399   .     A
C265   F339    1.359   .     S
C265   C525    1.372   .     S
C266   F340    1.359   .     S
C266   C269    1.399   .     A
C267   H291    1.084   .     S
C267   C269    1.395   .     A
C268   H292    1.084   .     S
C268   C270    1.395   .     A
C268   C524    1.372   .     S
C271   N294    1.371   .     A
C271   F341    1.354   .     S
C271   C359    1.427   .     S
C272   F342    1.355   .     S
C272   N293    1.371   .     A
C272   C446    1.427   1_455 S
C273   F343    1.355   .     S
C273   N293    1.370   .     A
C273   C443    1.427   1_455 S
C274   F344    1.355   .     S
C274   N294    1.371   .     A
C274   C358    1.427   .     S
C275   O301    1.300   .     A
C275   C277    1.475   .     S
C275   O299    1.315   .     A
C276   O300    1.316   .     A
C276   O302    1.305   .     A
C276   C278    1.484   .     S
C277   C281    1.399   .     A
C277   C283    1.420   .     A
C278   C282    1.402   .     A
C278   C284    1.417   .     A
C279   C281    1.402   .     A
C279   C287    1.404   .     A
C279   F1109   1.356   .     S
C280   F336    1.333   .     S
C280   C282    1.405   .     A
C280   C288    1.394   .     A
C281   O330    1.388   .     S
C282   O325    1.386   .     S
C283   C285    1.418   .     A
C283   O320    1.382   .     S
C284   C286    1.419   .     A
C284   O315    1.385   .     S
C285   C287    1.416   .     A
C285   C289    1.423   .     A
C286   C290    1.410   .     A
C286   C288    1.410   .     A
C287   C1037   1.412   .     S
C288   C1038   1.419   1_554 S
C289   C1064   1.406   .     S
C290   C1063   1.406   1_554 S
N293   Zn303   2.040   .     S
N294   Zn304   2.040   .     S
O295   Zn303   1.991   .     S
O296   Zn304   1.991   .     S
O297   Zn304   1.992   .     S
O298   Zn303   1.992   .     S
O299   Zn303   1.893   .     S
O300   Zn304   1.893   .     S
O301   Zn304   1.917   .     S
O302   Zn303   1.917   .     S
O305   C306    1.412   .     S
C306   H308    1.114   .     S
C306   H307    1.110   .     S
C306   H481    1.109   1_455 S
H309   C392    1.109   .     S
O310   C311    1.410   .     S
C311   H312    1.111   .     S
C311   H313    1.114   .     S
C311   H400    1.109   .     S
H314   C483    1.109   1_455 S
O315   C316    1.413   .     S
C316   H318    1.113   .     S
C316   H319    1.108   .     S
C316   H317    1.113   .     S
O320   C321    1.413   .     S
C321   H323    1.113   .     S
C321   H324    1.108   .     S
C321   H322    1.112   .     S
O325   C326    1.411   .     S
C326   H327    1.115   .     S
C326   H328    1.109   .     S
C326   H415    1.106   .     S
H329   C498    1.106   1_455 S
O330   C331    1.411   .     S
C331   H332    1.115   .     S
C331   H505    1.108   1_455 S
C331   H506    1.109   1_455 S
H333   C417    1.108   .     S
H334   C417    1.109   .     S
F335   C1053   1.356   1_554 S
C345   O381    1.294   .     A
C345   C356    1.414   .     S
C345   O383    1.293   .     A
C346   C355    1.414   .     S
C346   O382    1.294   .     A
C346   O384    1.293   .     A
C347   F423    1.359   .     S
C347   C349    1.393   .     A
C347   C376    1.395   .     A
C348   F424    1.358   .     S
C348   C350    1.401   .     A
C348   C375    1.403   .     A
C349   O391    1.376   .     S
C349   C1147   1.412   1_554 S
C350   O396    1.384   .     S
C350   C1148   1.419   .     S
C351   C356    1.399   .     A
C351   F425    1.359   .     S
C351   C611    1.372   .     S
C352   F426    1.359   .     S
C352   C355    1.399   .     A
C353   H377    1.084   .     S
C353   C355    1.395   .     A
C354   H378    1.084   .     S
C354   C356    1.395   .     A
C354   C610    1.372   .     S
C357   N380    1.371   .     A
C357   F427    1.354   .     S
C357   C445    1.427   .     S
C358   F428    1.355   .     S
C358   N379    1.371   .     A
C359   F429    1.355   .     S
C359   N379    1.370   .     A
C360   F430    1.355   .     S
C360   N380    1.371   .     A
C360   C444    1.427   .     S
C361   O387    1.300   .     A
C361   C363    1.475   .     S
C361   O385    1.315   .     A
C362   O386    1.316   .     A
C362   O388    1.305   .     A
C362   C364    1.484   .     S
C363   C367    1.399   .     A
C363   C369    1.420   .     A
C364   C368    1.402   .     A
C364   C370    1.417   .     A
C365   C367    1.402   .     A
C365   C373    1.404   .     A
C365   F1195   1.356   .     S
C366   F422    1.333   .     S
C366   C368    1.405   .     A
C366   C374    1.394   .     A
C367   O416    1.388   .     S
C368   O411    1.386   .     S
C369   C371    1.418   .     A
C369   O406    1.382   .     S
C370   C372    1.419   .     A
C370   O401    1.385   .     S
C371   C373    1.416   .     A
C371   C375    1.423   .     A
C372   C376    1.410   .     A
C372   C374    1.410   .     A
C373   C1123   1.412   .     S
C374   C1124   1.419   1_554 S
C375   C1150   1.406   .     S
C376   C1149   1.406   1_554 S
N379   Zn389   2.040   .     S
N380   Zn390   2.040   .     S
O381   Zn389   1.991   .     S
O382   Zn390   1.991   .     S
O383   Zn390   1.992   .     S
O384   Zn389   1.992   .     S
O385   Zn389   1.893   .     S
O386   Zn390   1.893   .     S
O387   Zn390   1.917   .     S
O388   Zn389   1.917   .     S
O391   C392    1.412   .     S
C392   H394    1.114   .     S
C392   H393    1.110   .     S
H395   C478    1.109   .     S
O396   C397    1.410   .     S
C397   H398    1.111   .     S
C397   H399    1.114   .     S
C397   H486    1.109   .     S
O401   C402    1.413   .     S
C402   H404    1.113   .     S
C402   H405    1.108   .     S
C402   H403    1.113   .     S
O406   C407    1.413   .     S
C407   H409    1.113   .     S
C407   H410    1.108   .     S
C407   H408    1.112   .     S
O411   C412    1.411   .     S
C412   H413    1.115   .     S
C412   H414    1.109   .     S
C412   H501    1.106   .     S
O416   C417    1.411   .     S
C417   H418    1.115   .     S
H419   C503    1.108   .     S
H420   C503    1.109   .     S
F421   C1139   1.356   1_554 S
C431   O467    1.294   .     A
C431   C442    1.414   .     S
C431   O469    1.293   .     A
C432   C441    1.414   .     S
C432   O468    1.294   .     A
C432   O470    1.293   .     A
C433   F509    1.359   .     S
C433   C435    1.393   .     A
C433   C462    1.395   .     A
C434   F510    1.358   .     S
C434   C436    1.401   .     A
C434   C461    1.403   .     A
C435   O477    1.376   .     S
C435   C1233   1.412   1_554 S
C436   O482    1.384   .     S
C436   C1234   1.419   .     S
C437   C442    1.399   .     A
C437   F511    1.359   .     S
C437   C697    1.372   .     S
C438   F512    1.359   .     S
C438   C441    1.399   .     A
C439   H463    1.084   .     S
C439   C441    1.395   .     A
C440   H464    1.084   .     S
C440   C442    1.395   .     A
C440   C696    1.372   .     S
C443   N466    1.371   .     A
C443   F513    1.354   .     S
C443   C273    1.427   1_655 S
C444   F514    1.355   .     S
C444   N465    1.371   .     A
C445   F515    1.355   .     S
C445   N465    1.370   .     A
C446   F516    1.355   .     S
C446   N466    1.371   .     A
C446   C272    1.427   1_655 S
C447   O473    1.300   .     A
C447   C449    1.475   .     S
C447   O471    1.315   .     A
C448   O472    1.316   .     A
C448   O474    1.305   .     A
C448   C450    1.484   .     S
C449   C453    1.399   .     A
C449   C455    1.420   .     A
C450   C454    1.402   .     A
C450   C456    1.417   .     A
C451   C453    1.402   .     A
C451   C459    1.404   .     A
C451   F1281   1.356   .     S
C452   F508    1.333   .     S
C452   C454    1.405   .     A
C452   C460    1.394   .     A
C453   O502    1.388   .     S
C454   O497    1.386   .     S
C455   C457    1.418   .     A
C455   O492    1.382   .     S
C456   C458    1.419   .     A
C456   O487    1.385   .     S
C457   C459    1.416   .     A
C457   C461    1.423   .     A
C458   C462    1.410   .     A
C458   C460    1.410   .     A
C459   C1209   1.412   .     S
C460   C1210   1.419   1_554 S
C461   C1236   1.406   .     S
C462   C1235   1.406   1_554 S
N465   Zn475   2.040   .     S
N466   Zn476   2.040   .     S
O467   Zn475   1.991   .     S
O468   Zn476   1.991   .     S
O469   Zn476   1.992   .     S
O470   Zn475   1.992   .     S
O471   Zn475   1.893   .     S
O472   Zn476   1.893   .     S
O473   Zn476   1.917   .     S
O474   Zn475   1.917   .     S
O477   C478    1.412   .     S
C478   H480    1.114   .     S
C478   H479    1.110   .     S
H481   C306    1.109   1_655 S
O482   C483    1.410   .     S
C483   H484    1.111   .     S
C483   H485    1.114   .     S
C483   H314    1.109   1_655 S
O487   C488    1.413   .     S
C488   H490    1.113   .     S
C488   H491    1.108   .     S
C488   H489    1.113   .     S
O492   C493    1.413   .     S
C493   H495    1.113   .     S
C493   H496    1.108   .     S
C493   H494    1.112   .     S
O497   C498    1.411   .     S
C498   H499    1.115   .     S
C498   H500    1.109   .     S
C498   H329    1.106   1_655 S
O502   C503    1.411   .     S
C503   H504    1.115   .     S
H505   C331    1.108   1_655 S
H506   C331    1.109   1_655 S
F507   C1225   1.356   1_554 S
C517   O553    1.294   .     A
C517   C528    1.414   .     S
C517   O555    1.293   .     A
C518   C527    1.414   .     S
C518   O554    1.294   .     A
C518   O556    1.293   .     A
C519   F595    1.359   .     S
C519   C521    1.393   .     A
C519   C548    1.395   .     A
C520   F596    1.358   .     S
C520   C522    1.401   .     A
C520   C547    1.403   .     A
C521   O563    1.376   .     S
C521   C1319   1.412   1_554 S
C522   O568    1.384   .     S
C522   C1320   1.419   .     S
C523   C528    1.399   .     A
C523   F597    1.359   .     S
C523   C9      1.372   1_565 S
C524   F598    1.359   .     S
C524   C527    1.399   .     A
C525   H549    1.084   .     S
C525   C527    1.395   .     A
C526   H550    1.084   .     S
C526   C528    1.395   .     A
C526   C8      1.372   1_565 S
C529   N552    1.371   .     A
C529   F599    1.354   .     S
C529   C617    1.427   .     S
C530   F600    1.355   .     S
C530   N551    1.371   .     A
C530   C704    1.427   1_455 S
C531   F601    1.355   .     S
C531   N551    1.370   .     A
C531   C701    1.427   1_455 S
C532   F602    1.355   .     S
C532   N552    1.371   .     A
C532   C616    1.427   .     S
C533   O559    1.300   .     A
C533   C535    1.475   .     S
C533   O557    1.315   .     A
C534   O558    1.316   .     A
C534   O560    1.305   .     A
C534   C536    1.484   .     S
C535   C539    1.399   .     A
C535   C541    1.420   .     A
C536   C540    1.402   .     A
C536   C542    1.417   .     A
C537   C539    1.402   .     A
C537   C545    1.404   .     A
C537   F1367   1.356   .     S
C538   F594    1.333   .     S
C538   C540    1.405   .     A
C538   C546    1.394   .     A
C539   O588    1.388   .     S
C540   O583    1.386   .     S
C541   C543    1.418   .     A
C541   O578    1.382   .     S
C542   C544    1.419   .     A
C542   O573    1.385   .     S
C543   C545    1.416   .     A
C543   C547    1.423   .     A
C544   C548    1.410   .     A
C544   C546    1.410   .     A
C545   C1295   1.412   .     S
C546   C1296   1.419   1_554 S
C547   C1322   1.406   .     S
C548   C1321   1.406   1_554 S
N551   Zn561   2.040   .     S
N552   Zn562   2.040   .     S
O553   Zn561   1.991   .     S
O554   Zn562   1.991   .     S
O555   Zn562   1.992   .     S
O556   Zn561   1.992   .     S
O557   Zn561   1.893   .     S
O558   Zn562   1.893   .     S
O559   Zn562   1.917   .     S
O560   Zn561   1.917   .     S
O563   C564    1.412   .     S
C564   H566    1.114   .     S
C564   H565    1.110   .     S
C564   H739    1.109   1_455 S
H567   C650    1.109   .     S
O568   C569    1.410   .     S
C569   H570    1.111   .     S
C569   H571    1.114   .     S
C569   H658    1.109   .     S
H572   C741    1.109   1_455 S
O573   C574    1.413   .     S
C574   H576    1.113   .     S
C574   H577    1.108   .     S
C574   H575    1.113   .     S
O578   C579    1.413   .     S
C579   H581    1.113   .     S
C579   H582    1.108   .     S
C579   H580    1.112   .     S
O583   C584    1.411   .     S
C584   H585    1.115   .     S
C584   H586    1.109   .     S
C584   H673    1.106   .     S
H587   C756    1.106   1_455 S
O588   C589    1.411   .     S
C589   H590    1.115   .     S
C589   H763    1.108   1_455 S
C589   H764    1.109   1_455 S
H591   C675    1.108   .     S
H592   C675    1.109   .     S
F593   C1311   1.356   1_554 S
C603   O639    1.294   .     A
C603   C614    1.414   .     S
C603   O641    1.293   .     A
C604   C613    1.414   .     S
C604   O640    1.294   .     A
C604   O642    1.293   .     A
C605   F681    1.359   .     S
C605   C607    1.393   .     A
C605   C634    1.395   .     A
C606   F682    1.358   .     S
C606   C608    1.401   .     A
C606   C633    1.403   .     A
C607   O649    1.376   .     S
C607   C1405   1.412   1_554 S
C608   O654    1.384   .     S
C608   C1406   1.419   .     S
C609   C614    1.399   .     A
C609   F683    1.359   .     S
C609   C95     1.372   1_565 S
C610   F684    1.359   .     S
C610   C613    1.399   .     A
C611   H635    1.084   .     S
C611   C613    1.395   .     A
C612   H636    1.084   .     S
C612   C614    1.395   .     A
C612   C94     1.372   1_565 S
C615   N638    1.371   .     A
C615   F685    1.354   .     S
C615   C703    1.427   .     S
C616   F686    1.355   .     S
C616   N637    1.371   .     A
C617   F687    1.355   .     S
C617   N637    1.370   .     A
C618   F688    1.355   .     S
C618   N638    1.371   .     A
C618   C702    1.427   .     S
C619   O645    1.300   .     A
C619   C621    1.475   .     S
C619   O643    1.315   .     A
C620   O644    1.316   .     A
C620   O646    1.305   .     A
C620   C622    1.484   .     S
C621   C625    1.399   .     A
C621   C627    1.420   .     A
C622   C626    1.402   .     A
C622   C628    1.417   .     A
C623   C625    1.402   .     A
C623   C631    1.404   .     A
C623   F1453   1.356   .     S
C624   F680    1.333   .     S
C624   C626    1.405   .     A
C624   C632    1.394   .     A
C625   O674    1.388   .     S
C626   O669    1.386   .     S
C627   C629    1.418   .     A
C627   O664    1.382   .     S
C628   C630    1.419   .     A
C628   O659    1.385   .     S
C629   C631    1.416   .     A
C629   C633    1.423   .     A
C630   C634    1.410   .     A
C630   C632    1.410   .     A
C631   C1381   1.412   .     S
C632   C1382   1.419   1_554 S
C633   C1408   1.406   .     S
C634   C1407   1.406   1_554 S
N637   Zn647   2.040   .     S
N638   Zn648   2.040   .     S
O639   Zn647   1.991   .     S
O640   Zn648   1.991   .     S
O641   Zn648   1.992   .     S
O642   Zn647   1.992   .     S
O643   Zn647   1.893   .     S
O644   Zn648   1.893   .     S
O645   Zn648   1.917   .     S
O646   Zn647   1.917   .     S
O649   C650    1.412   .     S
C650   H652    1.114   .     S
C650   H651    1.110   .     S
H653   C736    1.109   .     S
O654   C655    1.410   .     S
C655   H656    1.111   .     S
C655   H657    1.114   .     S
C655   H744    1.109   .     S
O659   C660    1.413   .     S
C660   H662    1.113   .     S
C660   H663    1.108   .     S
C660   H661    1.113   .     S
O664   C665    1.413   .     S
C665   H667    1.113   .     S
C665   H668    1.108   .     S
C665   H666    1.112   .     S
O669   C670    1.411   .     S
C670   H671    1.115   .     S
C670   H672    1.109   .     S
C670   H759    1.106   .     S
O674   C675    1.411   .     S
C675   H676    1.115   .     S
H677   C761    1.108   .     S
H678   C761    1.109   .     S
F679   C1397   1.356   1_554 S
C689   O725    1.294   .     A
C689   C700    1.414   .     S
C689   O727    1.293   .     A
C690   C699    1.414   .     S
C690   O726    1.294   .     A
C690   O728    1.293   .     A
C691   F767    1.359   .     S
C691   C693    1.393   .     A
C691   C720    1.395   .     A
C692   F768    1.358   .     S
C692   C694    1.401   .     A
C692   C719    1.403   .     A
C693   O735    1.376   .     S
C693   C1491   1.412   1_554 S
C694   O740    1.384   .     S
C694   C1492   1.419   .     S
C695   C700    1.399   .     A
C695   F769    1.359   .     S
C695   C181    1.372   1_565 S
C696   F770    1.359   .     S
C696   C699    1.399   .     A
C697   H721    1.084   .     S
C697   C699    1.395   .     A
C698   H722    1.084   .     S
C698   C700    1.395   .     A
C698   C180    1.372   1_565 S
C701   N724    1.371   .     A
C701   F771    1.354   .     S
C701   C531    1.427   1_655 S
C702   F772    1.355   .     S
C702   N723    1.371   .     A
C703   F773    1.355   .     S
C703   N723    1.370   .     A
C704   F774    1.355   .     S
C704   N724    1.371   .     A
C704   C530    1.427   1_655 S
C705   O731    1.300   .     A
C705   C707    1.475   .     S
C705   O729    1.315   .     A
C706   O730    1.316   .     A
C706   O732    1.305   .     A
C706   C708    1.484   .     S
C707   C711    1.399   .     A
C707   C713    1.420   .     A
C708   C712    1.402   .     A
C708   C714    1.417   .     A
C709   C711    1.402   .     A
C709   C717    1.404   .     A
C709   F1539   1.356   .     S
C710   F766    1.333   .     S
C710   C712    1.405   .     A
C710   C718    1.394   .     A
C711   O760    1.388   .     S
C712   O755    1.386   .     S
C713   C715    1.418   .     A
C713   O750    1.382   .     S
C714   C716    1.419   .     A
C714   O745    1.385   .     S
C715   C717    1.416   .     A
C715   C719    1.423   .     A
C716   C720    1.410   .     A
C716   C718    1.410   .     A
C717   C1467   1.412   .     S
C718   C1468   1.419   1_554 S
C719   C1494   1.406   .     S
C720   C1493   1.406   1_554 S
N723   Zn733   2.040   .     S
N724   Zn734   2.040   .     S
O725   Zn733   1.991   .     S
O726   Zn734   1.991   .     S
O727   Zn734   1.992   .     S
O728   Zn733   1.992   .     S
O729   Zn733   1.893   .     S
O730   Zn734   1.893   .     S
O731   Zn734   1.917   .     S
O732   Zn733   1.917   .     S
O735   C736    1.412   .     S
C736   H738    1.114   .     S
C736   H737    1.110   .     S
H739   C564    1.109   1_655 S
O740   C741    1.410   .     S
C741   H742    1.111   .     S
C741   H743    1.114   .     S
C741   H572    1.109   1_655 S
O745   C746    1.413   .     S
C746   H748    1.113   .     S
C746   H749    1.108   .     S
C746   H747    1.113   .     S
O750   C751    1.413   .     S
C751   H753    1.113   .     S
C751   H754    1.108   .     S
C751   H752    1.112   .     S
O755   C756    1.411   .     S
C756   H757    1.115   .     S
C756   H758    1.109   .     S
C756   H587    1.106   1_655 S
O760   C761    1.411   .     S
C761   H762    1.115   .     S
H763   C589    1.108   1_655 S
H764   C589    1.109   1_655 S
F765   C1483   1.356   1_554 S
C775   O811    1.294   .     A
C775   C786    1.414   .     S
C775   O813    1.293   .     A
C776   C785    1.414   .     S
C776   O812    1.294   .     A
C776   O814    1.293   .     A
C777   F853    1.359   .     S
C777   C779    1.393   .     A
C777   C806    1.395   .     A
C778   F854    1.358   .     S
C778   C780    1.401   .     A
C778   C805    1.403   .     A
C779   O821    1.376   .     S
C780   O826    1.384   .     S
C780   C30     1.419   1_556 S
C781   C786    1.399   .     A
C781   F855    1.359   .     S
C781   C1041   1.372   .     S
C782   F856    1.359   .     S
C782   C785    1.399   .     A
C782   C1300   1.372   1_545 S
C783   H807    1.084   .     S
C783   C785    1.395   .     A
C783   C1297   1.372   1_545 S
C784   H808    1.084   .     S
C784   C786    1.395   .     A
C784   C1040   1.372   .     S
C787   N810    1.371   .     A
C787   F857    1.354   .     S
C787   C875    1.427   .     S
C788   F858    1.355   .     S
C788   N809    1.371   .     A
C788   C962    1.427   1_455 S
C789   F859    1.355   .     S
C789   N809    1.370   .     A
C789   C959    1.427   1_455 S
C790   F860    1.355   .     S
C790   N810    1.371   .     A
C790   C874    1.427   .     S
C791   O817    1.300   .     A
C791   C793    1.475   .     S
C791   O815    1.315   .     A
C792   O816    1.316   .     A
C792   O818    1.305   .     A
C792   C794    1.484   .     S
C793   C797    1.399   .     A
C793   C799    1.420   .     A
C794   C798    1.402   .     A
C794   C800    1.417   .     A
C795   C797    1.402   .     A
C795   C803    1.404   .     A
C795   F77     1.356   1_556 S
C796   F852    1.333   .     S
C796   C798    1.405   .     A
C796   C804    1.394   .     A
C797   O846    1.388   .     S
C798   O841    1.386   .     S
C799   C801    1.418   .     A
C799   O836    1.382   .     S
C800   C802    1.419   .     A
C800   O831    1.385   .     S
C801   C803    1.416   .     A
C801   C805    1.423   .     A
C802   C806    1.410   .     A
C802   C804    1.410   .     A
C803   C5      1.412   1_556 S
C805   C32     1.406   1_556 S
N809   Zn819   2.040   .     S
N810   Zn820   2.040   .     S
O811   Zn819   1.991   .     S
O812   Zn820   1.991   .     S
O813   Zn820   1.992   .     S
O814   Zn819   1.992   .     S
O815   Zn819   1.893   .     S
O816   Zn820   1.893   .     S
O817   Zn820   1.917   .     S
O818   Zn819   1.917   .     S
O821   C822    1.412   .     S
C822   H824    1.114   .     S
C822   H823    1.110   .     S
C822   H997    1.109   1_455 S
H825   C908    1.109   .     S
O826   C827    1.410   .     S
C827   H828    1.111   .     S
C827   H829    1.114   .     S
C827   H916    1.109   .     S
H830   C999    1.109   1_455 S
O831   C832    1.413   .     S
C832   H834    1.113   .     S
C832   H835    1.108   .     S
C832   H833    1.113   .     S
O836   C837    1.413   .     S
C837   H839    1.113   .     S
C837   H840    1.108   .     S
C837   H838    1.112   .     S
O841   C842    1.411   .     S
C842   H843    1.115   .     S
C842   H844    1.109   .     S
C842   H931    1.106   .     S
H845   C1014   1.106   1_455 S
O846   C847    1.411   .     S
C847   H848    1.115   .     S
C847   H1021   1.108   1_455 S
C847   H1022   1.109   1_455 S
H849   C933    1.108   .     S
H850   C933    1.109   .     S
C861   O897    1.294   .     A
C861   C872    1.414   .     S
C861   O899    1.293   .     A
C862   C871    1.414   .     S
C862   O898    1.294   .     A
C862   O900    1.293   .     A
C863   F939    1.359   .     S
C863   C865    1.393   .     A
C863   C892    1.395   .     A
C864   F940    1.358   .     S
C864   C866    1.401   .     A
C864   C891    1.403   .     A
C865   O907    1.376   .     S
C866   O912    1.384   .     S
C866   C116    1.419   1_556 S
C867   C872    1.399   .     A
C867   F941    1.359   .     S
C867   C1127   1.372   .     S
C868   F942    1.359   .     S
C868   C871    1.399   .     A
C868   C1386   1.372   1_545 S
C869   H893    1.084   .     S
C869   C871    1.395   .     A
C869   C1383   1.372   1_545 S
C870   H894    1.084   .     S
C870   C872    1.395   .     A
C870   C1126   1.372   .     S
C873   N896    1.371   .     A
C873   F943    1.354   .     S
C873   C961    1.427   .     S
C874   F944    1.355   .     S
C874   N895    1.371   .     A
C875   F945    1.355   .     S
C875   N895    1.370   .     A
C876   F946    1.355   .     S
C876   N896    1.371   .     A
C876   C960    1.427   .     S
C877   O903    1.300   .     A
C877   C879    1.475   .     S
C877   O901    1.315   .     A
C878   O902    1.316   .     A
C878   O904    1.305   .     A
C878   C880    1.484   .     S
C879   C883    1.399   .     A
C879   C885    1.420   .     A
C880   C884    1.402   .     A
C880   C886    1.417   .     A
C881   C883    1.402   .     A
C881   C889    1.404   .     A
C881   F163    1.356   1_556 S
C882   F938    1.333   .     S
C882   C884    1.405   .     A
C882   C890    1.394   .     A
C883   O932    1.388   .     S
C884   O927    1.386   .     S
C885   C887    1.418   .     A
C885   O922    1.382   .     S
C886   C888    1.419   .     A
C886   O917    1.385   .     S
C887   C889    1.416   .     A
C887   C891    1.423   .     A
C888   C892    1.410   .     A
C888   C890    1.410   .     A
C889   C91     1.412   1_556 S
C891   C118    1.406   1_556 S
N895   Zn905   2.040   .     S
N896   Zn906   2.040   .     S
O897   Zn905   1.991   .     S
O898   Zn906   1.991   .     S
O899   Zn906   1.992   .     S
O900   Zn905   1.992   .     S
O901   Zn905   1.893   .     S
O902   Zn906   1.893   .     S
O903   Zn906   1.917   .     S
O904   Zn905   1.917   .     S
O907   C908    1.412   .     S
C908   H910    1.114   .     S
C908   H909    1.110   .     S
H911   C994    1.109   .     S
O912   C913    1.410   .     S
C913   H914    1.111   .     S
C913   H915    1.114   .     S
C913   H1002   1.109   .     S
O917   C918    1.413   .     S
C918   H920    1.113   .     S
C918   H921    1.108   .     S
C918   H919    1.113   .     S
O922   C923    1.413   .     S
C923   H925    1.113   .     S
C923   H926    1.108   .     S
C923   H924    1.112   .     S
O927   C928    1.411   .     S
C928   H929    1.115   .     S
C928   H930    1.109   .     S
C928   H1017   1.106   .     S
O932   C933    1.411   .     S
C933   H934    1.115   .     S
H935   C1019   1.108   .     S
H936   C1019   1.109   .     S
C947   O983    1.294   .     A
C947   C958    1.414   .     S
C947   O985    1.293   .     A
C948   C957    1.414   .     S
C948   O984    1.294   .     A
C948   O986    1.293   .     A
C949   F1025   1.359   .     S
C949   C951    1.393   .     A
C949   C978    1.395   .     A
C950   F1026   1.358   .     S
C950   C952    1.401   .     A
C950   C977    1.403   .     A
C951   O993    1.376   .     S
C952   O998    1.384   .     S
C952   C202    1.419   1_556 S
C953   C958    1.399   .     A
C953   F1027   1.359   .     S
C953   C1213   1.372   .     S
C954   F1028   1.359   .     S
C954   C957    1.399   .     A
C954   C1472   1.372   1_545 S
C955   H979    1.084   .     S
C955   C957    1.395   .     A
C955   C1469   1.372   1_545 S
C956   H980    1.084   .     S
C956   C958    1.395   .     A
C956   C1212   1.372   .     S
C959   N982    1.371   .     A
C959   F1029   1.354   .     S
C959   C789    1.427   1_655 S
C960   F1030   1.355   .     S
C960   N981    1.371   .     A
C961   F1031   1.355   .     S
C961   N981    1.370   .     A
C962   F1032   1.355   .     S
C962   N982    1.371   .     A
C962   C788    1.427   1_655 S
C963   O989    1.300   .     A
C963   C965    1.475   .     S
C963   O987    1.315   .     A
C964   O988    1.316   .     A
C964   O990    1.305   .     A
C964   C966    1.484   .     S
C965   C969    1.399   .     A
C965   C971    1.420   .     A
C966   C970    1.402   .     A
C966   C972    1.417   .     A
C967   C969    1.402   .     A
C967   C975    1.404   .     A
C967   F249    1.356   1_556 S
C968   F1024   1.333   .     S
C968   C970    1.405   .     A
C968   C976    1.394   .     A
C969   O1018   1.388   .     S
C970   O1013   1.386   .     S
C971   C973    1.418   .     A
C971   O1008   1.382   .     S
C972   C974    1.419   .     A
C972   O1003   1.385   .     S
C973   C975    1.416   .     A
C973   C977    1.423   .     A
C974   C978    1.410   .     A
C974   C976    1.410   .     A
C975   C177    1.412   1_556 S
C977   C204    1.406   1_556 S
N981   Zn991   2.040   .     S
N982   Zn992   2.040   .     S
O983   Zn991   1.991   .     S
O984   Zn992   1.991   .     S
O985   Zn992   1.992   .     S
O986   Zn991   1.992   .     S
O987   Zn991   1.893   .     S
O988   Zn992   1.893   .     S
O989   Zn992   1.917   .     S
O990   Zn991   1.917   .     S
O993   C994    1.412   .     S
C994   H996    1.114   .     S
C994   H995    1.110   .     S
H997   C822    1.109   1_655 S
O998   C999    1.410   .     S
C999   H1000   1.111   .     S
C999   H1001   1.114   .     S
C999   H830    1.109   1_655 S
O1003  C1004   1.413   .     S
C1004  H1006   1.113   .     S
C1004  H1007   1.108   .     S
C1004  H1005   1.113   .     S
O1008  C1009   1.413   .     S
C1009  H1011   1.113   .     S
C1009  H1012   1.108   .     S
C1009  H1010   1.112   .     S
O1013  C1014   1.411   .     S
C1014  H1015   1.115   .     S
C1014  H1016   1.109   .     S
C1014  H845    1.106   1_655 S
O1018  C1019   1.411   .     S
C1019  H1020   1.115   .     S
H1021  C847    1.108   1_655 S
H1022  C847    1.109   1_655 S
C1033  O1069   1.294   .     A
C1033  C1044   1.414   .     S
C1033  O1071   1.293   .     A
C1034  C1043   1.414   .     S
C1034  O1070   1.294   .     A
C1034  O1072   1.293   .     A
C1035  F1111   1.359   .     S
C1035  C1037   1.393   .     A
C1035  C1064   1.395   .     A
C1036  F1112   1.358   .     S
C1036  C1038   1.401   .     A
C1036  C1063   1.403   .     A
C1037  O1079   1.376   .     S
C1038  O1084   1.384   .     S
C1038  C288    1.419   1_556 S
C1039  C1044   1.399   .     A
C1039  F1113   1.359   .     S
C1039  C1299   1.372   .     S
C1040  F1114   1.359   .     S
C1040  C1043   1.399   .     A
C1041  H1065   1.084   .     S
C1041  C1043   1.395   .     A
C1042  H1066   1.084   .     S
C1042  C1044   1.395   .     A
C1042  C1298   1.372   .     S
C1045  N1068   1.371   .     A
C1045  F1115   1.354   .     S
C1045  C1133   1.427   .     S
C1046  F1116   1.355   .     S
C1046  N1067   1.371   .     A
C1046  C1220   1.427   1_455 S
C1047  F1117   1.355   .     S
C1047  N1067   1.370   .     A
C1047  C1217   1.427   1_455 S
C1048  F1118   1.355   .     S
C1048  N1068   1.371   .     A
C1048  C1132   1.427   .     S
C1049  O1075   1.300   .     A
C1049  C1051   1.475   .     S
C1049  O1073   1.315   .     A
C1050  O1074   1.316   .     A
C1050  O1076   1.305   .     A
C1050  C1052   1.484   .     S
C1051  C1055   1.399   .     A
C1051  C1057   1.420   .     A
C1052  C1056   1.402   .     A
C1052  C1058   1.417   .     A
C1053  C1055   1.402   .     A
C1053  C1061   1.404   .     A
C1053  F335    1.356   1_556 S
C1054  F1110   1.333   .     S
C1054  C1056   1.405   .     A
C1054  C1062   1.394   .     A
C1055  O1104   1.388   .     S
C1056  O1099   1.386   .     S
C1057  C1059   1.418   .     A
C1057  O1094   1.382   .     S
C1058  C1060   1.419   .     A
C1058  O1089   1.385   .     S
C1059  C1061   1.416   .     A
C1059  C1063   1.423   .     A
C1060  C1064   1.410   .     A
C1060  C1062   1.410   .     A
C1061  C263    1.412   1_556 S
C1063  C290    1.406   1_556 S
N1067  Zn1077  2.040   .     S
N1068  Zn1078  2.040   .     S
O1069  Zn1077  1.991   .     S
O1070  Zn1078  1.991   .     S
O1071  Zn1078  1.992   .     S
O1072  Zn1077  1.992   .     S
O1073  Zn1077  1.893   .     S
O1074  Zn1078  1.893   .     S
O1075  Zn1078  1.917   .     S
O1076  Zn1077  1.917   .     S
O1079  C1080   1.412   .     S
C1080  H1082   1.114   .     S
C1080  H1081   1.110   .     S
C1080  H1255   1.109   1_455 S
H1083  C1166   1.109   .     S
O1084  C1085   1.410   .     S
C1085  H1086   1.111   .     S
C1085  H1087   1.114   .     S
C1085  H1174   1.109   .     S
H1088  C1257   1.109   1_455 S
O1089  C1090   1.413   .     S
C1090  H1092   1.113   .     S
C1090  H1093   1.108   .     S
C1090  H1091   1.113   .     S
O1094  C1095   1.413   .     S
C1095  H1097   1.113   .     S
C1095  H1098   1.108   .     S
C1095  H1096   1.112   .     S
O1099  C1100   1.411   .     S
C1100  H1101   1.115   .     S
C1100  H1102   1.109   .     S
C1100  H1189   1.106   .     S
H1103  C1272   1.106   1_455 S
O1104  C1105   1.411   .     S
C1105  H1106   1.115   .     S
C1105  H1279   1.108   1_455 S
C1105  H1280   1.109   1_455 S
H1107  C1191   1.108   .     S
H1108  C1191   1.109   .     S
C1119  O1155   1.294   .     A
C1119  C1130   1.414   .     S
C1119  O1157   1.293   .     A
C1120  C1129   1.414   .     S
C1120  O1156   1.294   .     A
C1120  O1158   1.293   .     A
C1121  F1197   1.359   .     S
C1121  C1123   1.393   .     A
C1121  C1150   1.395   .     A
C1122  F1198   1.358   .     S
C1122  C1124   1.401   .     A
C1122  C1149   1.403   .     A
C1123  O1165   1.376   .     S
C1124  O1170   1.384   .     S
C1124  C374    1.419   1_556 S
C1125  C1130   1.399   .     A
C1125  F1199   1.359   .     S
C1125  C1385   1.372   .     S
C1126  F1200   1.359   .     S
C1126  C1129   1.399   .     A
C1127  H1151   1.084   .     S
C1127  C1129   1.395   .     A
C1128  H1152   1.084   .     S
C1128  C1130   1.395   .     A
C1128  C1384   1.372   .     S
C1131  N1154   1.371   .     A
C1131  F1201   1.354   .     S
C1131  C1219   1.427   .     S
C1132  F1202   1.355   .     S
C1132  N1153   1.371   .     A
C1133  F1203   1.355   .     S
C1133  N1153   1.370   .     A
C1134  F1204   1.355   .     S
C1134  N1154   1.371   .     A
C1134  C1218   1.427   .     S
C1135  O1161   1.300   .     A
C1135  C1137   1.475   .     S
C1135  O1159   1.315   .     A
C1136  O1160   1.316   .     A
C1136  O1162   1.305   .     A
C1136  C1138   1.484   .     S
C1137  C1141   1.399   .     A
C1137  C1143   1.420   .     A
C1138  C1142   1.402   .     A
C1138  C1144   1.417   .     A
C1139  C1141   1.402   .     A
C1139  C1147   1.404   .     A
C1139  F421    1.356   1_556 S
C1140  F1196   1.333   .     S
C1140  C1142   1.405   .     A
C1140  C1148   1.394   .     A
C1141  O1190   1.388   .     S
C1142  O1185   1.386   .     S
C1143  C1145   1.418   .     A
C1143  O1180   1.382   .     S
C1144  C1146   1.419   .     A
C1144  O1175   1.385   .     S
C1145  C1147   1.416   .     A
C1145  C1149   1.423   .     A
C1146  C1150   1.410   .     A
C1146  C1148   1.410   .     A
C1147  C349    1.412   1_556 S
C1149  C376    1.406   1_556 S
N1153  Zn1163  2.040   .     S
N1154  Zn1164  2.040   .     S
O1155  Zn1163  1.991   .     S
O1156  Zn1164  1.991   .     S
O1157  Zn1164  1.992   .     S
O1158  Zn1163  1.992   .     S
O1159  Zn1163  1.893   .     S
O1160  Zn1164  1.893   .     S
O1161  Zn1164  1.917   .     S
O1162  Zn1163  1.917   .     S
O1165  C1166   1.412   .     S
C1166  H1168   1.114   .     S
C1166  H1167   1.110   .     S
H1169  C1252   1.109   .     S
O1170  C1171   1.410   .     S
C1171  H1172   1.111   .     S
C1171  H1173   1.114   .     S
C1171  H1260   1.109   .     S
O1175  C1176   1.413   .     S
C1176  H1178   1.113   .     S
C1176  H1179   1.108   .     S
C1176  H1177   1.113   .     S
O1180  C1181   1.413   .     S
C1181  H1183   1.113   .     S
C1181  H1184   1.108   .     S
C1181  H1182   1.112   .     S
O1185  C1186   1.411   .     S
C1186  H1187   1.115   .     S
C1186  H1188   1.109   .     S
C1186  H1275   1.106   .     S
O1190  C1191   1.411   .     S
C1191  H1192   1.115   .     S
H1193  C1277   1.108   .     S
H1194  C1277   1.109   .     S
C1205  O1241   1.294   .     A
C1205  C1216   1.414   .     S
C1205  O1243   1.293   .     A
C1206  C1215   1.414   .     S
C1206  O1242   1.294   .     A
C1206  O1244   1.293   .     A
C1207  F1283   1.359   .     S
C1207  C1209   1.393   .     A
C1207  C1236   1.395   .     A
C1208  F1284   1.358   .     S
C1208  C1210   1.401   .     A
C1208  C1235   1.403   .     A
C1209  O1251   1.376   .     S
C1210  O1256   1.384   .     S
C1210  C460    1.419   1_556 S
C1211  C1216   1.399   .     A
C1211  F1285   1.359   .     S
C1211  C1471   1.372   .     S
C1212  F1286   1.359   .     S
C1212  C1215   1.399   .     A
C1213  H1237   1.084   .     S
C1213  C1215   1.395   .     A
C1214  H1238   1.084   .     S
C1214  C1216   1.395   .     A
C1214  C1470   1.372   .     S
C1217  N1240   1.371   .     A
C1217  F1287   1.354   .     S
C1217  C1047   1.427   1_655 S
C1218  F1288   1.355   .     S
C1218  N1239   1.371   .     A
C1219  F1289   1.355   .     S
C1219  N1239   1.370   .     A
C1220  F1290   1.355   .     S
C1220  N1240   1.371   .     A
C1220  C1046   1.427   1_655 S
C1221  O1247   1.300   .     A
C1221  C1223   1.475   .     S
C1221  O1245   1.315   .     A
C1222  O1246   1.316   .     A
C1222  O1248   1.305   .     A
C1222  C1224   1.484   .     S
C1223  C1227   1.399   .     A
C1223  C1229   1.420   .     A
C1224  C1228   1.402   .     A
C1224  C1230   1.417   .     A
C1225  C1227   1.402   .     A
C1225  C1233   1.404   .     A
C1225  F507    1.356   1_556 S
C1226  F1282   1.333   .     S
C1226  C1228   1.405   .     A
C1226  C1234   1.394   .     A
C1227  O1276   1.388   .     S
C1228  O1271   1.386   .     S
C1229  C1231   1.418   .     A
C1229  O1266   1.382   .     S
C1230  C1232   1.419   .     A
C1230  O1261   1.385   .     S
C1231  C1233   1.416   .     A
C1231  C1235   1.423   .     A
C1232  C1236   1.410   .     A
C1232  C1234   1.410   .     A
C1233  C435    1.412   1_556 S
C1235  C462    1.406   1_556 S
N1239  Zn1249  2.040   .     S
N1240  Zn1250  2.040   .     S
O1241  Zn1249  1.991   .     S
O1242  Zn1250  1.991   .     S
O1243  Zn1250  1.992   .     S
O1244  Zn1249  1.992   .     S
O1245  Zn1249  1.893   .     S
O1246  Zn1250  1.893   .     S
O1247  Zn1250  1.917   .     S
O1248  Zn1249  1.917   .     S
O1251  C1252   1.412   .     S
C1252  H1254   1.114   .     S
C1252  H1253   1.110   .     S
H1255  C1080   1.109   1_655 S
O1256  C1257   1.410   .     S
C1257  H1258   1.111   .     S
C1257  H1259   1.114   .     S
C1257  H1088   1.109   1_655 S
O1261  C1262   1.413   .     S
C1262  H1264   1.113   .     S
C1262  H1265   1.108   .     S
C1262  H1263   1.113   .     S
O1266  C1267   1.413   .     S
C1267  H1269   1.113   .     S
C1267  H1270   1.108   .     S
C1267  H1268   1.112   .     S
O1271  C1272   1.411   .     S
C1272  H1273   1.115   .     S
C1272  H1274   1.109   .     S
C1272  H1103   1.106   1_655 S
O1276  C1277   1.411   .     S
C1277  H1278   1.115   .     S
H1279  C1105   1.108   1_655 S
H1280  C1105   1.109   1_655 S
C1291  O1327   1.294   .     A
C1291  C1302   1.414   .     S
C1291  O1329   1.293   .     A
C1292  C1301   1.414   .     S
C1292  O1328   1.294   .     A
C1292  O1330   1.293   .     A
C1293  F1369   1.359   .     S
C1293  C1295   1.393   .     A
C1293  C1322   1.395   .     A
C1294  F1370   1.358   .     S
C1294  C1296   1.401   .     A
C1294  C1321   1.403   .     A
C1295  O1337   1.376   .     S
C1296  O1342   1.384   .     S
C1296  C546    1.419   1_556 S
C1297  C1302   1.399   .     A
C1297  F1371   1.359   .     S
C1297  C783    1.372   1_565 S
C1298  F1372   1.359   .     S
C1298  C1301   1.399   .     A
C1299  H1323   1.084   .     S
C1299  C1301   1.395   .     A
C1300  H1324   1.084   .     S
C1300  C1302   1.395   .     A
C1300  C782    1.372   1_565 S
C1303  N1326   1.371   .     A
C1303  F1373   1.354   .     S
C1303  C1391   1.427   .     S
C1304  F1374   1.355   .     S
C1304  N1325   1.371   .     A
C1304  C1478   1.427   1_455 S
C1305  F1375   1.355   .     S
C1305  N1325   1.370   .     A
C1305  C1475   1.427   1_455 S
C1306  F1376   1.355   .     S
C1306  N1326   1.371   .     A
C1306  C1390   1.427   .     S
C1307  O1333   1.300   .     A
C1307  C1309   1.475   .     S
C1307  O1331   1.315   .     A
C1308  O1332   1.316   .     A
C1308  O1334   1.305   .     A
C1308  C1310   1.484   .     S
C1309  C1313   1.399   .     A
C1309  C1315   1.420   .     A
C1310  C1314   1.402   .     A
C1310  C1316   1.417   .     A
C1311  C1313   1.402   .     A
C1311  C1319   1.404   .     A
C1311  F593    1.356   1_556 S
C1312  F1368   1.333   .     S
C1312  C1314   1.405   .     A
C1312  C1320   1.394   .     A
C1313  O1362   1.388   .     S
C1314  O1357   1.386   .     S
C1315  C1317   1.418   .     A
C1315  O1352   1.382   .     S
C1316  C1318   1.419   .     A
C1316  O1347   1.385   .     S
C1317  C1319   1.416   .     A
C1317  C1321   1.423   .     A
C1318  C1322   1.410   .     A
C1318  C1320   1.410   .     A
C1319  C521    1.412   1_556 S
C1321  C548    1.406   1_556 S
N1325  Zn1335  2.040   .     S
N1326  Zn1336  2.040   .     S
O1327  Zn1335  1.991   .     S
O1328  Zn1336  1.991   .     S
O1329  Zn1336  1.992   .     S
O1330  Zn1335  1.992   .     S
O1331  Zn1335  1.893   .     S
O1332  Zn1336  1.893   .     S
O1333  Zn1336  1.917   .     S
O1334  Zn1335  1.917   .     S
O1337  C1338   1.412   .     S
C1338  H1340   1.114   .     S
C1338  H1339   1.110   .     S
C1338  H1513   1.109   1_455 S
H1341  C1424   1.109   .     S
O1342  C1343   1.410   .     S
C1343  H1344   1.111   .     S
C1343  H1345   1.114   .     S
C1343  H1432   1.109   .     S
H1346  C1515   1.109   1_455 S
O1347  C1348   1.413   .     S
C1348  H1350   1.113   .     S
C1348  H1351   1.108   .     S
C1348  H1349   1.113   .     S
O1352  C1353   1.413   .     S
C1353  H1355   1.113   .     S
C1353  H1356   1.108   .     S
C1353  H1354   1.112   .     S
O1357  C1358   1.411   .     S
C1358  H1359   1.115   .     S
C1358  H1360   1.109   .     S
C1358  H1447   1.106   .     S
H1361  C1530   1.106   1_455 S
O1362  C1363   1.411   .     S
C1363  H1364   1.115   .     S
C1363  H1537   1.108   1_455 S
C1363  H1538   1.109   1_455 S
H1365  C1449   1.108   .     S
H1366  C1449   1.109   .     S
C1377  O1413   1.294   .     A
C1377  C1388   1.414   .     S
C1377  O1415   1.293   .     A
C1378  C1387   1.414   .     S
C1378  O1414   1.294   .     A
C1378  O1416   1.293   .     A
C1379  F1455   1.359   .     S
C1379  C1381   1.393   .     A
C1379  C1408   1.395   .     A
C1380  F1456   1.358   .     S
C1380  C1382   1.401   .     A
C1380  C1407   1.403   .     A
C1381  O1423   1.376   .     S
C1382  O1428   1.384   .     S
C1382  C632    1.419   1_556 S
C1383  C1388   1.399   .     A
C1383  F1457   1.359   .     S
C1383  C869    1.372   1_565 S
C1384  F1458   1.359   .     S
C1384  C1387   1.399   .     A
C1385  H1409   1.084   .     S
C1385  C1387   1.395   .     A
C1386  H1410   1.084   .     S
C1386  C1388   1.395   .     A
C1386  C868    1.372   1_565 S
C1389  N1412   1.371   .     A
C1389  F1459   1.354   .     S
C1389  C1477   1.427   .     S
C1390  F1460   1.355   .     S
C1390  N1411   1.371   .     A
C1391  F1461   1.355   .     S
C1391  N1411   1.370   .     A
C1392  F1462   1.355   .     S
C1392  N1412   1.371   .     A
C1392  C1476   1.427   .     S
C1393  O1419   1.300   .     A
C1393  C1395   1.475   .     S
C1393  O1417   1.315   .     A
C1394  O1418   1.316   .     A
C1394  O1420   1.305   .     A
C1394  C1396   1.484   .     S
C1395  C1399   1.399   .     A
C1395  C1401   1.420   .     A
C1396  C1400   1.402   .     A
C1396  C1402   1.417   .     A
C1397  C1399   1.402   .     A
C1397  C1405   1.404   .     A
C1397  F679    1.356   1_556 S
C1398  F1454   1.333   .     S
C1398  C1400   1.405   .     A
C1398  C1406   1.394   .     A
C1399  O1448   1.388   .     S
C1400  O1443   1.386   .     S
C1401  C1403   1.418   .     A
C1401  O1438   1.382   .     S
C1402  C1404   1.419   .     A
C1402  O1433   1.385   .     S
C1403  C1405   1.416   .     A
C1403  C1407   1.423   .     A
C1404  C1408   1.410   .     A
C1404  C1406   1.410   .     A
C1405  C607    1.412   1_556 S
C1407  C634    1.406   1_556 S
N1411  Zn1421  2.040   .     S
N1412  Zn1422  2.040   .     S
O1413  Zn1421  1.991   .     S
O1414  Zn1422  1.991   .     S
O1415  Zn1422  1.992   .     S
O1416  Zn1421  1.992   .     S
O1417  Zn1421  1.893   .     S
O1418  Zn1422  1.893   .     S
O1419  Zn1422  1.917   .     S
O1420  Zn1421  1.917   .     S
O1423  C1424   1.412   .     S
C1424  H1426   1.114   .     S
C1424  H1425   1.110   .     S
H1427  C1510   1.109   .     S
O1428  C1429   1.410   .     S
C1429  H1430   1.111   .     S
C1429  H1431   1.114   .     S
C1429  H1518   1.109   .     S
O1433  C1434   1.413   .     S
C1434  H1436   1.113   .     S
C1434  H1437   1.108   .     S
C1434  H1435   1.113   .     S
O1438  C1439   1.413   .     S
C1439  H1441   1.113   .     S
C1439  H1442   1.108   .     S
C1439  H1440   1.112   .     S
O1443  C1444   1.411   .     S
C1444  H1445   1.115   .     S
C1444  H1446   1.109   .     S
C1444  H1533   1.106   .     S
O1448  C1449   1.411   .     S
C1449  H1450   1.115   .     S
H1451  C1535   1.108   .     S
H1452  C1535   1.109   .     S
C1463  O1499   1.294   .     A
C1463  C1474   1.414   .     S
C1463  O1501   1.293   .     A
C1464  C1473   1.414   .     S
C1464  O1500   1.294   .     A
C1464  O1502   1.293   .     A
C1465  F1541   1.359   .     S
C1465  C1467   1.393   .     A
C1465  C1494   1.395   .     A
C1466  F1542   1.358   .     S
C1466  C1468   1.401   .     A
C1466  C1493   1.403   .     A
C1467  O1509   1.376   .     S
C1468  O1514   1.384   .     S
C1468  C718    1.419   1_556 S
C1469  C1474   1.399   .     A
C1469  F1543   1.359   .     S
C1469  C955    1.372   1_565 S
C1470  F1544   1.359   .     S
C1470  C1473   1.399   .     A
C1471  H1495   1.084   .     S
C1471  C1473   1.395   .     A
C1472  H1496   1.084   .     S
C1472  C1474   1.395   .     A
C1472  C954    1.372   1_565 S
C1475  N1498   1.371   .     A
C1475  F1545   1.354   .     S
C1475  C1305   1.427   1_655 S
C1476  F1546   1.355   .     S
C1476  N1497   1.371   .     A
C1477  F1547   1.355   .     S
C1477  N1497   1.370   .     A
C1478  F1548   1.355   .     S
C1478  N1498   1.371   .     A
C1478  C1304   1.427   1_655 S
C1479  O1505   1.300   .     A
C1479  C1481   1.475   .     S
C1479  O1503   1.315   .     A
C1480  O1504   1.316   .     A
C1480  O1506   1.305   .     A
C1480  C1482   1.484   .     S
C1481  C1485   1.399   .     A
C1481  C1487   1.420   .     A
C1482  C1486   1.402   .     A
C1482  C1488   1.417   .     A
C1483  C1485   1.402   .     A
C1483  C1491   1.404   .     A
C1483  F765    1.356   1_556 S
C1484  F1540   1.333   .     S
C1484  C1486   1.405   .     A
C1484  C1492   1.394   .     A
C1485  O1534   1.388   .     S
C1486  O1529   1.386   .     S
C1487  C1489   1.418   .     A
C1487  O1524   1.382   .     S
C1488  C1490   1.419   .     A
C1488  O1519   1.385   .     S
C1489  C1491   1.416   .     A
C1489  C1493   1.423   .     A
C1490  C1494   1.410   .     A
C1490  C1492   1.410   .     A
C1491  C693    1.412   1_556 S
C1493  C720    1.406   1_556 S
N1497  Zn1507  2.040   .     S
N1498  Zn1508  2.040   .     S
O1499  Zn1507  1.991   .     S
O1500  Zn1508  1.991   .     S
O1501  Zn1508  1.992   .     S
O1502  Zn1507  1.992   .     S
O1503  Zn1507  1.893   .     S
O1504  Zn1508  1.893   .     S
O1505  Zn1508  1.917   .     S
O1506  Zn1507  1.917   .     S
O1509  C1510   1.412   .     S
C1510  H1512   1.114   .     S
C1510  H1511   1.110   .     S
H1513  C1338   1.109   1_655 S
O1514  C1515   1.410   .     S
C1515  H1516   1.111   .     S
C1515  H1517   1.114   .     S
C1515  H1346   1.109   1_655 S
O1519  C1520   1.413   .     S
C1520  H1522   1.113   .     S
C1520  H1523   1.108   .     S
C1520  H1521   1.113   .     S
O1524  C1525   1.413   .     S
C1525  H1527   1.113   .     S
C1525  H1528   1.108   .     S
C1525  H1526   1.112   .     S
O1529  C1530   1.411   .     S
C1530  H1531   1.115   .     S
C1530  H1532   1.109   .     S
C1530  H1361   1.106   1_655 S
O1534  C1535   1.411   .     S
C1535  H1536   1.115   .     S
H1537  C1363   1.108   1_655 S
H1538  C1363   1.109   1_655 S
