data_str_m3_o1_o10_pcu_sym.65
_audit_creation_date              2020-01-03
_audit_creation_method            'Materials Studio'
_symmetry_space_group_name_H-M    'P1'
_symmetry_Int_Tables_number       1
_symmetry_cell_setting            triclinic
loop_
_symmetry_equiv_pos_as_xyz
  x,y,z
_cell_length_a                    25.9671
_cell_length_b                    32.0424
_cell_length_c                    29.6750
_cell_angle_alpha                 90.6368
_cell_angle_beta                  98.9442
_cell_angle_gamma                 90.7404
loop_
_atom_site_label
_atom_site_type_symbol
_atom_site_fract_x
_atom_site_fract_y
_atom_site_fract_z
_atom_site_U_iso_or_equiv
_atom_site_adp_type
_atom_site_occupancy
O1     O     0.16666   0.10558   0.20487   0.00000  Uiso   1.00
O2     O     0.16667   0.22775   0.12846   0.00000  Uiso   1.00
O3     O     0.16666   0.10559   0.12843   0.00000  Uiso   1.00
O4     O     0.16667   0.22774   0.20490   0.00000  Uiso   1.00
C5     C     0.16643   0.08670   0.16645   0.00000  Uiso   1.00
C6     C     0.16690   0.24663   0.16688   0.00000  Uiso   1.00
O7     O     0.09058   0.16666   0.19595   0.00000  Uiso   1.00
O8     O     0.24275   0.16667   0.13739   0.00000  Uiso   1.00
O9     O     0.09058   0.16667   0.11950   0.00000  Uiso   1.00
O10    O     0.24275   0.16666   0.21383   0.00000  Uiso   1.00
C11    C     0.06720   0.16699   0.15477   0.00000  Uiso   1.00
C12    C     0.26613   0.16634   0.17856   0.00000  Uiso   1.00
Zn13   Zn    0.16667   0.16666   0.21771   0.00000  Uiso   1.00
Zn14   Zn    0.16667   0.16667   0.11563   0.00000  Uiso   1.00
N15    N     0.16665   0.16666   0.28573   0.00000  Uiso   1.00
N16    N     0.16668   0.16668   0.04760   0.00000  Uiso   1.00
C17    C     0.01261   0.16157   0.14903   0.00000  Uiso   1.00
C18    C     0.32072   0.17176   0.18430   0.00000  Uiso   1.00
C19    C     0.18643   0.02123   0.13188   0.00000  Uiso   1.00
C20    C     0.14690   0.31211   0.20145   0.00000  Uiso   1.00
H21    H     0.20248   0.03756   0.10532   0.00000  Uiso   1.00
H22    H     0.13086   0.29577   0.22801   0.00000  Uiso   1.00
C23    C     0.18686   0.31179   0.13223   0.00000  Uiso   1.00
C24    C     0.14647   0.02154   0.20110   0.00000  Uiso   1.00
H25    H     0.20298   0.29522   0.10572   0.00000  Uiso   1.00
H26    H     0.13035   0.03811   0.22761   0.00000  Uiso   1.00
C27    C     0.16710   0.29080   0.16703   0.00000  Uiso   1.00
C28    C     0.16623   0.04253   0.16630   0.00000  Uiso   1.00
C29    C     0.18714   0.19953   0.02751   0.00000  Uiso   1.00
C30    C     0.14619   0.13380   0.30583   0.00000  Uiso   1.00
H31    H     0.20402   0.22556   0.04853   0.00000  Uiso   1.00
H32    H     0.12931   0.10778   0.28480   0.00000  Uiso   1.00
C33    C     0.18751   0.19974   0.31313   0.00000  Uiso   1.00
C34    C     0.14582   0.13359   0.02020   0.00000  Uiso   1.00
N35    N     0.32182   0.13838   0.10921   0.00000  Uiso   1.00
O36    O     0.32245   0.15330   0.06870   0.00000  Uiso   1.00
O37    O     0.30295   0.10104   0.11339   0.00000  Uiso   1.00
N38    N     0.01151   0.19495   0.22413   0.00000  Uiso   1.00
O39    O     0.01089   0.18002   0.26464   0.00000  Uiso   1.00
O40    O     0.03038   0.23229   0.21995   0.00000  Uiso   1.00
N41    N     0.21056   0.23496   0.29434   0.00000  Uiso   1.00
O42    O     0.25127   0.22990   0.27450   0.00000  Uiso   1.00
O43    O     0.19934   0.27243   0.30667   0.00000  Uiso   1.00
N44    N     0.12278   0.09838   0.03899   0.00000  Uiso   1.00
O45    O     0.08206   0.10343   0.05883   0.00000  Uiso   1.00
O46    O     0.13400   0.06090   0.02666   0.00000  Uiso   1.00
O47    O     0.50000   0.10558   0.20487   0.00000  Uiso   1.00
O48    O     0.50000   0.22775   0.12846   0.00000  Uiso   1.00
O49    O     0.50000   0.10559   0.12843   0.00000  Uiso   1.00
O50    O     0.50000   0.22774   0.20490   0.00000  Uiso   1.00
C51    C     0.49976   0.08670   0.16645   0.00000  Uiso   1.00
C52    C     0.50023   0.24663   0.16688   0.00000  Uiso   1.00
O53    O     0.42392   0.16666   0.19595   0.00000  Uiso   1.00
O54    O     0.57608   0.16667   0.13739   0.00000  Uiso   1.00
O55    O     0.42392   0.16667   0.11950   0.00000  Uiso   1.00
O56    O     0.57608   0.16666   0.21383   0.00000  Uiso   1.00
C57    C     0.40053   0.16699   0.15477   0.00000  Uiso   1.00
C58    C     0.59946   0.16634   0.17856   0.00000  Uiso   1.00
Zn59   Zn    0.50000   0.16666   0.21771   0.00000  Uiso   1.00
Zn60   Zn    0.50000   0.16667   0.11563   0.00000  Uiso   1.00
N61    N     0.49999   0.16666   0.28573   0.00000  Uiso   1.00
N62    N     0.50001   0.16668   0.04760   0.00000  Uiso   1.00
C63    C     0.34594   0.16157   0.14903   0.00000  Uiso   1.00
C64    C     0.65405   0.17176   0.18430   0.00000  Uiso   1.00
C65    C     0.51976   0.02123   0.13188   0.00000  Uiso   1.00
C66    C     0.48023   0.31211   0.20145   0.00000  Uiso   1.00
H67    H     0.53581   0.03756   0.10532   0.00000  Uiso   1.00
H68    H     0.46419   0.29577   0.22801   0.00000  Uiso   1.00
C69    C     0.52019   0.31179   0.13223   0.00000  Uiso   1.00
C70    C     0.47981   0.02154   0.20110   0.00000  Uiso   1.00
H71    H     0.53631   0.29522   0.10572   0.00000  Uiso   1.00
H72    H     0.46369   0.03811   0.22761   0.00000  Uiso   1.00
C73    C     0.50044   0.29080   0.16703   0.00000  Uiso   1.00
C74    C     0.49956   0.04253   0.16630   0.00000  Uiso   1.00
C75    C     0.52048   0.19953   0.02751   0.00000  Uiso   1.00
C76    C     0.47952   0.13380   0.30583   0.00000  Uiso   1.00
H77    H     0.53736   0.22556   0.04853   0.00000  Uiso   1.00
H78    H     0.46264   0.10778   0.28480   0.00000  Uiso   1.00
C79    C     0.52085   0.19974   0.31313   0.00000  Uiso   1.00
C80    C     0.47915   0.13359   0.02020   0.00000  Uiso   1.00
N81    N     0.65515   0.13838   0.10921   0.00000  Uiso   1.00
O82    O     0.65579   0.15330   0.06870   0.00000  Uiso   1.00
O83    O     0.63628   0.10104   0.11339   0.00000  Uiso   1.00
N84    N     0.34484   0.19495   0.22413   0.00000  Uiso   1.00
O85    O     0.34422   0.18002   0.26464   0.00000  Uiso   1.00
O86    O     0.36371   0.23229   0.21995   0.00000  Uiso   1.00
N87    N     0.54389   0.23496   0.29434   0.00000  Uiso   1.00
O88    O     0.58461   0.22990   0.27450   0.00000  Uiso   1.00
O89    O     0.53267   0.27243   0.30667   0.00000  Uiso   1.00
N90    N     0.45611   0.09838   0.03899   0.00000  Uiso   1.00
O91    O     0.41540   0.10343   0.05883   0.00000  Uiso   1.00
O92    O     0.46733   0.06090   0.02666   0.00000  Uiso   1.00
O93    O     0.83333   0.10558   0.20487   0.00000  Uiso   1.00
O94    O     0.83334   0.22775   0.12846   0.00000  Uiso   1.00
O95    O     0.83333   0.10559   0.12843   0.00000  Uiso   1.00
O96    O     0.83334   0.22774   0.20490   0.00000  Uiso   1.00
C97    C     0.83310   0.08670   0.16645   0.00000  Uiso   1.00
C98    C     0.83357   0.24663   0.16688   0.00000  Uiso   1.00
O99    O     0.75725   0.16666   0.19595   0.00000  Uiso   1.00
O100   O     0.90942   0.16667   0.13739   0.00000  Uiso   1.00
O101   O     0.75725   0.16667   0.11950   0.00000  Uiso   1.00
O102   O     0.90942   0.16666   0.21383   0.00000  Uiso   1.00
C103   C     0.73387   0.16699   0.15477   0.00000  Uiso   1.00
C104   C     0.93280   0.16634   0.17856   0.00000  Uiso   1.00
Zn105  Zn    0.83333   0.16666   0.21771   0.00000  Uiso   1.00
Zn106  Zn    0.83333   0.16667   0.11563   0.00000  Uiso   1.00
N107   N     0.83332   0.16666   0.28573   0.00000  Uiso   1.00
N108   N     0.83335   0.16668   0.04760   0.00000  Uiso   1.00
C109   C     0.67928   0.16157   0.14903   0.00000  Uiso   1.00
C110   C     0.98739   0.17176   0.18430   0.00000  Uiso   1.00
C111   C     0.85310   0.02123   0.13188   0.00000  Uiso   1.00
C112   C     0.81357   0.31211   0.20145   0.00000  Uiso   1.00
H113   H     0.86914   0.03756   0.10532   0.00000  Uiso   1.00
H114   H     0.79752   0.29577   0.22801   0.00000  Uiso   1.00
C115   C     0.85353   0.31179   0.13223   0.00000  Uiso   1.00
C116   C     0.81314   0.02154   0.20110   0.00000  Uiso   1.00
H117   H     0.86964   0.29522   0.10572   0.00000  Uiso   1.00
H118   H     0.79702   0.03811   0.22761   0.00000  Uiso   1.00
C119   C     0.83377   0.29080   0.16703   0.00000  Uiso   1.00
C120   C     0.83290   0.04253   0.16630   0.00000  Uiso   1.00
C121   C     0.85381   0.19953   0.02751   0.00000  Uiso   1.00
C122   C     0.81285   0.13380   0.30583   0.00000  Uiso   1.00
H123   H     0.87069   0.22556   0.04853   0.00000  Uiso   1.00
H124   H     0.79598   0.10778   0.28480   0.00000  Uiso   1.00
C125   C     0.85418   0.19974   0.31313   0.00000  Uiso   1.00
C126   C     0.81249   0.13359   0.02020   0.00000  Uiso   1.00
N127   N     0.98849   0.13838   0.10921   0.00000  Uiso   1.00
O128   O     0.98912   0.15330   0.06870   0.00000  Uiso   1.00
O129   O     0.96961   0.10104   0.11339   0.00000  Uiso   1.00
N130   N     0.67818   0.19495   0.22413   0.00000  Uiso   1.00
O131   O     0.67756   0.18002   0.26464   0.00000  Uiso   1.00
O132   O     0.69704   0.23229   0.21995   0.00000  Uiso   1.00
N133   N     0.87722   0.23496   0.29434   0.00000  Uiso   1.00
O134   O     0.91794   0.22990   0.27450   0.00000  Uiso   1.00
O135   O     0.86600   0.27243   0.30667   0.00000  Uiso   1.00
N136   N     0.78944   0.09838   0.03899   0.00000  Uiso   1.00
O137   O     0.74873   0.10343   0.05883   0.00000  Uiso   1.00
O138   O     0.80067   0.06090   0.02666   0.00000  Uiso   1.00
O139   O     0.16666   0.43892   0.20487   0.00000  Uiso   1.00
O140   O     0.16667   0.56108   0.12846   0.00000  Uiso   1.00
O141   O     0.16666   0.43893   0.12843   0.00000  Uiso   1.00
O142   O     0.16667   0.56107   0.20490   0.00000  Uiso   1.00
C143   C     0.16643   0.42003   0.16645   0.00000  Uiso   1.00
C144   C     0.16690   0.57997   0.16688   0.00000  Uiso   1.00
O145   O     0.09058   0.50000   0.19595   0.00000  Uiso   1.00
O146   O     0.24275   0.50000   0.13739   0.00000  Uiso   1.00
O147   O     0.09058   0.50000   0.11950   0.00000  Uiso   1.00
O148   O     0.24275   0.50000   0.21383   0.00000  Uiso   1.00
C149   C     0.06720   0.50032   0.15477   0.00000  Uiso   1.00
C150   C     0.26613   0.49968   0.17856   0.00000  Uiso   1.00
Zn151  Zn    0.16667   0.49999   0.21771   0.00000  Uiso   1.00
Zn152  Zn    0.16667   0.50001   0.11563   0.00000  Uiso   1.00
N153   N     0.16665   0.49999   0.28573   0.00000  Uiso   1.00
N154   N     0.16668   0.50001   0.04760   0.00000  Uiso   1.00
C155   C     0.01261   0.49490   0.14903   0.00000  Uiso   1.00
C156   C     0.32072   0.50509   0.18430   0.00000  Uiso   1.00
C157   C     0.18643   0.35456   0.13188   0.00000  Uiso   1.00
C158   C     0.14690   0.64544   0.20145   0.00000  Uiso   1.00
H159   H     0.20248   0.37089   0.10532   0.00000  Uiso   1.00
H160   H     0.13086   0.62911   0.22801   0.00000  Uiso   1.00
C161   C     0.18686   0.64512   0.13223   0.00000  Uiso   1.00
C162   C     0.14647   0.35488   0.20110   0.00000  Uiso   1.00
H163   H     0.20298   0.62855   0.10572   0.00000  Uiso   1.00
H164   H     0.13035   0.37145   0.22761   0.00000  Uiso   1.00
C165   C     0.16710   0.62413   0.16703   0.00000  Uiso   1.00
C166   C     0.16623   0.37587   0.16630   0.00000  Uiso   1.00
C167   C     0.18714   0.53287   0.02751   0.00000  Uiso   1.00
C168   C     0.14619   0.46713   0.30583   0.00000  Uiso   1.00
H169   H     0.20402   0.55889   0.04853   0.00000  Uiso   1.00
H170   H     0.12931   0.44111   0.28480   0.00000  Uiso   1.00
C171   C     0.18751   0.53307   0.31313   0.00000  Uiso   1.00
C172   C     0.14582   0.46693   0.02020   0.00000  Uiso   1.00
N173   N     0.32182   0.47171   0.10921   0.00000  Uiso   1.00
O174   O     0.32245   0.48663   0.06870   0.00000  Uiso   1.00
O175   O     0.30295   0.43437   0.11339   0.00000  Uiso   1.00
N176   N     0.01151   0.52828   0.22413   0.00000  Uiso   1.00
O177   O     0.01089   0.51336   0.26464   0.00000  Uiso   1.00
O178   O     0.03038   0.56563   0.21995   0.00000  Uiso   1.00
N179   N     0.21056   0.56829   0.29434   0.00000  Uiso   1.00
O180   O     0.25127   0.56323   0.27450   0.00000  Uiso   1.00
O181   O     0.19934   0.60577   0.30667   0.00000  Uiso   1.00
N182   N     0.12278   0.43171   0.03899   0.00000  Uiso   1.00
O183   O     0.08206   0.43677   0.05883   0.00000  Uiso   1.00
O184   O     0.13400   0.39423   0.02666   0.00000  Uiso   1.00
O185   O     0.50000   0.43892   0.20487   0.00000  Uiso   1.00
O186   O     0.50000   0.56108   0.12846   0.00000  Uiso   1.00
O187   O     0.50000   0.43893   0.12843   0.00000  Uiso   1.00
O188   O     0.50000   0.56107   0.20490   0.00000  Uiso   1.00
C189   C     0.49976   0.42003   0.16645   0.00000  Uiso   1.00
C190   C     0.50023   0.57997   0.16688   0.00000  Uiso   1.00
O191   O     0.42392   0.50000   0.19595   0.00000  Uiso   1.00
O192   O     0.57608   0.50000   0.13739   0.00000  Uiso   1.00
O193   O     0.42392   0.50000   0.11950   0.00000  Uiso   1.00
O194   O     0.57608   0.50000   0.21383   0.00000  Uiso   1.00
C195   C     0.40053   0.50032   0.15477   0.00000  Uiso   1.00
C196   C     0.59946   0.49968   0.17856   0.00000  Uiso   1.00
Zn197  Zn    0.50000   0.49999   0.21771   0.00000  Uiso   1.00
Zn198  Zn    0.50000   0.50001   0.11563   0.00000  Uiso   1.00
N199   N     0.49999   0.49999   0.28573   0.00000  Uiso   1.00
N200   N     0.50001   0.50001   0.04760   0.00000  Uiso   1.00
C201   C     0.34594   0.49490   0.14903   0.00000  Uiso   1.00
C202   C     0.65405   0.50509   0.18430   0.00000  Uiso   1.00
C203   C     0.51976   0.35456   0.13188   0.00000  Uiso   1.00
C204   C     0.48023   0.64544   0.20145   0.00000  Uiso   1.00
H205   H     0.53581   0.37089   0.10532   0.00000  Uiso   1.00
H206   H     0.46419   0.62911   0.22801   0.00000  Uiso   1.00
C207   C     0.52019   0.64512   0.13223   0.00000  Uiso   1.00
C208   C     0.47981   0.35488   0.20110   0.00000  Uiso   1.00
H209   H     0.53631   0.62855   0.10572   0.00000  Uiso   1.00
H210   H     0.46369   0.37145   0.22761   0.00000  Uiso   1.00
C211   C     0.50044   0.62413   0.16703   0.00000  Uiso   1.00
C212   C     0.49956   0.37587   0.16630   0.00000  Uiso   1.00
C213   C     0.52048   0.53287   0.02751   0.00000  Uiso   1.00
C214   C     0.47952   0.46713   0.30583   0.00000  Uiso   1.00
H215   H     0.53736   0.55889   0.04853   0.00000  Uiso   1.00
H216   H     0.46264   0.44111   0.28480   0.00000  Uiso   1.00
C217   C     0.52085   0.53307   0.31313   0.00000  Uiso   1.00
C218   C     0.47915   0.46693   0.02020   0.00000  Uiso   1.00
N219   N     0.65515   0.47171   0.10921   0.00000  Uiso   1.00
O220   O     0.65579   0.48663   0.06870   0.00000  Uiso   1.00
O221   O     0.63628   0.43437   0.11339   0.00000  Uiso   1.00
N222   N     0.34484   0.52828   0.22413   0.00000  Uiso   1.00
O223   O     0.34422   0.51336   0.26464   0.00000  Uiso   1.00
O224   O     0.36371   0.56563   0.21995   0.00000  Uiso   1.00
N225   N     0.54389   0.56829   0.29434   0.00000  Uiso   1.00
O226   O     0.58461   0.56323   0.27450   0.00000  Uiso   1.00
O227   O     0.53267   0.60577   0.30667   0.00000  Uiso   1.00
N228   N     0.45611   0.43171   0.03899   0.00000  Uiso   1.00
O229   O     0.41540   0.43677   0.05883   0.00000  Uiso   1.00
O230   O     0.46733   0.39423   0.02666   0.00000  Uiso   1.00
O231   O     0.83333   0.43892   0.20487   0.00000  Uiso   1.00
O232   O     0.83334   0.56108   0.12846   0.00000  Uiso   1.00
O233   O     0.83333   0.43893   0.12843   0.00000  Uiso   1.00
O234   O     0.83334   0.56107   0.20490   0.00000  Uiso   1.00
C235   C     0.83310   0.42003   0.16645   0.00000  Uiso   1.00
C236   C     0.83357   0.57997   0.16688   0.00000  Uiso   1.00
O237   O     0.75725   0.50000   0.19595   0.00000  Uiso   1.00
O238   O     0.90942   0.50000   0.13739   0.00000  Uiso   1.00
O239   O     0.75725   0.50000   0.11950   0.00000  Uiso   1.00
O240   O     0.90942   0.50000   0.21383   0.00000  Uiso   1.00
C241   C     0.73387   0.50032   0.15477   0.00000  Uiso   1.00
C242   C     0.93280   0.49968   0.17856   0.00000  Uiso   1.00
Zn243  Zn    0.83333   0.49999   0.21771   0.00000  Uiso   1.00
Zn244  Zn    0.83333   0.50001   0.11563   0.00000  Uiso   1.00
N245   N     0.83332   0.49999   0.28573   0.00000  Uiso   1.00
N246   N     0.83335   0.50001   0.04760   0.00000  Uiso   1.00
C247   C     0.67928   0.49490   0.14903   0.00000  Uiso   1.00
C248   C     0.98739   0.50509   0.18430   0.00000  Uiso   1.00
C249   C     0.85310   0.35456   0.13188   0.00000  Uiso   1.00
C250   C     0.81357   0.64544   0.20145   0.00000  Uiso   1.00
H251   H     0.86914   0.37089   0.10532   0.00000  Uiso   1.00
H252   H     0.79752   0.62911   0.22801   0.00000  Uiso   1.00
C253   C     0.85353   0.64512   0.13223   0.00000  Uiso   1.00
C254   C     0.81314   0.35488   0.20110   0.00000  Uiso   1.00
H255   H     0.86964   0.62855   0.10572   0.00000  Uiso   1.00
H256   H     0.79702   0.37145   0.22761   0.00000  Uiso   1.00
C257   C     0.83377   0.62413   0.16703   0.00000  Uiso   1.00
C258   C     0.83290   0.37587   0.16630   0.00000  Uiso   1.00
C259   C     0.85381   0.53287   0.02751   0.00000  Uiso   1.00
C260   C     0.81285   0.46713   0.30583   0.00000  Uiso   1.00
H261   H     0.87069   0.55889   0.04853   0.00000  Uiso   1.00
H262   H     0.79598   0.44111   0.28480   0.00000  Uiso   1.00
C263   C     0.85418   0.53307   0.31313   0.00000  Uiso   1.00
C264   C     0.81249   0.46693   0.02020   0.00000  Uiso   1.00
N265   N     0.98849   0.47171   0.10921   0.00000  Uiso   1.00
O266   O     0.98912   0.48663   0.06870   0.00000  Uiso   1.00
O267   O     0.96961   0.43437   0.11339   0.00000  Uiso   1.00
N268   N     0.67818   0.52828   0.22413   0.00000  Uiso   1.00
O269   O     0.67756   0.51336   0.26464   0.00000  Uiso   1.00
O270   O     0.69704   0.56563   0.21995   0.00000  Uiso   1.00
N271   N     0.87722   0.56829   0.29434   0.00000  Uiso   1.00
O272   O     0.91794   0.56323   0.27450   0.00000  Uiso   1.00
O273   O     0.86600   0.60577   0.30667   0.00000  Uiso   1.00
N274   N     0.78944   0.43171   0.03899   0.00000  Uiso   1.00
O275   O     0.74873   0.43677   0.05883   0.00000  Uiso   1.00
O276   O     0.80067   0.39423   0.02666   0.00000  Uiso   1.00
O277   O     0.16666   0.77225   0.20487   0.00000  Uiso   1.00
O278   O     0.16667   0.89442   0.12846   0.00000  Uiso   1.00
O279   O     0.16666   0.77226   0.12843   0.00000  Uiso   1.00
O280   O     0.16667   0.89441   0.20490   0.00000  Uiso   1.00
C281   C     0.16643   0.75337   0.16645   0.00000  Uiso   1.00
C282   C     0.16690   0.91330   0.16688   0.00000  Uiso   1.00
O283   O     0.09058   0.83333   0.19595   0.00000  Uiso   1.00
O284   O     0.24275   0.83334   0.13739   0.00000  Uiso   1.00
O285   O     0.09058   0.83334   0.11950   0.00000  Uiso   1.00
O286   O     0.24275   0.83333   0.21383   0.00000  Uiso   1.00
C287   C     0.06720   0.83366   0.15477   0.00000  Uiso   1.00
C288   C     0.26613   0.83301   0.17856   0.00000  Uiso   1.00
Zn289  Zn    0.16667   0.83333   0.21771   0.00000  Uiso   1.00
Zn290  Zn    0.16667   0.83334   0.11563   0.00000  Uiso   1.00
N291   N     0.16665   0.83332   0.28573   0.00000  Uiso   1.00
N292   N     0.16668   0.83334   0.04760   0.00000  Uiso   1.00
C293   C     0.01261   0.82824   0.14903   0.00000  Uiso   1.00
C294   C     0.32072   0.83843   0.18430   0.00000  Uiso   1.00
C295   C     0.18643   0.68789   0.13188   0.00000  Uiso   1.00
C296   C     0.14690   0.97877   0.20145   0.00000  Uiso   1.00
H297   H     0.20248   0.70423   0.10532   0.00000  Uiso   1.00
H298   H     0.13086   0.96244   0.22801   0.00000  Uiso   1.00
C299   C     0.18686   0.97846   0.13223   0.00000  Uiso   1.00
C300   C     0.14647   0.68821   0.20110   0.00000  Uiso   1.00
H301   H     0.20298   0.96189   0.10572   0.00000  Uiso   1.00
H302   H     0.13035   0.70478   0.22761   0.00000  Uiso   1.00
C303   C     0.16710   0.95747   0.16703   0.00000  Uiso   1.00
C304   C     0.16623   0.70920   0.16630   0.00000  Uiso   1.00
C305   C     0.18714   0.86620   0.02751   0.00000  Uiso   1.00
C306   C     0.14619   0.80047   0.30583   0.00000  Uiso   1.00
H307   H     0.20402   0.89222   0.04853   0.00000  Uiso   1.00
H308   H     0.12931   0.77444   0.28480   0.00000  Uiso   1.00
C309   C     0.18751   0.86641   0.31313   0.00000  Uiso   1.00
C310   C     0.14582   0.80026   0.02020   0.00000  Uiso   1.00
N311   N     0.32182   0.80505   0.10921   0.00000  Uiso   1.00
O312   O     0.32245   0.81997   0.06870   0.00000  Uiso   1.00
O313   O     0.30295   0.76771   0.11339   0.00000  Uiso   1.00
N314   N     0.01151   0.86162   0.22413   0.00000  Uiso   1.00
O315   O     0.01089   0.84669   0.26464   0.00000  Uiso   1.00
O316   O     0.03038   0.89896   0.21995   0.00000  Uiso   1.00
N317   N     0.21056   0.90162   0.29434   0.00000  Uiso   1.00
O318   O     0.25127   0.89656   0.27450   0.00000  Uiso   1.00
O319   O     0.19934   0.93910   0.30667   0.00000  Uiso   1.00
N320   N     0.12278   0.76504   0.03899   0.00000  Uiso   1.00
O321   O     0.08206   0.77010   0.05883   0.00000  Uiso   1.00
O322   O     0.13400   0.72757   0.02666   0.00000  Uiso   1.00
O323   O     0.50000   0.77225   0.20487   0.00000  Uiso   1.00
O324   O     0.50000   0.89442   0.12846   0.00000  Uiso   1.00
O325   O     0.50000   0.77226   0.12843   0.00000  Uiso   1.00
O326   O     0.50000   0.89441   0.20490   0.00000  Uiso   1.00
C327   C     0.49976   0.75337   0.16645   0.00000  Uiso   1.00
C328   C     0.50023   0.91330   0.16688   0.00000  Uiso   1.00
O329   O     0.42392   0.83333   0.19595   0.00000  Uiso   1.00
O330   O     0.57608   0.83334   0.13739   0.00000  Uiso   1.00
O331   O     0.42392   0.83334   0.11950   0.00000  Uiso   1.00
O332   O     0.57608   0.83333   0.21383   0.00000  Uiso   1.00
C333   C     0.40053   0.83366   0.15477   0.00000  Uiso   1.00
C334   C     0.59946   0.83301   0.17856   0.00000  Uiso   1.00
Zn335  Zn    0.50000   0.83333   0.21771   0.00000  Uiso   1.00
Zn336  Zn    0.50000   0.83334   0.11563   0.00000  Uiso   1.00
N337   N     0.49999   0.83332   0.28573   0.00000  Uiso   1.00
N338   N     0.50001   0.83334   0.04760   0.00000  Uiso   1.00
C339   C     0.34594   0.82824   0.14903   0.00000  Uiso   1.00
C340   C     0.65405   0.83843   0.18430   0.00000  Uiso   1.00
C341   C     0.51976   0.68789   0.13188   0.00000  Uiso   1.00
C342   C     0.48023   0.97877   0.20145   0.00000  Uiso   1.00
H343   H     0.53581   0.70423   0.10532   0.00000  Uiso   1.00
H344   H     0.46419   0.96244   0.22801   0.00000  Uiso   1.00
C345   C     0.52019   0.97846   0.13223   0.00000  Uiso   1.00
C346   C     0.47981   0.68821   0.20110   0.00000  Uiso   1.00
H347   H     0.53631   0.96189   0.10572   0.00000  Uiso   1.00
H348   H     0.46369   0.70478   0.22761   0.00000  Uiso   1.00
C349   C     0.50044   0.95747   0.16703   0.00000  Uiso   1.00
C350   C     0.49956   0.70920   0.16630   0.00000  Uiso   1.00
C351   C     0.52048   0.86620   0.02751   0.00000  Uiso   1.00
C352   C     0.47952   0.80047   0.30583   0.00000  Uiso   1.00
H353   H     0.53736   0.89222   0.04853   0.00000  Uiso   1.00
H354   H     0.46264   0.77444   0.28480   0.00000  Uiso   1.00
C355   C     0.52085   0.86641   0.31313   0.00000  Uiso   1.00
C356   C     0.47915   0.80026   0.02020   0.00000  Uiso   1.00
N357   N     0.65515   0.80505   0.10921   0.00000  Uiso   1.00
O358   O     0.65579   0.81997   0.06870   0.00000  Uiso   1.00
O359   O     0.63628   0.76771   0.11339   0.00000  Uiso   1.00
N360   N     0.34484   0.86162   0.22413   0.00000  Uiso   1.00
O361   O     0.34422   0.84669   0.26464   0.00000  Uiso   1.00
O362   O     0.36371   0.89896   0.21995   0.00000  Uiso   1.00
N363   N     0.54389   0.90162   0.29434   0.00000  Uiso   1.00
O364   O     0.58461   0.89656   0.27450   0.00000  Uiso   1.00
O365   O     0.53267   0.93910   0.30667   0.00000  Uiso   1.00
N366   N     0.45611   0.76504   0.03899   0.00000  Uiso   1.00
O367   O     0.41540   0.77010   0.05883   0.00000  Uiso   1.00
O368   O     0.46733   0.72757   0.02666   0.00000  Uiso   1.00
O369   O     0.83333   0.77225   0.20487   0.00000  Uiso   1.00
O370   O     0.83334   0.89442   0.12846   0.00000  Uiso   1.00
O371   O     0.83333   0.77226   0.12843   0.00000  Uiso   1.00
O372   O     0.83334   0.89441   0.20490   0.00000  Uiso   1.00
C373   C     0.83310   0.75337   0.16645   0.00000  Uiso   1.00
C374   C     0.83357   0.91330   0.16688   0.00000  Uiso   1.00
O375   O     0.75725   0.83333   0.19595   0.00000  Uiso   1.00
O376   O     0.90942   0.83334   0.13739   0.00000  Uiso   1.00
O377   O     0.75725   0.83334   0.11950   0.00000  Uiso   1.00
O378   O     0.90942   0.83333   0.21383   0.00000  Uiso   1.00
C379   C     0.73387   0.83366   0.15477   0.00000  Uiso   1.00
C380   C     0.93280   0.83301   0.17856   0.00000  Uiso   1.00
Zn381  Zn    0.83333   0.83333   0.21771   0.00000  Uiso   1.00
Zn382  Zn    0.83333   0.83334   0.11563   0.00000  Uiso   1.00
N383   N     0.83332   0.83332   0.28573   0.00000  Uiso   1.00
N384   N     0.83335   0.83334   0.04760   0.00000  Uiso   1.00
C385   C     0.67928   0.82824   0.14903   0.00000  Uiso   1.00
C386   C     0.98739   0.83843   0.18430   0.00000  Uiso   1.00
C387   C     0.85310   0.68789   0.13188   0.00000  Uiso   1.00
C388   C     0.81357   0.97877   0.20145   0.00000  Uiso   1.00
H389   H     0.86914   0.70423   0.10532   0.00000  Uiso   1.00
H390   H     0.79752   0.96244   0.22801   0.00000  Uiso   1.00
C391   C     0.85353   0.97846   0.13223   0.00000  Uiso   1.00
C392   C     0.81314   0.68821   0.20110   0.00000  Uiso   1.00
H393   H     0.86964   0.96189   0.10572   0.00000  Uiso   1.00
H394   H     0.79702   0.70478   0.22761   0.00000  Uiso   1.00
C395   C     0.83377   0.95747   0.16703   0.00000  Uiso   1.00
C396   C     0.83290   0.70920   0.16630   0.00000  Uiso   1.00
C397   C     0.85381   0.86620   0.02751   0.00000  Uiso   1.00
C398   C     0.81285   0.80047   0.30583   0.00000  Uiso   1.00
H399   H     0.87069   0.89222   0.04853   0.00000  Uiso   1.00
H400   H     0.79598   0.77444   0.28480   0.00000  Uiso   1.00
C401   C     0.85418   0.86641   0.31313   0.00000  Uiso   1.00
C402   C     0.81249   0.80026   0.02020   0.00000  Uiso   1.00
N403   N     0.98849   0.80505   0.10921   0.00000  Uiso   1.00
O404   O     0.98912   0.81997   0.06870   0.00000  Uiso   1.00
O405   O     0.96961   0.76771   0.11339   0.00000  Uiso   1.00
N406   N     0.67818   0.86162   0.22413   0.00000  Uiso   1.00
O407   O     0.67756   0.84669   0.26464   0.00000  Uiso   1.00
O408   O     0.69704   0.89896   0.21995   0.00000  Uiso   1.00
N409   N     0.87722   0.90162   0.29434   0.00000  Uiso   1.00
O410   O     0.91794   0.89656   0.27450   0.00000  Uiso   1.00
O411   O     0.86600   0.93910   0.30667   0.00000  Uiso   1.00
N412   N     0.78944   0.76504   0.03899   0.00000  Uiso   1.00
O413   O     0.74873   0.77010   0.05883   0.00000  Uiso   1.00
O414   O     0.80067   0.72757   0.02666   0.00000  Uiso   1.00
O415   O     0.16666   0.10558   0.53821   0.00000  Uiso   1.00
O416   O     0.16667   0.22775   0.46179   0.00000  Uiso   1.00
O417   O     0.16666   0.10559   0.46176   0.00000  Uiso   1.00
O418   O     0.16667   0.22774   0.53824   0.00000  Uiso   1.00
C419   C     0.16643   0.08670   0.49979   0.00000  Uiso   1.00
C420   C     0.16690   0.24663   0.50021   0.00000  Uiso   1.00
O421   O     0.09058   0.16666   0.52928   0.00000  Uiso   1.00
O422   O     0.24275   0.16667   0.47072   0.00000  Uiso   1.00
O423   O     0.09058   0.16667   0.45284   0.00000  Uiso   1.00
O424   O     0.24275   0.16666   0.54716   0.00000  Uiso   1.00
C425   C     0.06720   0.16699   0.48810   0.00000  Uiso   1.00
C426   C     0.26613   0.16634   0.51190   0.00000  Uiso   1.00
Zn427  Zn    0.16667   0.16666   0.55104   0.00000  Uiso   1.00
Zn428  Zn    0.16667   0.16667   0.44896   0.00000  Uiso   1.00
N429   N     0.16665   0.16666   0.61907   0.00000  Uiso   1.00
N430   N     0.16668   0.16668   0.38093   0.00000  Uiso   1.00
C431   C     0.01261   0.16157   0.48236   0.00000  Uiso   1.00
C432   C     0.32072   0.17176   0.51764   0.00000  Uiso   1.00
C433   C     0.18643   0.02123   0.46522   0.00000  Uiso   1.00
C434   C     0.14690   0.31211   0.53478   0.00000  Uiso   1.00
H435   H     0.20248   0.03756   0.43866   0.00000  Uiso   1.00
H436   H     0.13086   0.29577   0.56134   0.00000  Uiso   1.00
C437   C     0.18686   0.31179   0.46556   0.00000  Uiso   1.00
C438   C     0.14647   0.02154   0.53444   0.00000  Uiso   1.00
H439   H     0.20298   0.29522   0.43905   0.00000  Uiso   1.00
H440   H     0.13035   0.03811   0.56095   0.00000  Uiso   1.00
C441   C     0.16710   0.29080   0.50036   0.00000  Uiso   1.00
C442   C     0.16623   0.04253   0.49964   0.00000  Uiso   1.00
C443   C     0.18714   0.19953   0.36084   0.00000  Uiso   1.00
C444   C     0.14619   0.13380   0.63916   0.00000  Uiso   1.00
H445   H     0.20402   0.22556   0.38187   0.00000  Uiso   1.00
H446   H     0.12931   0.10778   0.61813   0.00000  Uiso   1.00
C447   C     0.18751   0.19974   0.64646   0.00000  Uiso   1.00
C448   C     0.14582   0.13359   0.35354   0.00000  Uiso   1.00
N449   N     0.32182   0.13838   0.44254   0.00000  Uiso   1.00
O450   O     0.32245   0.15330   0.40203   0.00000  Uiso   1.00
O451   O     0.30295   0.10104   0.44672   0.00000  Uiso   1.00
N452   N     0.01151   0.19495   0.55746   0.00000  Uiso   1.00
O453   O     0.01089   0.18002   0.59797   0.00000  Uiso   1.00
O454   O     0.03038   0.23229   0.55328   0.00000  Uiso   1.00
N455   N     0.21056   0.23496   0.62768   0.00000  Uiso   1.00
O456   O     0.25127   0.22990   0.60784   0.00000  Uiso   1.00
O457   O     0.19934   0.27243   0.64000   0.00000  Uiso   1.00
N458   N     0.12278   0.09838   0.37232   0.00000  Uiso   1.00
O459   O     0.08206   0.10343   0.39217   0.00000  Uiso   1.00
O460   O     0.13400   0.06090   0.36000   0.00000  Uiso   1.00
O461   O     0.50000   0.10558   0.53821   0.00000  Uiso   1.00
O462   O     0.50000   0.22775   0.46179   0.00000  Uiso   1.00
O463   O     0.50000   0.10559   0.46176   0.00000  Uiso   1.00
O464   O     0.50000   0.22774   0.53824   0.00000  Uiso   1.00
C465   C     0.49976   0.08670   0.49979   0.00000  Uiso   1.00
C466   C     0.50023   0.24663   0.50021   0.00000  Uiso   1.00
O467   O     0.42392   0.16666   0.52928   0.00000  Uiso   1.00
O468   O     0.57608   0.16667   0.47072   0.00000  Uiso   1.00
O469   O     0.42392   0.16667   0.45284   0.00000  Uiso   1.00
O470   O     0.57608   0.16666   0.54716   0.00000  Uiso   1.00
C471   C     0.40053   0.16699   0.48810   0.00000  Uiso   1.00
C472   C     0.59946   0.16634   0.51190   0.00000  Uiso   1.00
Zn473  Zn    0.50000   0.16666   0.55104   0.00000  Uiso   1.00
Zn474  Zn    0.50000   0.16667   0.44896   0.00000  Uiso   1.00
N475   N     0.49999   0.16666   0.61907   0.00000  Uiso   1.00
N476   N     0.50001   0.16668   0.38093   0.00000  Uiso   1.00
C477   C     0.34594   0.16157   0.48236   0.00000  Uiso   1.00
C478   C     0.65405   0.17176   0.51764   0.00000  Uiso   1.00
C479   C     0.51976   0.02123   0.46522   0.00000  Uiso   1.00
C480   C     0.48023   0.31211   0.53478   0.00000  Uiso   1.00
H481   H     0.53581   0.03756   0.43866   0.00000  Uiso   1.00
H482   H     0.46419   0.29577   0.56134   0.00000  Uiso   1.00
C483   C     0.52019   0.31179   0.46556   0.00000  Uiso   1.00
C484   C     0.47981   0.02154   0.53444   0.00000  Uiso   1.00
H485   H     0.53631   0.29522   0.43905   0.00000  Uiso   1.00
H486   H     0.46369   0.03811   0.56095   0.00000  Uiso   1.00
C487   C     0.50044   0.29080   0.50036   0.00000  Uiso   1.00
C488   C     0.49956   0.04253   0.49964   0.00000  Uiso   1.00
C489   C     0.52048   0.19953   0.36084   0.00000  Uiso   1.00
C490   C     0.47952   0.13380   0.63916   0.00000  Uiso   1.00
H491   H     0.53736   0.22556   0.38187   0.00000  Uiso   1.00
H492   H     0.46264   0.10778   0.61813   0.00000  Uiso   1.00
C493   C     0.52085   0.19974   0.64646   0.00000  Uiso   1.00
C494   C     0.47915   0.13359   0.35354   0.00000  Uiso   1.00
N495   N     0.65515   0.13838   0.44254   0.00000  Uiso   1.00
O496   O     0.65579   0.15330   0.40203   0.00000  Uiso   1.00
O497   O     0.63628   0.10104   0.44672   0.00000  Uiso   1.00
N498   N     0.34484   0.19495   0.55746   0.00000  Uiso   1.00
O499   O     0.34422   0.18002   0.59797   0.00000  Uiso   1.00
O500   O     0.36371   0.23229   0.55328   0.00000  Uiso   1.00
N501   N     0.54389   0.23496   0.62768   0.00000  Uiso   1.00
O502   O     0.58461   0.22990   0.60784   0.00000  Uiso   1.00
O503   O     0.53267   0.27243   0.64000   0.00000  Uiso   1.00
N504   N     0.45611   0.09838   0.37232   0.00000  Uiso   1.00
O505   O     0.41540   0.10343   0.39217   0.00000  Uiso   1.00
O506   O     0.46733   0.06090   0.36000   0.00000  Uiso   1.00
O507   O     0.83333   0.10558   0.53821   0.00000  Uiso   1.00
O508   O     0.83334   0.22775   0.46179   0.00000  Uiso   1.00
O509   O     0.83333   0.10559   0.46176   0.00000  Uiso   1.00
O510   O     0.83334   0.22774   0.53824   0.00000  Uiso   1.00
C511   C     0.83310   0.08670   0.49979   0.00000  Uiso   1.00
C512   C     0.83357   0.24663   0.50021   0.00000  Uiso   1.00
O513   O     0.75725   0.16666   0.52928   0.00000  Uiso   1.00
O514   O     0.90942   0.16667   0.47072   0.00000  Uiso   1.00
O515   O     0.75725   0.16667   0.45284   0.00000  Uiso   1.00
O516   O     0.90942   0.16666   0.54716   0.00000  Uiso   1.00
C517   C     0.73387   0.16699   0.48810   0.00000  Uiso   1.00
C518   C     0.93280   0.16634   0.51190   0.00000  Uiso   1.00
Zn519  Zn    0.83333   0.16666   0.55104   0.00000  Uiso   1.00
Zn520  Zn    0.83333   0.16667   0.44896   0.00000  Uiso   1.00
N521   N     0.83332   0.16666   0.61907   0.00000  Uiso   1.00
N522   N     0.83335   0.16668   0.38093   0.00000  Uiso   1.00
C523   C     0.67928   0.16157   0.48236   0.00000  Uiso   1.00
C524   C     0.98739   0.17176   0.51764   0.00000  Uiso   1.00
C525   C     0.85310   0.02123   0.46522   0.00000  Uiso   1.00
C526   C     0.81357   0.31211   0.53478   0.00000  Uiso   1.00
H527   H     0.86914   0.03756   0.43866   0.00000  Uiso   1.00
H528   H     0.79752   0.29577   0.56134   0.00000  Uiso   1.00
C529   C     0.85353   0.31179   0.46556   0.00000  Uiso   1.00
C530   C     0.81314   0.02154   0.53444   0.00000  Uiso   1.00
H531   H     0.86964   0.29522   0.43905   0.00000  Uiso   1.00
H532   H     0.79702   0.03811   0.56095   0.00000  Uiso   1.00
C533   C     0.83377   0.29080   0.50036   0.00000  Uiso   1.00
C534   C     0.83290   0.04253   0.49964   0.00000  Uiso   1.00
C535   C     0.85381   0.19953   0.36084   0.00000  Uiso   1.00
C536   C     0.81285   0.13380   0.63916   0.00000  Uiso   1.00
H537   H     0.87069   0.22556   0.38187   0.00000  Uiso   1.00
H538   H     0.79598   0.10778   0.61813   0.00000  Uiso   1.00
C539   C     0.85418   0.19974   0.64646   0.00000  Uiso   1.00
C540   C     0.81249   0.13359   0.35354   0.00000  Uiso   1.00
N541   N     0.98849   0.13838   0.44254   0.00000  Uiso   1.00
O542   O     0.98912   0.15330   0.40203   0.00000  Uiso   1.00
O543   O     0.96961   0.10104   0.44672   0.00000  Uiso   1.00
N544   N     0.67818   0.19495   0.55746   0.00000  Uiso   1.00
O545   O     0.67756   0.18002   0.59797   0.00000  Uiso   1.00
O546   O     0.69704   0.23229   0.55328   0.00000  Uiso   1.00
N547   N     0.87722   0.23496   0.62768   0.00000  Uiso   1.00
O548   O     0.91794   0.22990   0.60784   0.00000  Uiso   1.00
O549   O     0.86600   0.27243   0.64000   0.00000  Uiso   1.00
N550   N     0.78944   0.09838   0.37232   0.00000  Uiso   1.00
O551   O     0.74873   0.10343   0.39217   0.00000  Uiso   1.00
O552   O     0.80067   0.06090   0.36000   0.00000  Uiso   1.00
O553   O     0.16666   0.43892   0.53821   0.00000  Uiso   1.00
O554   O     0.16667   0.56108   0.46179   0.00000  Uiso   1.00
O555   O     0.16666   0.43893   0.46176   0.00000  Uiso   1.00
O556   O     0.16667   0.56107   0.53824   0.00000  Uiso   1.00
C557   C     0.16643   0.42003   0.49979   0.00000  Uiso   1.00
C558   C     0.16690   0.57997   0.50021   0.00000  Uiso   1.00
O559   O     0.09058   0.50000   0.52928   0.00000  Uiso   1.00
O560   O     0.24275   0.50000   0.47072   0.00000  Uiso   1.00
O561   O     0.09058   0.50000   0.45284   0.00000  Uiso   1.00
O562   O     0.24275   0.50000   0.54716   0.00000  Uiso   1.00
C563   C     0.06720   0.50032   0.48810   0.00000  Uiso   1.00
C564   C     0.26613   0.49968   0.51190   0.00000  Uiso   1.00
Zn565  Zn    0.16667   0.49999   0.55104   0.00000  Uiso   1.00
Zn566  Zn    0.16667   0.50001   0.44896   0.00000  Uiso   1.00
N567   N     0.16665   0.49999   0.61907   0.00000  Uiso   1.00
N568   N     0.16668   0.50001   0.38093   0.00000  Uiso   1.00
C569   C     0.01261   0.49490   0.48236   0.00000  Uiso   1.00
C570   C     0.32072   0.50509   0.51764   0.00000  Uiso   1.00
C571   C     0.18643   0.35456   0.46522   0.00000  Uiso   1.00
C572   C     0.14690   0.64544   0.53478   0.00000  Uiso   1.00
H573   H     0.20248   0.37089   0.43866   0.00000  Uiso   1.00
H574   H     0.13086   0.62911   0.56134   0.00000  Uiso   1.00
C575   C     0.18686   0.64512   0.46556   0.00000  Uiso   1.00
C576   C     0.14647   0.35488   0.53444   0.00000  Uiso   1.00
H577   H     0.20298   0.62855   0.43905   0.00000  Uiso   1.00
H578   H     0.13035   0.37145   0.56095   0.00000  Uiso   1.00
C579   C     0.16710   0.62413   0.50036   0.00000  Uiso   1.00
C580   C     0.16623   0.37587   0.49964   0.00000  Uiso   1.00
C581   C     0.18714   0.53287   0.36084   0.00000  Uiso   1.00
C582   C     0.14619   0.46713   0.63916   0.00000  Uiso   1.00
H583   H     0.20402   0.55889   0.38187   0.00000  Uiso   1.00
H584   H     0.12931   0.44111   0.61813   0.00000  Uiso   1.00
C585   C     0.18751   0.53307   0.64646   0.00000  Uiso   1.00
C586   C     0.14582   0.46693   0.35354   0.00000  Uiso   1.00
N587   N     0.32182   0.47171   0.44254   0.00000  Uiso   1.00
O588   O     0.32245   0.48663   0.40203   0.00000  Uiso   1.00
O589   O     0.30295   0.43437   0.44672   0.00000  Uiso   1.00
N590   N     0.01151   0.52828   0.55746   0.00000  Uiso   1.00
O591   O     0.01089   0.51336   0.59797   0.00000  Uiso   1.00
O592   O     0.03038   0.56563   0.55328   0.00000  Uiso   1.00
N593   N     0.21056   0.56829   0.62768   0.00000  Uiso   1.00
O594   O     0.25127   0.56323   0.60784   0.00000  Uiso   1.00
O595   O     0.19934   0.60577   0.64000   0.00000  Uiso   1.00
N596   N     0.12278   0.43171   0.37232   0.00000  Uiso   1.00
O597   O     0.08206   0.43677   0.39217   0.00000  Uiso   1.00
O598   O     0.13400   0.39423   0.36000   0.00000  Uiso   1.00
O599   O     0.50000   0.43892   0.53821   0.00000  Uiso   1.00
O600   O     0.50000   0.56108   0.46179   0.00000  Uiso   1.00
O601   O     0.50000   0.43893   0.46176   0.00000  Uiso   1.00
O602   O     0.50000   0.56107   0.53824   0.00000  Uiso   1.00
C603   C     0.49976   0.42003   0.49979   0.00000  Uiso   1.00
C604   C     0.50023   0.57997   0.50021   0.00000  Uiso   1.00
O605   O     0.42392   0.50000   0.52928   0.00000  Uiso   1.00
O606   O     0.57608   0.50000   0.47072   0.00000  Uiso   1.00
O607   O     0.42392   0.50000   0.45284   0.00000  Uiso   1.00
O608   O     0.57608   0.50000   0.54716   0.00000  Uiso   1.00
C609   C     0.40053   0.50032   0.48810   0.00000  Uiso   1.00
C610   C     0.59946   0.49968   0.51190   0.00000  Uiso   1.00
Zn611  Zn    0.50000   0.49999   0.55104   0.00000  Uiso   1.00
Zn612  Zn    0.50000   0.50001   0.44896   0.00000  Uiso   1.00
N613   N     0.49999   0.49999   0.61907   0.00000  Uiso   1.00
N614   N     0.50001   0.50001   0.38093   0.00000  Uiso   1.00
C615   C     0.34594   0.49490   0.48236   0.00000  Uiso   1.00
C616   C     0.65405   0.50509   0.51764   0.00000  Uiso   1.00
C617   C     0.51976   0.35456   0.46522   0.00000  Uiso   1.00
C618   C     0.48023   0.64544   0.53478   0.00000  Uiso   1.00
H619   H     0.53581   0.37089   0.43866   0.00000  Uiso   1.00
H620   H     0.46419   0.62911   0.56134   0.00000  Uiso   1.00
C621   C     0.52019   0.64512   0.46556   0.00000  Uiso   1.00
C622   C     0.47981   0.35488   0.53444   0.00000  Uiso   1.00
H623   H     0.53631   0.62855   0.43905   0.00000  Uiso   1.00
H624   H     0.46369   0.37145   0.56095   0.00000  Uiso   1.00
C625   C     0.50044   0.62413   0.50036   0.00000  Uiso   1.00
C626   C     0.49956   0.37587   0.49964   0.00000  Uiso   1.00
C627   C     0.52048   0.53287   0.36084   0.00000  Uiso   1.00
C628   C     0.47952   0.46713   0.63916   0.00000  Uiso   1.00
H629   H     0.53736   0.55889   0.38187   0.00000  Uiso   1.00
H630   H     0.46264   0.44111   0.61813   0.00000  Uiso   1.00
C631   C     0.52085   0.53307   0.64646   0.00000  Uiso   1.00
C632   C     0.47915   0.46693   0.35354   0.00000  Uiso   1.00
N633   N     0.65515   0.47171   0.44254   0.00000  Uiso   1.00
O634   O     0.65579   0.48663   0.40203   0.00000  Uiso   1.00
O635   O     0.63628   0.43437   0.44672   0.00000  Uiso   1.00
N636   N     0.34484   0.52828   0.55746   0.00000  Uiso   1.00
O637   O     0.34422   0.51336   0.59797   0.00000  Uiso   1.00
O638   O     0.36371   0.56563   0.55328   0.00000  Uiso   1.00
N639   N     0.54389   0.56829   0.62768   0.00000  Uiso   1.00
O640   O     0.58461   0.56323   0.60784   0.00000  Uiso   1.00
O641   O     0.53267   0.60577   0.64000   0.00000  Uiso   1.00
N642   N     0.45611   0.43171   0.37232   0.00000  Uiso   1.00
O643   O     0.41540   0.43677   0.39217   0.00000  Uiso   1.00
O644   O     0.46733   0.39423   0.36000   0.00000  Uiso   1.00
O645   O     0.83333   0.43892   0.53821   0.00000  Uiso   1.00
O646   O     0.83334   0.56108   0.46179   0.00000  Uiso   1.00
O647   O     0.83333   0.43893   0.46176   0.00000  Uiso   1.00
O648   O     0.83334   0.56107   0.53824   0.00000  Uiso   1.00
C649   C     0.83310   0.42003   0.49979   0.00000  Uiso   1.00
C650   C     0.83357   0.57997   0.50021   0.00000  Uiso   1.00
O651   O     0.75725   0.50000   0.52928   0.00000  Uiso   1.00
O652   O     0.90942   0.50000   0.47072   0.00000  Uiso   1.00
O653   O     0.75725   0.50000   0.45284   0.00000  Uiso   1.00
O654   O     0.90942   0.50000   0.54716   0.00000  Uiso   1.00
C655   C     0.73387   0.50032   0.48810   0.00000  Uiso   1.00
C656   C     0.93280   0.49968   0.51190   0.00000  Uiso   1.00
Zn657  Zn    0.83333   0.49999   0.55104   0.00000  Uiso   1.00
Zn658  Zn    0.83333   0.50001   0.44896   0.00000  Uiso   1.00
N659   N     0.83332   0.49999   0.61907   0.00000  Uiso   1.00
N660   N     0.83335   0.50001   0.38093   0.00000  Uiso   1.00
C661   C     0.67928   0.49490   0.48236   0.00000  Uiso   1.00
C662   C     0.98739   0.50509   0.51764   0.00000  Uiso   1.00
C663   C     0.85310   0.35456   0.46522   0.00000  Uiso   1.00
C664   C     0.81357   0.64544   0.53478   0.00000  Uiso   1.00
H665   H     0.86914   0.37089   0.43866   0.00000  Uiso   1.00
H666   H     0.79752   0.62911   0.56134   0.00000  Uiso   1.00
C667   C     0.85353   0.64512   0.46556   0.00000  Uiso   1.00
C668   C     0.81314   0.35488   0.53444   0.00000  Uiso   1.00
H669   H     0.86964   0.62855   0.43905   0.00000  Uiso   1.00
H670   H     0.79702   0.37145   0.56095   0.00000  Uiso   1.00
C671   C     0.83377   0.62413   0.50036   0.00000  Uiso   1.00
C672   C     0.83290   0.37587   0.49964   0.00000  Uiso   1.00
C673   C     0.85381   0.53287   0.36084   0.00000  Uiso   1.00
C674   C     0.81285   0.46713   0.63916   0.00000  Uiso   1.00
H675   H     0.87069   0.55889   0.38187   0.00000  Uiso   1.00
H676   H     0.79598   0.44111   0.61813   0.00000  Uiso   1.00
C677   C     0.85418   0.53307   0.64646   0.00000  Uiso   1.00
C678   C     0.81249   0.46693   0.35354   0.00000  Uiso   1.00
N679   N     0.98849   0.47171   0.44254   0.00000  Uiso   1.00
O680   O     0.98912   0.48663   0.40203   0.00000  Uiso   1.00
O681   O     0.96961   0.43437   0.44672   0.00000  Uiso   1.00
N682   N     0.67818   0.52828   0.55746   0.00000  Uiso   1.00
O683   O     0.67756   0.51336   0.59797   0.00000  Uiso   1.00
O684   O     0.69704   0.56563   0.55328   0.00000  Uiso   1.00
N685   N     0.87722   0.56829   0.62768   0.00000  Uiso   1.00
O686   O     0.91794   0.56323   0.60784   0.00000  Uiso   1.00
O687   O     0.86600   0.60577   0.64000   0.00000  Uiso   1.00
N688   N     0.78944   0.43171   0.37232   0.00000  Uiso   1.00
O689   O     0.74873   0.43677   0.39217   0.00000  Uiso   1.00
O690   O     0.80067   0.39423   0.36000   0.00000  Uiso   1.00
O691   O     0.16666   0.77225   0.53821   0.00000  Uiso   1.00
O692   O     0.16667   0.89442   0.46179   0.00000  Uiso   1.00
O693   O     0.16666   0.77226   0.46176   0.00000  Uiso   1.00
O694   O     0.16667   0.89441   0.53824   0.00000  Uiso   1.00
C695   C     0.16643   0.75337   0.49979   0.00000  Uiso   1.00
C696   C     0.16690   0.91330   0.50021   0.00000  Uiso   1.00
O697   O     0.09058   0.83333   0.52928   0.00000  Uiso   1.00
O698   O     0.24275   0.83334   0.47072   0.00000  Uiso   1.00
O699   O     0.09058   0.83334   0.45284   0.00000  Uiso   1.00
O700   O     0.24275   0.83333   0.54716   0.00000  Uiso   1.00
C701   C     0.06720   0.83366   0.48810   0.00000  Uiso   1.00
C702   C     0.26613   0.83301   0.51190   0.00000  Uiso   1.00
Zn703  Zn    0.16667   0.83333   0.55104   0.00000  Uiso   1.00
Zn704  Zn    0.16667   0.83334   0.44896   0.00000  Uiso   1.00
N705   N     0.16665   0.83332   0.61907   0.00000  Uiso   1.00
N706   N     0.16668   0.83334   0.38093   0.00000  Uiso   1.00
C707   C     0.01261   0.82824   0.48236   0.00000  Uiso   1.00
C708   C     0.32072   0.83843   0.51764   0.00000  Uiso   1.00
C709   C     0.18643   0.68789   0.46522   0.00000  Uiso   1.00
C710   C     0.14690   0.97877   0.53478   0.00000  Uiso   1.00
H711   H     0.20248   0.70423   0.43866   0.00000  Uiso   1.00
H712   H     0.13086   0.96244   0.56134   0.00000  Uiso   1.00
C713   C     0.18686   0.97846   0.46556   0.00000  Uiso   1.00
C714   C     0.14647   0.68821   0.53444   0.00000  Uiso   1.00
H715   H     0.20298   0.96189   0.43905   0.00000  Uiso   1.00
H716   H     0.13035   0.70478   0.56095   0.00000  Uiso   1.00
C717   C     0.16710   0.95747   0.50036   0.00000  Uiso   1.00
C718   C     0.16623   0.70920   0.49964   0.00000  Uiso   1.00
C719   C     0.18714   0.86620   0.36084   0.00000  Uiso   1.00
C720   C     0.14619   0.80047   0.63916   0.00000  Uiso   1.00
H721   H     0.20402   0.89222   0.38187   0.00000  Uiso   1.00
H722   H     0.12931   0.77444   0.61813   0.00000  Uiso   1.00
C723   C     0.18751   0.86641   0.64646   0.00000  Uiso   1.00
C724   C     0.14582   0.80026   0.35354   0.00000  Uiso   1.00
N725   N     0.32182   0.80505   0.44254   0.00000  Uiso   1.00
O726   O     0.32245   0.81997   0.40203   0.00000  Uiso   1.00
O727   O     0.30295   0.76771   0.44672   0.00000  Uiso   1.00
N728   N     0.01151   0.86162   0.55746   0.00000  Uiso   1.00
O729   O     0.01089   0.84669   0.59797   0.00000  Uiso   1.00
O730   O     0.03038   0.89896   0.55328   0.00000  Uiso   1.00
N731   N     0.21056   0.90162   0.62768   0.00000  Uiso   1.00
O732   O     0.25127   0.89656   0.60784   0.00000  Uiso   1.00
O733   O     0.19934   0.93910   0.64000   0.00000  Uiso   1.00
N734   N     0.12278   0.76504   0.37232   0.00000  Uiso   1.00
O735   O     0.08206   0.77010   0.39217   0.00000  Uiso   1.00
O736   O     0.13400   0.72757   0.36000   0.00000  Uiso   1.00
O737   O     0.50000   0.77225   0.53821   0.00000  Uiso   1.00
O738   O     0.50000   0.89442   0.46179   0.00000  Uiso   1.00
O739   O     0.50000   0.77226   0.46176   0.00000  Uiso   1.00
O740   O     0.50000   0.89441   0.53824   0.00000  Uiso   1.00
C741   C     0.49976   0.75337   0.49979   0.00000  Uiso   1.00
C742   C     0.50023   0.91330   0.50021   0.00000  Uiso   1.00
O743   O     0.42392   0.83333   0.52928   0.00000  Uiso   1.00
O744   O     0.57608   0.83334   0.47072   0.00000  Uiso   1.00
O745   O     0.42392   0.83334   0.45284   0.00000  Uiso   1.00
O746   O     0.57608   0.83333   0.54716   0.00000  Uiso   1.00
C747   C     0.40053   0.83366   0.48810   0.00000  Uiso   1.00
C748   C     0.59946   0.83301   0.51190   0.00000  Uiso   1.00
Zn749  Zn    0.50000   0.83333   0.55104   0.00000  Uiso   1.00
Zn750  Zn    0.50000   0.83334   0.44896   0.00000  Uiso   1.00
N751   N     0.49999   0.83332   0.61907   0.00000  Uiso   1.00
N752   N     0.50001   0.83334   0.38093   0.00000  Uiso   1.00
C753   C     0.34594   0.82824   0.48236   0.00000  Uiso   1.00
C754   C     0.65405   0.83843   0.51764   0.00000  Uiso   1.00
C755   C     0.51976   0.68789   0.46522   0.00000  Uiso   1.00
C756   C     0.48023   0.97877   0.53478   0.00000  Uiso   1.00
H757   H     0.53581   0.70423   0.43866   0.00000  Uiso   1.00
H758   H     0.46419   0.96244   0.56134   0.00000  Uiso   1.00
C759   C     0.52019   0.97846   0.46556   0.00000  Uiso   1.00
C760   C     0.47981   0.68821   0.53444   0.00000  Uiso   1.00
H761   H     0.53631   0.96189   0.43905   0.00000  Uiso   1.00
H762   H     0.46369   0.70478   0.56095   0.00000  Uiso   1.00
C763   C     0.50044   0.95747   0.50036   0.00000  Uiso   1.00
C764   C     0.49956   0.70920   0.49964   0.00000  Uiso   1.00
C765   C     0.52048   0.86620   0.36084   0.00000  Uiso   1.00
C766   C     0.47952   0.80047   0.63916   0.00000  Uiso   1.00
H767   H     0.53736   0.89222   0.38187   0.00000  Uiso   1.00
H768   H     0.46264   0.77444   0.61813   0.00000  Uiso   1.00
C769   C     0.52085   0.86641   0.64646   0.00000  Uiso   1.00
C770   C     0.47915   0.80026   0.35354   0.00000  Uiso   1.00
N771   N     0.65515   0.80505   0.44254   0.00000  Uiso   1.00
O772   O     0.65579   0.81997   0.40203   0.00000  Uiso   1.00
O773   O     0.63628   0.76771   0.44672   0.00000  Uiso   1.00
N774   N     0.34484   0.86162   0.55746   0.00000  Uiso   1.00
O775   O     0.34422   0.84669   0.59797   0.00000  Uiso   1.00
O776   O     0.36371   0.89896   0.55328   0.00000  Uiso   1.00
N777   N     0.54389   0.90162   0.62768   0.00000  Uiso   1.00
O778   O     0.58461   0.89656   0.60784   0.00000  Uiso   1.00
O779   O     0.53267   0.93910   0.64000   0.00000  Uiso   1.00
N780   N     0.45611   0.76504   0.37232   0.00000  Uiso   1.00
O781   O     0.41540   0.77010   0.39217   0.00000  Uiso   1.00
O782   O     0.46733   0.72757   0.36000   0.00000  Uiso   1.00
O783   O     0.83333   0.77225   0.53821   0.00000  Uiso   1.00
O784   O     0.83334   0.89442   0.46179   0.00000  Uiso   1.00
O785   O     0.83333   0.77226   0.46176   0.00000  Uiso   1.00
O786   O     0.83334   0.89441   0.53824   0.00000  Uiso   1.00
C787   C     0.83310   0.75337   0.49979   0.00000  Uiso   1.00
C788   C     0.83357   0.91330   0.50021   0.00000  Uiso   1.00
O789   O     0.75725   0.83333   0.52928   0.00000  Uiso   1.00
O790   O     0.90942   0.83334   0.47072   0.00000  Uiso   1.00
O791   O     0.75725   0.83334   0.45284   0.00000  Uiso   1.00
O792   O     0.90942   0.83333   0.54716   0.00000  Uiso   1.00
C793   C     0.73387   0.83366   0.48810   0.00000  Uiso   1.00
C794   C     0.93280   0.83301   0.51190   0.00000  Uiso   1.00
Zn795  Zn    0.83333   0.83333   0.55104   0.00000  Uiso   1.00
Zn796  Zn    0.83333   0.83334   0.44896   0.00000  Uiso   1.00
N797   N     0.83332   0.83332   0.61907   0.00000  Uiso   1.00
N798   N     0.83335   0.83334   0.38093   0.00000  Uiso   1.00
C799   C     0.67928   0.82824   0.48236   0.00000  Uiso   1.00
C800   C     0.98739   0.83843   0.51764   0.00000  Uiso   1.00
C801   C     0.85310   0.68789   0.46522   0.00000  Uiso   1.00
C802   C     0.81357   0.97877   0.53478   0.00000  Uiso   1.00
H803   H     0.86914   0.70423   0.43866   0.00000  Uiso   1.00
H804   H     0.79752   0.96244   0.56134   0.00000  Uiso   1.00
C805   C     0.85353   0.97846   0.46556   0.00000  Uiso   1.00
C806   C     0.81314   0.68821   0.53444   0.00000  Uiso   1.00
H807   H     0.86964   0.96189   0.43905   0.00000  Uiso   1.00
H808   H     0.79702   0.70478   0.56095   0.00000  Uiso   1.00
C809   C     0.83377   0.95747   0.50036   0.00000  Uiso   1.00
C810   C     0.83290   0.70920   0.49964   0.00000  Uiso   1.00
C811   C     0.85381   0.86620   0.36084   0.00000  Uiso   1.00
C812   C     0.81285   0.80047   0.63916   0.00000  Uiso   1.00
H813   H     0.87069   0.89222   0.38187   0.00000  Uiso   1.00
H814   H     0.79598   0.77444   0.61813   0.00000  Uiso   1.00
C815   C     0.85418   0.86641   0.64646   0.00000  Uiso   1.00
C816   C     0.81249   0.80026   0.35354   0.00000  Uiso   1.00
N817   N     0.98849   0.80505   0.44254   0.00000  Uiso   1.00
O818   O     0.98912   0.81997   0.40203   0.00000  Uiso   1.00
O819   O     0.96961   0.76771   0.44672   0.00000  Uiso   1.00
N820   N     0.67818   0.86162   0.55746   0.00000  Uiso   1.00
O821   O     0.67756   0.84669   0.59797   0.00000  Uiso   1.00
O822   O     0.69704   0.89896   0.55328   0.00000  Uiso   1.00
N823   N     0.87722   0.90162   0.62768   0.00000  Uiso   1.00
O824   O     0.91794   0.89656   0.60784   0.00000  Uiso   1.00
O825   O     0.86600   0.93910   0.64000   0.00000  Uiso   1.00
N826   N     0.78944   0.76504   0.37232   0.00000  Uiso   1.00
O827   O     0.74873   0.77010   0.39217   0.00000  Uiso   1.00
O828   O     0.80067   0.72757   0.36000   0.00000  Uiso   1.00
O829   O     0.16666   0.10558   0.87154   0.00000  Uiso   1.00
O830   O     0.16667   0.22775   0.79513   0.00000  Uiso   1.00
O831   O     0.16666   0.10559   0.79510   0.00000  Uiso   1.00
O832   O     0.16667   0.22774   0.87157   0.00000  Uiso   1.00
C833   C     0.16643   0.08670   0.83312   0.00000  Uiso   1.00
C834   C     0.16690   0.24663   0.83355   0.00000  Uiso   1.00
O835   O     0.09058   0.16666   0.86261   0.00000  Uiso   1.00
O836   O     0.24275   0.16667   0.80405   0.00000  Uiso   1.00
O837   O     0.09058   0.16667   0.78617   0.00000  Uiso   1.00
O838   O     0.24275   0.16666   0.88050   0.00000  Uiso   1.00
C839   C     0.06720   0.16699   0.82144   0.00000  Uiso   1.00
C840   C     0.26613   0.16634   0.84523   0.00000  Uiso   1.00
Zn841  Zn    0.16667   0.16666   0.88437   0.00000  Uiso   1.00
Zn842  Zn    0.16667   0.16667   0.78229   0.00000  Uiso   1.00
N843   N     0.16665   0.16666   0.95240   0.00000  Uiso   1.00
N844   N     0.16668   0.16668   0.71427   0.00000  Uiso   1.00
C845   C     0.01261   0.16157   0.81570   0.00000  Uiso   1.00
C846   C     0.32072   0.17176   0.85097   0.00000  Uiso   1.00
C847   C     0.18643   0.02123   0.79855   0.00000  Uiso   1.00
C848   C     0.14690   0.31211   0.86812   0.00000  Uiso   1.00
H849   H     0.20248   0.03756   0.77199   0.00000  Uiso   1.00
H850   H     0.13086   0.29577   0.89468   0.00000  Uiso   1.00
C851   C     0.18686   0.31179   0.79890   0.00000  Uiso   1.00
C852   C     0.14647   0.02154   0.86777   0.00000  Uiso   1.00
H853   H     0.20298   0.29522   0.77239   0.00000  Uiso   1.00
H854   H     0.13035   0.03811   0.89428   0.00000  Uiso   1.00
C855   C     0.16710   0.29080   0.83370   0.00000  Uiso   1.00
C856   C     0.16623   0.04253   0.83297   0.00000  Uiso   1.00
C857   C     0.18714   0.19953   0.69417   0.00000  Uiso   1.00
C858   C     0.14619   0.13380   0.97249   0.00000  Uiso   1.00
H859   H     0.20402   0.22556   0.71520   0.00000  Uiso   1.00
H860   H     0.12931   0.10778   0.95147   0.00000  Uiso   1.00
C861   C     0.18751   0.19974   0.97980   0.00000  Uiso   1.00
C862   C     0.14582   0.13359   0.68687   0.00000  Uiso   1.00
N863   N     0.32182   0.13838   0.77588   0.00000  Uiso   1.00
O864   O     0.32245   0.15330   0.73536   0.00000  Uiso   1.00
O865   O     0.30295   0.10104   0.78006   0.00000  Uiso   1.00
N866   N     0.01151   0.19495   0.89079   0.00000  Uiso   1.00
O867   O     0.01089   0.18002   0.93130   0.00000  Uiso   1.00
O868   O     0.03038   0.23229   0.88662   0.00000  Uiso   1.00
N869   N     0.21056   0.23496   0.96101   0.00000  Uiso   1.00
O870   O     0.25127   0.22990   0.94117   0.00000  Uiso   1.00
O871   O     0.19934   0.27243   0.97333   0.00000  Uiso   1.00
N872   N     0.12278   0.09838   0.70566   0.00000  Uiso   1.00
O873   O     0.08206   0.10343   0.72550   0.00000  Uiso   1.00
O874   O     0.13400   0.06090   0.69333   0.00000  Uiso   1.00
O875   O     0.50000   0.10558   0.87154   0.00000  Uiso   1.00
O876   O     0.50000   0.22775   0.79513   0.00000  Uiso   1.00
O877   O     0.50000   0.10559   0.79510   0.00000  Uiso   1.00
O878   O     0.50000   0.22774   0.87157   0.00000  Uiso   1.00
C879   C     0.49976   0.08670   0.83312   0.00000  Uiso   1.00
C880   C     0.50023   0.24663   0.83355   0.00000  Uiso   1.00
O881   O     0.42392   0.16666   0.86261   0.00000  Uiso   1.00
O882   O     0.57608   0.16667   0.80405   0.00000  Uiso   1.00
O883   O     0.42392   0.16667   0.78617   0.00000  Uiso   1.00
O884   O     0.57608   0.16666   0.88050   0.00000  Uiso   1.00
C885   C     0.40053   0.16699   0.82144   0.00000  Uiso   1.00
C886   C     0.59946   0.16634   0.84523   0.00000  Uiso   1.00
Zn887  Zn    0.50000   0.16666   0.88437   0.00000  Uiso   1.00
Zn888  Zn    0.50000   0.16667   0.78229   0.00000  Uiso   1.00
N889   N     0.49999   0.16666   0.95240   0.00000  Uiso   1.00
N890   N     0.50001   0.16668   0.71427   0.00000  Uiso   1.00
C891   C     0.34594   0.16157   0.81570   0.00000  Uiso   1.00
C892   C     0.65405   0.17176   0.85097   0.00000  Uiso   1.00
C893   C     0.51976   0.02123   0.79855   0.00000  Uiso   1.00
C894   C     0.48023   0.31211   0.86812   0.00000  Uiso   1.00
H895   H     0.53581   0.03756   0.77199   0.00000  Uiso   1.00
H896   H     0.46419   0.29577   0.89468   0.00000  Uiso   1.00
C897   C     0.52019   0.31179   0.79890   0.00000  Uiso   1.00
C898   C     0.47981   0.02154   0.86777   0.00000  Uiso   1.00
H899   H     0.53631   0.29522   0.77239   0.00000  Uiso   1.00
H900   H     0.46369   0.03811   0.89428   0.00000  Uiso   1.00
C901   C     0.50044   0.29080   0.83370   0.00000  Uiso   1.00
C902   C     0.49956   0.04253   0.83297   0.00000  Uiso   1.00
C903   C     0.52048   0.19953   0.69417   0.00000  Uiso   1.00
C904   C     0.47952   0.13380   0.97249   0.00000  Uiso   1.00
H905   H     0.53736   0.22556   0.71520   0.00000  Uiso   1.00
H906   H     0.46264   0.10778   0.95147   0.00000  Uiso   1.00
C907   C     0.52085   0.19974   0.97980   0.00000  Uiso   1.00
C908   C     0.47915   0.13359   0.68687   0.00000  Uiso   1.00
N909   N     0.65515   0.13838   0.77588   0.00000  Uiso   1.00
O910   O     0.65579   0.15330   0.73536   0.00000  Uiso   1.00
O911   O     0.63628   0.10104   0.78006   0.00000  Uiso   1.00
N912   N     0.34484   0.19495   0.89079   0.00000  Uiso   1.00
O913   O     0.34422   0.18002   0.93130   0.00000  Uiso   1.00
O914   O     0.36371   0.23229   0.88662   0.00000  Uiso   1.00
N915   N     0.54389   0.23496   0.96101   0.00000  Uiso   1.00
O916   O     0.58461   0.22990   0.94117   0.00000  Uiso   1.00
O917   O     0.53267   0.27243   0.97333   0.00000  Uiso   1.00
N918   N     0.45611   0.09838   0.70566   0.00000  Uiso   1.00
O919   O     0.41540   0.10343   0.72550   0.00000  Uiso   1.00
O920   O     0.46733   0.06090   0.69333   0.00000  Uiso   1.00
O921   O     0.83333   0.10558   0.87154   0.00000  Uiso   1.00
O922   O     0.83334   0.22775   0.79513   0.00000  Uiso   1.00
O923   O     0.83333   0.10559   0.79510   0.00000  Uiso   1.00
O924   O     0.83334   0.22774   0.87157   0.00000  Uiso   1.00
C925   C     0.83310   0.08670   0.83312   0.00000  Uiso   1.00
C926   C     0.83357   0.24663   0.83355   0.00000  Uiso   1.00
O927   O     0.75725   0.16666   0.86261   0.00000  Uiso   1.00
O928   O     0.90942   0.16667   0.80405   0.00000  Uiso   1.00
O929   O     0.75725   0.16667   0.78617   0.00000  Uiso   1.00
O930   O     0.90942   0.16666   0.88050   0.00000  Uiso   1.00
C931   C     0.73387   0.16699   0.82144   0.00000  Uiso   1.00
C932   C     0.93280   0.16634   0.84523   0.00000  Uiso   1.00
Zn933  Zn    0.83333   0.16666   0.88437   0.00000  Uiso   1.00
Zn934  Zn    0.83333   0.16667   0.78229   0.00000  Uiso   1.00
N935   N     0.83332   0.16666   0.95240   0.00000  Uiso   1.00
N936   N     0.83335   0.16668   0.71427   0.00000  Uiso   1.00
C937   C     0.67928   0.16157   0.81570   0.00000  Uiso   1.00
C938   C     0.98739   0.17176   0.85097   0.00000  Uiso   1.00
C939   C     0.85310   0.02123   0.79855   0.00000  Uiso   1.00
C940   C     0.81357   0.31211   0.86812   0.00000  Uiso   1.00
H941   H     0.86914   0.03756   0.77199   0.00000  Uiso   1.00
H942   H     0.79752   0.29577   0.89468   0.00000  Uiso   1.00
C943   C     0.85353   0.31179   0.79890   0.00000  Uiso   1.00
C944   C     0.81314   0.02154   0.86777   0.00000  Uiso   1.00
H945   H     0.86964   0.29522   0.77239   0.00000  Uiso   1.00
H946   H     0.79702   0.03811   0.89428   0.00000  Uiso   1.00
C947   C     0.83377   0.29080   0.83370   0.00000  Uiso   1.00
C948   C     0.83290   0.04253   0.83297   0.00000  Uiso   1.00
C949   C     0.85381   0.19953   0.69417   0.00000  Uiso   1.00
C950   C     0.81285   0.13380   0.97249   0.00000  Uiso   1.00
H951   H     0.87069   0.22556   0.71520   0.00000  Uiso   1.00
H952   H     0.79598   0.10778   0.95147   0.00000  Uiso   1.00
C953   C     0.85418   0.19974   0.97980   0.00000  Uiso   1.00
C954   C     0.81249   0.13359   0.68687   0.00000  Uiso   1.00
N955   N     0.98849   0.13838   0.77588   0.00000  Uiso   1.00
O956   O     0.98912   0.15330   0.73536   0.00000  Uiso   1.00
O957   O     0.96961   0.10104   0.78006   0.00000  Uiso   1.00
N958   N     0.67818   0.19495   0.89079   0.00000  Uiso   1.00
O959   O     0.67756   0.18002   0.93130   0.00000  Uiso   1.00
O960   O     0.69704   0.23229   0.88662   0.00000  Uiso   1.00
N961   N     0.87722   0.23496   0.96101   0.00000  Uiso   1.00
O962   O     0.91794   0.22990   0.94117   0.00000  Uiso   1.00
O963   O     0.86600   0.27243   0.97333   0.00000  Uiso   1.00
N964   N     0.78944   0.09838   0.70566   0.00000  Uiso   1.00
O965   O     0.74873   0.10343   0.72550   0.00000  Uiso   1.00
O966   O     0.80067   0.06090   0.69333   0.00000  Uiso   1.00
O967   O     0.16666   0.43892   0.87154   0.00000  Uiso   1.00
O968   O     0.16667   0.56108   0.79513   0.00000  Uiso   1.00
O969   O     0.16666   0.43893   0.79510   0.00000  Uiso   1.00
O970   O     0.16667   0.56107   0.87157   0.00000  Uiso   1.00
C971   C     0.16643   0.42003   0.83312   0.00000  Uiso   1.00
C972   C     0.16690   0.57997   0.83355   0.00000  Uiso   1.00
O973   O     0.09058   0.50000   0.86261   0.00000  Uiso   1.00
O974   O     0.24275   0.50000   0.80405   0.00000  Uiso   1.00
O975   O     0.09058   0.50000   0.78617   0.00000  Uiso   1.00
O976   O     0.24275   0.50000   0.88050   0.00000  Uiso   1.00
C977   C     0.06720   0.50032   0.82144   0.00000  Uiso   1.00
C978   C     0.26613   0.49968   0.84523   0.00000  Uiso   1.00
Zn979  Zn    0.16667   0.49999   0.88437   0.00000  Uiso   1.00
Zn980  Zn    0.16667   0.50001   0.78229   0.00000  Uiso   1.00
N981   N     0.16665   0.49999   0.95240   0.00000  Uiso   1.00
N982   N     0.16668   0.50001   0.71427   0.00000  Uiso   1.00
C983   C     0.01261   0.49490   0.81570   0.00000  Uiso   1.00
C984   C     0.32072   0.50509   0.85097   0.00000  Uiso   1.00
C985   C     0.18643   0.35456   0.79855   0.00000  Uiso   1.00
C986   C     0.14690   0.64544   0.86812   0.00000  Uiso   1.00
H987   H     0.20248   0.37089   0.77199   0.00000  Uiso   1.00
H988   H     0.13086   0.62911   0.89468   0.00000  Uiso   1.00
C989   C     0.18686   0.64512   0.79890   0.00000  Uiso   1.00
C990   C     0.14647   0.35488   0.86777   0.00000  Uiso   1.00
H991   H     0.20298   0.62855   0.77239   0.00000  Uiso   1.00
H992   H     0.13035   0.37145   0.89428   0.00000  Uiso   1.00
C993   C     0.16710   0.62413   0.83370   0.00000  Uiso   1.00
C994   C     0.16623   0.37587   0.83297   0.00000  Uiso   1.00
C995   C     0.18714   0.53287   0.69417   0.00000  Uiso   1.00
C996   C     0.14619   0.46713   0.97249   0.00000  Uiso   1.00
H997   H     0.20402   0.55889   0.71520   0.00000  Uiso   1.00
H998   H     0.12931   0.44111   0.95147   0.00000  Uiso   1.00
C999   C     0.18751   0.53307   0.97980   0.00000  Uiso   1.00
C1000  C     0.14582   0.46693   0.68687   0.00000  Uiso   1.00
N1001  N     0.32182   0.47171   0.77588   0.00000  Uiso   1.00
O1002  O     0.32245   0.48663   0.73536   0.00000  Uiso   1.00
O1003  O     0.30295   0.43437   0.78006   0.00000  Uiso   1.00
N1004  N     0.01151   0.52828   0.89079   0.00000  Uiso   1.00
O1005  O     0.01089   0.51336   0.93130   0.00000  Uiso   1.00
O1006  O     0.03038   0.56563   0.88662   0.00000  Uiso   1.00
N1007  N     0.21056   0.56829   0.96101   0.00000  Uiso   1.00
O1008  O     0.25127   0.56323   0.94117   0.00000  Uiso   1.00
O1009  O     0.19934   0.60577   0.97333   0.00000  Uiso   1.00
N1010  N     0.12278   0.43171   0.70566   0.00000  Uiso   1.00
O1011  O     0.08206   0.43677   0.72550   0.00000  Uiso   1.00
O1012  O     0.13400   0.39423   0.69333   0.00000  Uiso   1.00
O1013  O     0.50000   0.43892   0.87154   0.00000  Uiso   1.00
O1014  O     0.50000   0.56108   0.79513   0.00000  Uiso   1.00
O1015  O     0.50000   0.43893   0.79510   0.00000  Uiso   1.00
O1016  O     0.50000   0.56107   0.87157   0.00000  Uiso   1.00
C1017  C     0.49976   0.42003   0.83312   0.00000  Uiso   1.00
C1018  C     0.50023   0.57997   0.83355   0.00000  Uiso   1.00
O1019  O     0.42392   0.50000   0.86261   0.00000  Uiso   1.00
O1020  O     0.57608   0.50000   0.80405   0.00000  Uiso   1.00
O1021  O     0.42392   0.50000   0.78617   0.00000  Uiso   1.00
O1022  O     0.57608   0.50000   0.88050   0.00000  Uiso   1.00
C1023  C     0.40053   0.50032   0.82144   0.00000  Uiso   1.00
C1024  C     0.59946   0.49968   0.84523   0.00000  Uiso   1.00
Zn1025 Zn    0.50000   0.49999   0.88437   0.00000  Uiso   1.00
Zn1026 Zn    0.50000   0.50001   0.78229   0.00000  Uiso   1.00
N1027  N     0.49999   0.49999   0.95240   0.00000  Uiso   1.00
N1028  N     0.50001   0.50001   0.71427   0.00000  Uiso   1.00
C1029  C     0.34594   0.49490   0.81570   0.00000  Uiso   1.00
C1030  C     0.65405   0.50509   0.85097   0.00000  Uiso   1.00
C1031  C     0.51976   0.35456   0.79855   0.00000  Uiso   1.00
C1032  C     0.48023   0.64544   0.86812   0.00000  Uiso   1.00
H1033  H     0.53581   0.37089   0.77199   0.00000  Uiso   1.00
H1034  H     0.46419   0.62911   0.89468   0.00000  Uiso   1.00
C1035  C     0.52019   0.64512   0.79890   0.00000  Uiso   1.00
C1036  C     0.47981   0.35488   0.86777   0.00000  Uiso   1.00
H1037  H     0.53631   0.62855   0.77239   0.00000  Uiso   1.00
H1038  H     0.46369   0.37145   0.89428   0.00000  Uiso   1.00
C1039  C     0.50044   0.62413   0.83370   0.00000  Uiso   1.00
C1040  C     0.49956   0.37587   0.83297   0.00000  Uiso   1.00
C1041  C     0.52048   0.53287   0.69417   0.00000  Uiso   1.00
C1042  C     0.47952   0.46713   0.97249   0.00000  Uiso   1.00
H1043  H     0.53736   0.55889   0.71520   0.00000  Uiso   1.00
H1044  H     0.46264   0.44111   0.95147   0.00000  Uiso   1.00
C1045  C     0.52085   0.53307   0.97980   0.00000  Uiso   1.00
C1046  C     0.47915   0.46693   0.68687   0.00000  Uiso   1.00
N1047  N     0.65515   0.47171   0.77588   0.00000  Uiso   1.00
O1048  O     0.65579   0.48663   0.73536   0.00000  Uiso   1.00
O1049  O     0.63628   0.43437   0.78006   0.00000  Uiso   1.00
N1050  N     0.34484   0.52828   0.89079   0.00000  Uiso   1.00
O1051  O     0.34422   0.51336   0.93130   0.00000  Uiso   1.00
O1052  O     0.36371   0.56563   0.88662   0.00000  Uiso   1.00
N1053  N     0.54389   0.56829   0.96101   0.00000  Uiso   1.00
O1054  O     0.58461   0.56323   0.94117   0.00000  Uiso   1.00
O1055  O     0.53267   0.60577   0.97333   0.00000  Uiso   1.00
N1056  N     0.45611   0.43171   0.70566   0.00000  Uiso   1.00
O1057  O     0.41540   0.43677   0.72550   0.00000  Uiso   1.00
O1058  O     0.46733   0.39423   0.69333   0.00000  Uiso   1.00
O1059  O     0.83333   0.43892   0.87154   0.00000  Uiso   1.00
O1060  O     0.83334   0.56108   0.79513   0.00000  Uiso   1.00
O1061  O     0.83333   0.43893   0.79510   0.00000  Uiso   1.00
O1062  O     0.83334   0.56107   0.87157   0.00000  Uiso   1.00
C1063  C     0.83310   0.42003   0.83312   0.00000  Uiso   1.00
C1064  C     0.83357   0.57997   0.83355   0.00000  Uiso   1.00
O1065  O     0.75725   0.50000   0.86261   0.00000  Uiso   1.00
O1066  O     0.90942   0.50000   0.80405   0.00000  Uiso   1.00
O1067  O     0.75725   0.50000   0.78617   0.00000  Uiso   1.00
O1068  O     0.90942   0.50000   0.88050   0.00000  Uiso   1.00
C1069  C     0.73387   0.50032   0.82144   0.00000  Uiso   1.00
C1070  C     0.93280   0.49968   0.84523   0.00000  Uiso   1.00
Zn1071 Zn    0.83333   0.49999   0.88437   0.00000  Uiso   1.00
Zn1072 Zn    0.83333   0.50001   0.78229   0.00000  Uiso   1.00
N1073  N     0.83332   0.49999   0.95240   0.00000  Uiso   1.00
N1074  N     0.83335   0.50001   0.71427   0.00000  Uiso   1.00
C1075  C     0.67928   0.49490   0.81570   0.00000  Uiso   1.00
C1076  C     0.98739   0.50509   0.85097   0.00000  Uiso   1.00
C1077  C     0.85310   0.35456   0.79855   0.00000  Uiso   1.00
C1078  C     0.81357   0.64544   0.86812   0.00000  Uiso   1.00
H1079  H     0.86914   0.37089   0.77199   0.00000  Uiso   1.00
H1080  H     0.79752   0.62911   0.89468   0.00000  Uiso   1.00
C1081  C     0.85353   0.64512   0.79890   0.00000  Uiso   1.00
C1082  C     0.81314   0.35488   0.86777   0.00000  Uiso   1.00
H1083  H     0.86964   0.62855   0.77239   0.00000  Uiso   1.00
H1084  H     0.79702   0.37145   0.89428   0.00000  Uiso   1.00
C1085  C     0.83377   0.62413   0.83370   0.00000  Uiso   1.00
C1086  C     0.83290   0.37587   0.83297   0.00000  Uiso   1.00
C1087  C     0.85381   0.53287   0.69417   0.00000  Uiso   1.00
C1088  C     0.81285   0.46713   0.97249   0.00000  Uiso   1.00
H1089  H     0.87069   0.55889   0.71520   0.00000  Uiso   1.00
H1090  H     0.79598   0.44111   0.95147   0.00000  Uiso   1.00
C1091  C     0.85418   0.53307   0.97980   0.00000  Uiso   1.00
C1092  C     0.81249   0.46693   0.68687   0.00000  Uiso   1.00
N1093  N     0.98849   0.47171   0.77588   0.00000  Uiso   1.00
O1094  O     0.98912   0.48663   0.73536   0.00000  Uiso   1.00
O1095  O     0.96961   0.43437   0.78006   0.00000  Uiso   1.00
N1096  N     0.67818   0.52828   0.89079   0.00000  Uiso   1.00
O1097  O     0.67756   0.51336   0.93130   0.00000  Uiso   1.00
O1098  O     0.69704   0.56563   0.88662   0.00000  Uiso   1.00
N1099  N     0.87722   0.56829   0.96101   0.00000  Uiso   1.00
O1100  O     0.91794   0.56323   0.94117   0.00000  Uiso   1.00
O1101  O     0.86600   0.60577   0.97333   0.00000  Uiso   1.00
N1102  N     0.78944   0.43171   0.70566   0.00000  Uiso   1.00
O1103  O     0.74873   0.43677   0.72550   0.00000  Uiso   1.00
O1104  O     0.80067   0.39423   0.69333   0.00000  Uiso   1.00
O1105  O     0.16666   0.77225   0.87154   0.00000  Uiso   1.00
O1106  O     0.16667   0.89442   0.79513   0.00000  Uiso   1.00
O1107  O     0.16666   0.77226   0.79510   0.00000  Uiso   1.00
O1108  O     0.16667   0.89441   0.87157   0.00000  Uiso   1.00
C1109  C     0.16643   0.75337   0.83312   0.00000  Uiso   1.00
C1110  C     0.16690   0.91330   0.83355   0.00000  Uiso   1.00
O1111  O     0.09058   0.83333   0.86261   0.00000  Uiso   1.00
O1112  O     0.24275   0.83334   0.80405   0.00000  Uiso   1.00
O1113  O     0.09058   0.83334   0.78617   0.00000  Uiso   1.00
O1114  O     0.24275   0.83333   0.88050   0.00000  Uiso   1.00
C1115  C     0.06720   0.83366   0.82144   0.00000  Uiso   1.00
C1116  C     0.26613   0.83301   0.84523   0.00000  Uiso   1.00
Zn1117 Zn    0.16667   0.83333   0.88437   0.00000  Uiso   1.00
Zn1118 Zn    0.16667   0.83334   0.78229   0.00000  Uiso   1.00
N1119  N     0.16665   0.83332   0.95240   0.00000  Uiso   1.00
N1120  N     0.16668   0.83334   0.71427   0.00000  Uiso   1.00
C1121  C     0.01261   0.82824   0.81570   0.00000  Uiso   1.00
C1122  C     0.32072   0.83843   0.85097   0.00000  Uiso   1.00
C1123  C     0.18643   0.68789   0.79855   0.00000  Uiso   1.00
C1124  C     0.14690   0.97877   0.86812   0.00000  Uiso   1.00
H1125  H     0.20248   0.70423   0.77199   0.00000  Uiso   1.00
H1126  H     0.13086   0.96244   0.89468   0.00000  Uiso   1.00
C1127  C     0.18686   0.97846   0.79890   0.00000  Uiso   1.00
C1128  C     0.14647   0.68821   0.86777   0.00000  Uiso   1.00
H1129  H     0.20298   0.96189   0.77239   0.00000  Uiso   1.00
H1130  H     0.13035   0.70478   0.89428   0.00000  Uiso   1.00
C1131  C     0.16710   0.95747   0.83370   0.00000  Uiso   1.00
C1132  C     0.16623   0.70920   0.83297   0.00000  Uiso   1.00
C1133  C     0.18714   0.86620   0.69417   0.00000  Uiso   1.00
C1134  C     0.14619   0.80047   0.97249   0.00000  Uiso   1.00
H1135  H     0.20402   0.89222   0.71520   0.00000  Uiso   1.00
H1136  H     0.12931   0.77444   0.95147   0.00000  Uiso   1.00
C1137  C     0.18751   0.86641   0.97980   0.00000  Uiso   1.00
C1138  C     0.14582   0.80026   0.68687   0.00000  Uiso   1.00
N1139  N     0.32182   0.80505   0.77588   0.00000  Uiso   1.00
O1140  O     0.32245   0.81997   0.73536   0.00000  Uiso   1.00
O1141  O     0.30295   0.76771   0.78006   0.00000  Uiso   1.00
N1142  N     0.01151   0.86162   0.89079   0.00000  Uiso   1.00
O1143  O     0.01089   0.84669   0.93130   0.00000  Uiso   1.00
O1144  O     0.03038   0.89896   0.88662   0.00000  Uiso   1.00
N1145  N     0.21056   0.90162   0.96101   0.00000  Uiso   1.00
O1146  O     0.25127   0.89656   0.94117   0.00000  Uiso   1.00
O1147  O     0.19934   0.93910   0.97333   0.00000  Uiso   1.00
N1148  N     0.12278   0.76504   0.70566   0.00000  Uiso   1.00
O1149  O     0.08206   0.77010   0.72550   0.00000  Uiso   1.00
O1150  O     0.13400   0.72757   0.69333   0.00000  Uiso   1.00
O1151  O     0.50000   0.77225   0.87154   0.00000  Uiso   1.00
O1152  O     0.50000   0.89442   0.79513   0.00000  Uiso   1.00
O1153  O     0.50000   0.77226   0.79510   0.00000  Uiso   1.00
O1154  O     0.50000   0.89441   0.87157   0.00000  Uiso   1.00
C1155  C     0.49976   0.75337   0.83312   0.00000  Uiso   1.00
C1156  C     0.50023   0.91330   0.83355   0.00000  Uiso   1.00
O1157  O     0.42392   0.83333   0.86261   0.00000  Uiso   1.00
O1158  O     0.57608   0.83334   0.80405   0.00000  Uiso   1.00
O1159  O     0.42392   0.83334   0.78617   0.00000  Uiso   1.00
O1160  O     0.57608   0.83333   0.88050   0.00000  Uiso   1.00
C1161  C     0.40053   0.83366   0.82144   0.00000  Uiso   1.00
C1162  C     0.59946   0.83301   0.84523   0.00000  Uiso   1.00
Zn1163 Zn    0.50000   0.83333   0.88437   0.00000  Uiso   1.00
Zn1164 Zn    0.50000   0.83334   0.78229   0.00000  Uiso   1.00
N1165  N     0.49999   0.83332   0.95240   0.00000  Uiso   1.00
N1166  N     0.50001   0.83334   0.71427   0.00000  Uiso   1.00
C1167  C     0.34594   0.82824   0.81570   0.00000  Uiso   1.00
C1168  C     0.65405   0.83843   0.85097   0.00000  Uiso   1.00
C1169  C     0.51976   0.68789   0.79855   0.00000  Uiso   1.00
C1170  C     0.48023   0.97877   0.86812   0.00000  Uiso   1.00
H1171  H     0.53581   0.70423   0.77199   0.00000  Uiso   1.00
H1172  H     0.46419   0.96244   0.89468   0.00000  Uiso   1.00
C1173  C     0.52019   0.97846   0.79890   0.00000  Uiso   1.00
C1174  C     0.47981   0.68821   0.86777   0.00000  Uiso   1.00
H1175  H     0.53631   0.96189   0.77239   0.00000  Uiso   1.00
H1176  H     0.46369   0.70478   0.89428   0.00000  Uiso   1.00
C1177  C     0.50044   0.95747   0.83370   0.00000  Uiso   1.00
C1178  C     0.49956   0.70920   0.83297   0.00000  Uiso   1.00
C1179  C     0.52048   0.86620   0.69417   0.00000  Uiso   1.00
C1180  C     0.47952   0.80047   0.97249   0.00000  Uiso   1.00
H1181  H     0.53736   0.89222   0.71520   0.00000  Uiso   1.00
H1182  H     0.46264   0.77444   0.95147   0.00000  Uiso   1.00
C1183  C     0.52085   0.86641   0.97980   0.00000  Uiso   1.00
C1184  C     0.47915   0.80026   0.68687   0.00000  Uiso   1.00
N1185  N     0.65515   0.80505   0.77588   0.00000  Uiso   1.00
O1186  O     0.65579   0.81997   0.73536   0.00000  Uiso   1.00
O1187  O     0.63628   0.76771   0.78006   0.00000  Uiso   1.00
N1188  N     0.34484   0.86162   0.89079   0.00000  Uiso   1.00
O1189  O     0.34422   0.84669   0.93130   0.00000  Uiso   1.00
O1190  O     0.36371   0.89896   0.88662   0.00000  Uiso   1.00
N1191  N     0.54389   0.90162   0.96101   0.00000  Uiso   1.00
O1192  O     0.58461   0.89656   0.94117   0.00000  Uiso   1.00
O1193  O     0.53267   0.93910   0.97333   0.00000  Uiso   1.00
N1194  N     0.45611   0.76504   0.70566   0.00000  Uiso   1.00
O1195  O     0.41540   0.77010   0.72550   0.00000  Uiso   1.00
O1196  O     0.46733   0.72757   0.69333   0.00000  Uiso   1.00
O1197  O     0.83333   0.77225   0.87154   0.00000  Uiso   1.00
O1198  O     0.83334   0.89442   0.79513   0.00000  Uiso   1.00
O1199  O     0.83333   0.77226   0.79510   0.00000  Uiso   1.00
O1200  O     0.83334   0.89441   0.87157   0.00000  Uiso   1.00
C1201  C     0.83310   0.75337   0.83312   0.00000  Uiso   1.00
C1202  C     0.83357   0.91330   0.83355   0.00000  Uiso   1.00
O1203  O     0.75725   0.83333   0.86261   0.00000  Uiso   1.00
O1204  O     0.90942   0.83334   0.80405   0.00000  Uiso   1.00
O1205  O     0.75725   0.83334   0.78617   0.00000  Uiso   1.00
O1206  O     0.90942   0.83333   0.88050   0.00000  Uiso   1.00
C1207  C     0.73387   0.83366   0.82144   0.00000  Uiso   1.00
C1208  C     0.93280   0.83301   0.84523   0.00000  Uiso   1.00
Zn1209 Zn    0.83333   0.83333   0.88437   0.00000  Uiso   1.00
Zn1210 Zn    0.83333   0.83334   0.78229   0.00000  Uiso   1.00
N1211  N     0.83332   0.83332   0.95240   0.00000  Uiso   1.00
N1212  N     0.83335   0.83334   0.71427   0.00000  Uiso   1.00
C1213  C     0.67928   0.82824   0.81570   0.00000  Uiso   1.00
C1214  C     0.98739   0.83843   0.85097   0.00000  Uiso   1.00
C1215  C     0.85310   0.68789   0.79855   0.00000  Uiso   1.00
C1216  C     0.81357   0.97877   0.86812   0.00000  Uiso   1.00
H1217  H     0.86914   0.70423   0.77199   0.00000  Uiso   1.00
H1218  H     0.79752   0.96244   0.89468   0.00000  Uiso   1.00
C1219  C     0.85353   0.97846   0.79890   0.00000  Uiso   1.00
C1220  C     0.81314   0.68821   0.86777   0.00000  Uiso   1.00
H1221  H     0.86964   0.96189   0.77239   0.00000  Uiso   1.00
H1222  H     0.79702   0.70478   0.89428   0.00000  Uiso   1.00
C1223  C     0.83377   0.95747   0.83370   0.00000  Uiso   1.00
C1224  C     0.83290   0.70920   0.83297   0.00000  Uiso   1.00
C1225  C     0.85381   0.86620   0.69417   0.00000  Uiso   1.00
C1226  C     0.81285   0.80047   0.97249   0.00000  Uiso   1.00
H1227  H     0.87069   0.89222   0.71520   0.00000  Uiso   1.00
H1228  H     0.79598   0.77444   0.95147   0.00000  Uiso   1.00
C1229  C     0.85418   0.86641   0.97980   0.00000  Uiso   1.00
C1230  C     0.81249   0.80026   0.68687   0.00000  Uiso   1.00
N1231  N     0.98849   0.80505   0.77588   0.00000  Uiso   1.00
O1232  O     0.98912   0.81997   0.73536   0.00000  Uiso   1.00
O1233  O     0.96961   0.76771   0.78006   0.00000  Uiso   1.00
N1234  N     0.67818   0.86162   0.89079   0.00000  Uiso   1.00
O1235  O     0.67756   0.84669   0.93130   0.00000  Uiso   1.00
O1236  O     0.69704   0.89896   0.88662   0.00000  Uiso   1.00
N1237  N     0.87722   0.90162   0.96101   0.00000  Uiso   1.00
O1238  O     0.91794   0.89656   0.94117   0.00000  Uiso   1.00
O1239  O     0.86600   0.93910   0.97333   0.00000  Uiso   1.00
N1240  N     0.78944   0.76504   0.70566   0.00000  Uiso   1.00
O1241  O     0.74873   0.77010   0.72550   0.00000  Uiso   1.00
O1242  O     0.80067   0.72757   0.69333   0.00000  Uiso   1.00
loop_
_geom_bond_atom_site_label_1
_geom_bond_atom_site_label_2
_geom_bond_distance
_geom_bond_site_symmetry_2
_ccdc_geom_bond_type
O1     C5      1.284   .     A
O1     Zn13    1.990   .     S
O2     C6      1.284   .     A
O2     Zn14    1.990   .     S
O3     Zn14    1.998   .     S
O3     C5      1.287   .     A
O4     C6      1.287   .     A
O4     Zn13    1.998   .     S
C5     C28     1.415   .     S
C6     C27     1.415   .     S
O7     C11     1.277   .     A
O7     Zn13    1.981   .     S
O8     C12     1.277   .     A
O8     Zn14    1.981   .     S
O9     Zn14    1.997   .     S
O9     C11     1.289   .     A
O10    C12     1.289   .     A
O10    Zn13    1.997   .     S
C11    C17     1.409   .     S
C12    C18     1.409   .     S
Zn13   N15     2.019   .     S
Zn14   N16     2.019   .     S
N15    C30     1.358   .     A
N15    C33     1.381   .     A
N16    C34     1.381   .     A
N16    C29     1.358   .     A
C17    C110    1.357   1_455 S
C17    N127    1.442   1_455 S
C18    C63     1.357   .     S
C18    N84     1.442   .     S
C19    C28     1.395   .     A
C19    H21     1.084   .     S
C19    C299    1.371   1_545 S
C20    C27     1.395   .     A
C20    H22     1.084   .     S
C20    C162    1.371   .     S
C23    C27     1.398   .     A
C23    H25     1.084   .     S
C23    C157    1.371   .     S
C24    H26     1.084   .     S
C24    C28     1.398   .     A
C24    C296    1.371   1_545 S
C29    H31     1.082   .     S
C29    C861    1.417   1_554 S
C30    H32     1.082   .     S
C30    C448    1.417   .     S
C33    N41     1.429   .     S
C33    C443    1.417   .     S
C34    N44     1.429   .     S
C34    C858    1.417   1_554 S
N35    O36     1.301   .     A
N35    O37     1.302   .     A
N35    C63     1.442   .     S
N38    O40     1.302   .     A
N38    O39     1.301   .     A
N38    C110    1.442   1_455 S
N41    O43     1.301   .     A
N41    O42     1.299   .     A
N44    O45     1.299   .     A
N44    O46     1.301   .     A
O47    C51     1.284   .     A
O47    Zn59    1.990   .     S
O48    C52     1.284   .     A
O48    Zn60    1.990   .     S
O49    Zn60    1.998   .     S
O49    C51     1.287   .     A
O50    C52     1.287   .     A
O50    Zn59    1.998   .     S
C51    C74     1.415   .     S
C52    C73     1.415   .     S
O53    C57     1.277   .     A
O53    Zn59    1.981   .     S
O54    C58     1.277   .     A
O54    Zn60    1.981   .     S
O55    Zn60    1.997   .     S
O55    C57     1.289   .     A
O56    C58     1.289   .     A
O56    Zn59    1.997   .     S
C57    C63     1.409   .     S
C58    C64     1.409   .     S
Zn59   N61     2.019   .     S
Zn60   N62     2.019   .     S
N61    C76     1.358   .     A
N61    C79     1.381   .     A
N62    C80     1.381   .     A
N62    C75     1.358   .     A
C64    C109    1.357   .     S
C64    N130    1.442   .     S
C65    C74     1.395   .     A
C65    H67     1.084   .     S
C65    C345    1.371   1_545 S
C66    C73     1.395   .     A
C66    H68     1.084   .     S
C66    C208    1.371   .     S
C69    C73     1.398   .     A
C69    H71     1.084   .     S
C69    C203    1.371   .     S
C70    H72     1.084   .     S
C70    C74     1.398   .     A
C70    C342    1.371   1_545 S
C75    H77     1.082   .     S
C75    C907    1.417   1_554 S
C76    H78     1.082   .     S
C76    C494    1.417   .     S
C79    N87     1.429   .     S
C79    C489    1.417   .     S
C80    N90     1.429   .     S
C80    C904    1.417   1_554 S
N81    O82     1.301   .     A
N81    O83     1.302   .     A
N81    C109    1.442   .     S
N84    O86     1.302   .     A
N84    O85     1.301   .     A
N87    O89     1.301   .     A
N87    O88     1.299   .     A
N90    O91     1.299   .     A
N90    O92     1.301   .     A
O93    C97     1.284   .     A
O93    Zn105   1.990   .     S
O94    C98     1.284   .     A
O94    Zn106   1.990   .     S
O95    Zn106   1.998   .     S
O95    C97     1.287   .     A
O96    C98     1.287   .     A
O96    Zn105   1.998   .     S
C97    C120    1.415   .     S
C98    C119    1.415   .     S
O99    C103    1.277   .     A
O99    Zn105   1.981   .     S
O100   C104    1.277   .     A
O100   Zn106   1.981   .     S
O101   Zn106   1.997   .     S
O101   C103    1.289   .     A
O102   C104    1.289   .     A
O102   Zn105   1.997   .     S
C103   C109    1.409   .     S
C104   C110    1.409   .     S
Zn105  N107    2.019   .     S
Zn106  N108    2.019   .     S
N107   C122    1.358   .     A
N107   C125    1.381   .     A
N108   C126    1.381   .     A
N108   C121    1.358   .     A
C110   C17     1.357   1_655 S
C110   N38     1.442   1_655 S
C111   C120    1.395   .     A
C111   H113    1.084   .     S
C111   C391    1.371   1_545 S
C112   C119    1.395   .     A
C112   H114    1.084   .     S
C112   C254    1.371   .     S
C115   C119    1.398   .     A
C115   H117    1.084   .     S
C115   C249    1.371   .     S
C116   H118    1.084   .     S
C116   C120    1.398   .     A
C116   C388    1.371   1_545 S
C121   H123    1.082   .     S
C121   C953    1.417   1_554 S
C122   H124    1.082   .     S
C122   C540    1.417   .     S
C125   N133    1.429   .     S
C125   C535    1.417   .     S
C126   N136    1.429   .     S
C126   C950    1.417   1_554 S
N127   O128    1.301   .     A
N127   O129    1.302   .     A
N127   C17     1.442   1_655 S
N130   O132    1.302   .     A
N130   O131    1.301   .     A
N133   O135    1.301   .     A
N133   O134    1.299   .     A
N136   O137    1.299   .     A
N136   O138    1.301   .     A
O139   C143    1.284   .     A
O139   Zn151   1.990   .     S
O140   C144    1.284   .     A
O140   Zn152   1.990   .     S
O141   Zn152   1.998   .     S
O141   C143    1.287   .     A
O142   C144    1.287   .     A
O142   Zn151   1.998   .     S
C143   C166    1.415   .     S
C144   C165    1.415   .     S
O145   C149    1.277   .     A
O145   Zn151   1.981   .     S
O146   C150    1.277   .     A
O146   Zn152   1.981   .     S
O147   Zn152   1.997   .     S
O147   C149    1.289   .     A
O148   C150    1.289   .     A
O148   Zn151   1.997   .     S
C149   C155    1.409   .     S
C150   C156    1.409   .     S
Zn151  N153    2.019   .     S
Zn152  N154    2.019   .     S
N153   C168    1.358   .     A
N153   C171    1.381   .     A
N154   C172    1.381   .     A
N154   C167    1.358   .     A
C155   C248    1.357   1_455 S
C155   N265    1.442   1_455 S
C156   C201    1.357   .     S
C156   N222    1.442   .     S
C157   C166    1.395   .     A
C157   H159    1.084   .     S
C158   C165    1.395   .     A
C158   H160    1.084   .     S
C158   C300    1.371   .     S
C161   C165    1.398   .     A
C161   H163    1.084   .     S
C161   C295    1.371   .     S
C162   H164    1.084   .     S
C162   C166    1.398   .     A
C167   H169    1.082   .     S
C167   C999    1.417   1_554 S
C168   H170    1.082   .     S
C168   C586    1.417   .     S
C171   N179    1.429   .     S
C171   C581    1.417   .     S
C172   N182    1.429   .     S
C172   C996    1.417   1_554 S
N173   O174    1.301   .     A
N173   O175    1.302   .     A
N173   C201    1.442   .     S
N176   O178    1.302   .     A
N176   O177    1.301   .     A
N176   C248    1.442   1_455 S
N179   O181    1.301   .     A
N179   O180    1.299   .     A
N182   O183    1.299   .     A
N182   O184    1.301   .     A
O185   C189    1.284   .     A
O185   Zn197   1.990   .     S
O186   C190    1.284   .     A
O186   Zn198   1.990   .     S
O187   Zn198   1.998   .     S
O187   C189    1.287   .     A
O188   C190    1.287   .     A
O188   Zn197   1.998   .     S
C189   C212    1.415   .     S
C190   C211    1.415   .     S
O191   C195    1.277   .     A
O191   Zn197   1.981   .     S
O192   C196    1.277   .     A
O192   Zn198   1.981   .     S
O193   Zn198   1.997   .     S
O193   C195    1.289   .     A
O194   C196    1.289   .     A
O194   Zn197   1.997   .     S
C195   C201    1.409   .     S
C196   C202    1.409   .     S
Zn197  N199    2.019   .     S
Zn198  N200    2.019   .     S
N199   C214    1.358   .     A
N199   C217    1.381   .     A
N200   C218    1.381   .     A
N200   C213    1.358   .     A
C202   C247    1.357   .     S
C202   N268    1.442   .     S
C203   C212    1.395   .     A
C203   H205    1.084   .     S
C204   C211    1.395   .     A
C204   H206    1.084   .     S
C204   C346    1.371   .     S
C207   C211    1.398   .     A
C207   H209    1.084   .     S
C207   C341    1.371   .     S
C208   H210    1.084   .     S
C208   C212    1.398   .     A
C213   H215    1.082   .     S
C213   C1045   1.417   1_554 S
C214   H216    1.082   .     S
C214   C632    1.417   .     S
C217   N225    1.429   .     S
C217   C627    1.417   .     S
C218   N228    1.429   .     S
C218   C1042   1.417   1_554 S
N219   O220    1.301   .     A
N219   O221    1.302   .     A
N219   C247    1.442   .     S
N222   O224    1.302   .     A
N222   O223    1.301   .     A
N225   O227    1.301   .     A
N225   O226    1.299   .     A
N228   O229    1.299   .     A
N228   O230    1.301   .     A
O231   C235    1.284   .     A
O231   Zn243   1.990   .     S
O232   C236    1.284   .     A
O232   Zn244   1.990   .     S
O233   Zn244   1.998   .     S
O233   C235    1.287   .     A
O234   C236    1.287   .     A
O234   Zn243   1.998   .     S
C235   C258    1.415   .     S
C236   C257    1.415   .     S
O237   C241    1.277   .     A
O237   Zn243   1.981   .     S
O238   C242    1.277   .     A
O238   Zn244   1.981   .     S
O239   Zn244   1.997   .     S
O239   C241    1.289   .     A
O240   C242    1.289   .     A
O240   Zn243   1.997   .     S
C241   C247    1.409   .     S
C242   C248    1.409   .     S
Zn243  N245    2.019   .     S
Zn244  N246    2.019   .     S
N245   C260    1.358   .     A
N245   C263    1.381   .     A
N246   C264    1.381   .     A
N246   C259    1.358   .     A
C248   C155    1.357   1_655 S
C248   N176    1.442   1_655 S
C249   C258    1.395   .     A
C249   H251    1.084   .     S
C250   C257    1.395   .     A
C250   H252    1.084   .     S
C250   C392    1.371   .     S
C253   C257    1.398   .     A
C253   H255    1.084   .     S
C253   C387    1.371   .     S
C254   H256    1.084   .     S
C254   C258    1.398   .     A
C259   H261    1.082   .     S
C259   C1091   1.417   1_554 S
C260   H262    1.082   .     S
C260   C678    1.417   .     S
C263   N271    1.429   .     S
C263   C673    1.417   .     S
C264   N274    1.429   .     S
C264   C1088   1.417   1_554 S
N265   O266    1.301   .     A
N265   O267    1.302   .     A
N265   C155    1.442   1_655 S
N268   O270    1.302   .     A
N268   O269    1.301   .     A
N271   O273    1.301   .     A
N271   O272    1.299   .     A
N274   O275    1.299   .     A
N274   O276    1.301   .     A
O277   C281    1.284   .     A
O277   Zn289   1.990   .     S
O278   C282    1.284   .     A
O278   Zn290   1.990   .     S
O279   Zn290   1.998   .     S
O279   C281    1.287   .     A
O280   C282    1.287   .     A
O280   Zn289   1.998   .     S
C281   C304    1.415   .     S
C282   C303    1.415   .     S
O283   C287    1.277   .     A
O283   Zn289   1.981   .     S
O284   C288    1.277   .     A
O284   Zn290   1.981   .     S
O285   Zn290   1.997   .     S
O285   C287    1.289   .     A
O286   C288    1.289   .     A
O286   Zn289   1.997   .     S
C287   C293    1.409   .     S
C288   C294    1.409   .     S
Zn289  N291    2.019   .     S
Zn290  N292    2.019   .     S
N291   C306    1.358   .     A
N291   C309    1.381   .     A
N292   C310    1.381   .     A
N292   C305    1.358   .     A
C293   C386    1.357   1_455 S
C293   N403    1.442   1_455 S
C294   C339    1.357   .     S
C294   N360    1.442   .     S
C295   C304    1.395   .     A
C295   H297    1.084   .     S
C296   C303    1.395   .     A
C296   H298    1.084   .     S
C296   C24     1.371   1_565 S
C299   C303    1.398   .     A
C299   H301    1.084   .     S
C299   C19     1.371   1_565 S
C300   H302    1.084   .     S
C300   C304    1.398   .     A
C305   H307    1.082   .     S
C305   C1137   1.417   1_554 S
C306   H308    1.082   .     S
C306   C724    1.417   .     S
C309   N317    1.429   .     S
C309   C719    1.417   .     S
C310   N320    1.429   .     S
C310   C1134   1.417   1_554 S
N311   O312    1.301   .     A
N311   O313    1.302   .     A
N311   C339    1.442   .     S
N314   O316    1.302   .     A
N314   O315    1.301   .     A
N314   C386    1.442   1_455 S
N317   O319    1.301   .     A
N317   O318    1.299   .     A
N320   O321    1.299   .     A
N320   O322    1.301   .     A
O323   C327    1.284   .     A
O323   Zn335   1.990   .     S
O324   C328    1.284   .     A
O324   Zn336   1.990   .     S
O325   Zn336   1.998   .     S
O325   C327    1.287   .     A
O326   C328    1.287   .     A
O326   Zn335   1.998   .     S
C327   C350    1.415   .     S
C328   C349    1.415   .     S
O329   C333    1.277   .     A
O329   Zn335   1.981   .     S
O330   C334    1.277   .     A
O330   Zn336   1.981   .     S
O331   Zn336   1.997   .     S
O331   C333    1.289   .     A
O332   C334    1.289   .     A
O332   Zn335   1.997   .     S
C333   C339    1.409   .     S
C334   C340    1.409   .     S
Zn335  N337    2.019   .     S
Zn336  N338    2.019   .     S
N337   C352    1.358   .     A
N337   C355    1.381   .     A
N338   C356    1.381   .     A
N338   C351    1.358   .     A
C340   C385    1.357   .     S
C340   N406    1.442   .     S
C341   C350    1.395   .     A
C341   H343    1.084   .     S
C342   C349    1.395   .     A
C342   H344    1.084   .     S
C342   C70     1.371   1_565 S
C345   C349    1.398   .     A
C345   H347    1.084   .     S
C345   C65     1.371   1_565 S
C346   H348    1.084   .     S
C346   C350    1.398   .     A
C351   H353    1.082   .     S
C351   C1183   1.417   1_554 S
C352   H354    1.082   .     S
C352   C770    1.417   .     S
C355   N363    1.429   .     S
C355   C765    1.417   .     S
C356   N366    1.429   .     S
C356   C1180   1.417   1_554 S
N357   O358    1.301   .     A
N357   O359    1.302   .     A
N357   C385    1.442   .     S
N360   O362    1.302   .     A
N360   O361    1.301   .     A
N363   O365    1.301   .     A
N363   O364    1.299   .     A
N366   O367    1.299   .     A
N366   O368    1.301   .     A
O369   C373    1.284   .     A
O369   Zn381   1.990   .     S
O370   C374    1.284   .     A
O370   Zn382   1.990   .     S
O371   Zn382   1.998   .     S
O371   C373    1.287   .     A
O372   C374    1.287   .     A
O372   Zn381   1.998   .     S
C373   C396    1.415   .     S
C374   C395    1.415   .     S
O375   C379    1.277   .     A
O375   Zn381   1.981   .     S
O376   C380    1.277   .     A
O376   Zn382   1.981   .     S
O377   Zn382   1.997   .     S
O377   C379    1.289   .     A
O378   C380    1.289   .     A
O378   Zn381   1.997   .     S
C379   C385    1.409   .     S
C380   C386    1.409   .     S
Zn381  N383    2.019   .     S
Zn382  N384    2.019   .     S
N383   C398    1.358   .     A
N383   C401    1.381   .     A
N384   C402    1.381   .     A
N384   C397    1.358   .     A
C386   C293    1.357   1_655 S
C386   N314    1.442   1_655 S
C387   C396    1.395   .     A
C387   H389    1.084   .     S
C388   C395    1.395   .     A
C388   H390    1.084   .     S
C388   C116    1.371   1_565 S
C391   C395    1.398   .     A
C391   H393    1.084   .     S
C391   C111    1.371   1_565 S
C392   H394    1.084   .     S
C392   C396    1.398   .     A
C397   H399    1.082   .     S
C397   C1229   1.417   1_554 S
C398   H400    1.082   .     S
C398   C816    1.417   .     S
C401   N409    1.429   .     S
C401   C811    1.417   .     S
C402   N412    1.429   .     S
C402   C1226   1.417   1_554 S
N403   O404    1.301   .     A
N403   O405    1.302   .     A
N403   C293    1.442   1_655 S
N406   O408    1.302   .     A
N406   O407    1.301   .     A
N409   O411    1.301   .     A
N409   O410    1.299   .     A
N412   O413    1.299   .     A
N412   O414    1.301   .     A
O415   C419    1.284   .     A
O415   Zn427   1.990   .     S
O416   C420    1.284   .     A
O416   Zn428   1.990   .     S
O417   Zn428   1.998   .     S
O417   C419    1.287   .     A
O418   C420    1.287   .     A
O418   Zn427   1.998   .     S
C419   C442    1.415   .     S
C420   C441    1.415   .     S
O421   C425    1.277   .     A
O421   Zn427   1.981   .     S
O422   C426    1.277   .     A
O422   Zn428   1.981   .     S
O423   Zn428   1.997   .     S
O423   C425    1.289   .     A
O424   C426    1.289   .     A
O424   Zn427   1.997   .     S
C425   C431    1.409   .     S
C426   C432    1.409   .     S
Zn427  N429    2.019   .     S
Zn428  N430    2.019   .     S
N429   C444    1.358   .     A
N429   C447    1.381   .     A
N430   C448    1.381   .     A
N430   C443    1.358   .     A
C431   C524    1.357   1_455 S
C431   N541    1.442   1_455 S
C432   C477    1.357   .     S
C432   N498    1.442   .     S
C433   C442    1.395   .     A
C433   H435    1.084   .     S
C433   C713    1.371   1_545 S
C434   C441    1.395   .     A
C434   H436    1.084   .     S
C434   C576    1.371   .     S
C437   C441    1.398   .     A
C437   H439    1.084   .     S
C437   C571    1.371   .     S
C438   H440    1.084   .     S
C438   C442    1.398   .     A
C438   C710    1.371   1_545 S
C443   H445    1.082   .     S
C444   H446    1.082   .     S
C444   C862    1.417   .     S
C447   N455    1.429   .     S
C447   C857    1.417   .     S
C448   N458    1.429   .     S
N449   O450    1.301   .     A
N449   O451    1.302   .     A
N449   C477    1.442   .     S
N452   O454    1.302   .     A
N452   O453    1.301   .     A
N452   C524    1.442   1_455 S
N455   O457    1.301   .     A
N455   O456    1.299   .     A
N458   O459    1.299   .     A
N458   O460    1.301   .     A
O461   C465    1.284   .     A
O461   Zn473   1.990   .     S
O462   C466    1.284   .     A
O462   Zn474   1.990   .     S
O463   Zn474   1.998   .     S
O463   C465    1.287   .     A
O464   C466    1.287   .     A
O464   Zn473   1.998   .     S
C465   C488    1.415   .     S
C466   C487    1.415   .     S
O467   C471    1.277   .     A
O467   Zn473   1.981   .     S
O468   C472    1.277   .     A
O468   Zn474   1.981   .     S
O469   Zn474   1.997   .     S
O469   C471    1.289   .     A
O470   C472    1.289   .     A
O470   Zn473   1.997   .     S
C471   C477    1.409   .     S
C472   C478    1.409   .     S
Zn473  N475    2.019   .     S
Zn474  N476    2.019   .     S
N475   C490    1.358   .     A
N475   C493    1.381   .     A
N476   C494    1.381   .     A
N476   C489    1.358   .     A
C478   C523    1.357   .     S
C478   N544    1.442   .     S
C479   C488    1.395   .     A
C479   H481    1.084   .     S
C479   C759    1.371   1_545 S
C480   C487    1.395   .     A
C480   H482    1.084   .     S
C480   C622    1.371   .     S
C483   C487    1.398   .     A
C483   H485    1.084   .     S
C483   C617    1.371   .     S
C484   H486    1.084   .     S
C484   C488    1.398   .     A
C484   C756    1.371   1_545 S
C489   H491    1.082   .     S
C490   H492    1.082   .     S
C490   C908    1.417   .     S
C493   N501    1.429   .     S
C493   C903    1.417   .     S
C494   N504    1.429   .     S
N495   O496    1.301   .     A
N495   O497    1.302   .     A
N495   C523    1.442   .     S
N498   O500    1.302   .     A
N498   O499    1.301   .     A
N501   O503    1.301   .     A
N501   O502    1.299   .     A
N504   O505    1.299   .     A
N504   O506    1.301   .     A
O507   C511    1.284   .     A
O507   Zn519   1.990   .     S
O508   C512    1.284   .     A
O508   Zn520   1.990   .     S
O509   Zn520   1.998   .     S
O509   C511    1.287   .     A
O510   C512    1.287   .     A
O510   Zn519   1.998   .     S
C511   C534    1.415   .     S
C512   C533    1.415   .     S
O513   C517    1.277   .     A
O513   Zn519   1.981   .     S
O514   C518    1.277   .     A
O514   Zn520   1.981   .     S
O515   Zn520   1.997   .     S
O515   C517    1.289   .     A
O516   C518    1.289   .     A
O516   Zn519   1.997   .     S
C517   C523    1.409   .     S
C518   C524    1.409   .     S
Zn519  N521    2.019   .     S
Zn520  N522    2.019   .     S
N521   C536    1.358   .     A
N521   C539    1.381   .     A
N522   C540    1.381   .     A
N522   C535    1.358   .     A
C524   C431    1.357   1_655 S
C524   N452    1.442   1_655 S
C525   C534    1.395   .     A
C525   H527    1.084   .     S
C525   C805    1.371   1_545 S
C526   C533    1.395   .     A
C526   H528    1.084   .     S
C526   C668    1.371   .     S
C529   C533    1.398   .     A
C529   H531    1.084   .     S
C529   C663    1.371   .     S
C530   H532    1.084   .     S
C530   C534    1.398   .     A
C530   C802    1.371   1_545 S
C535   H537    1.082   .     S
C536   H538    1.082   .     S
C536   C954    1.417   .     S
C539   N547    1.429   .     S
C539   C949    1.417   .     S
C540   N550    1.429   .     S
N541   O542    1.301   .     A
N541   O543    1.302   .     A
N541   C431    1.442   1_655 S
N544   O546    1.302   .     A
N544   O545    1.301   .     A
N547   O549    1.301   .     A
N547   O548    1.299   .     A
N550   O551    1.299   .     A
N550   O552    1.301   .     A
O553   C557    1.284   .     A
O553   Zn565   1.990   .     S
O554   C558    1.284   .     A
O554   Zn566   1.990   .     S
O555   Zn566   1.998   .     S
O555   C557    1.287   .     A
O556   C558    1.287   .     A
O556   Zn565   1.998   .     S
C557   C580    1.415   .     S
C558   C579    1.415   .     S
O559   C563    1.277   .     A
O559   Zn565   1.981   .     S
O560   C564    1.277   .     A
O560   Zn566   1.981   .     S
O561   Zn566   1.997   .     S
O561   C563    1.289   .     A
O562   C564    1.289   .     A
O562   Zn565   1.997   .     S
C563   C569    1.409   .     S
C564   C570    1.409   .     S
Zn565  N567    2.019   .     S
Zn566  N568    2.019   .     S
N567   C582    1.358   .     A
N567   C585    1.381   .     A
N568   C586    1.381   .     A
N568   C581    1.358   .     A
C569   C662    1.357   1_455 S
C569   N679    1.442   1_455 S
C570   C615    1.357   .     S
C570   N636    1.442   .     S
C571   C580    1.395   .     A
C571   H573    1.084   .     S
C572   C579    1.395   .     A
C572   H574    1.084   .     S
C572   C714    1.371   .     S
C575   C579    1.398   .     A
C575   H577    1.084   .     S
C575   C709    1.371   .     S
C576   H578    1.084   .     S
C576   C580    1.398   .     A
C581   H583    1.082   .     S
C582   H584    1.082   .     S
C582   C1000   1.417   .     S
C585   N593    1.429   .     S
C585   C995    1.417   .     S
C586   N596    1.429   .     S
N587   O588    1.301   .     A
N587   O589    1.302   .     A
N587   C615    1.442   .     S
N590   O592    1.302   .     A
N590   O591    1.301   .     A
N590   C662    1.442   1_455 S
N593   O595    1.301   .     A
N593   O594    1.299   .     A
N596   O597    1.299   .     A
N596   O598    1.301   .     A
O599   C603    1.284   .     A
O599   Zn611   1.990   .     S
O600   C604    1.284   .     A
O600   Zn612   1.990   .     S
O601   Zn612   1.998   .     S
O601   C603    1.287   .     A
O602   C604    1.287   .     A
O602   Zn611   1.998   .     S
C603   C626    1.415   .     S
C604   C625    1.415   .     S
O605   C609    1.277   .     A
O605   Zn611   1.981   .     S
O606   C610    1.277   .     A
O606   Zn612   1.981   .     S
O607   Zn612   1.997   .     S
O607   C609    1.289   .     A
O608   C610    1.289   .     A
O608   Zn611   1.997   .     S
C609   C615    1.409   .     S
C610   C616    1.409   .     S
Zn611  N613    2.019   .     S
Zn612  N614    2.019   .     S
N613   C628    1.358   .     A
N613   C631    1.381   .     A
N614   C632    1.381   .     A
N614   C627    1.358   .     A
C616   C661    1.357   .     S
C616   N682    1.442   .     S
C617   C626    1.395   .     A
C617   H619    1.084   .     S
C618   C625    1.395   .     A
C618   H620    1.084   .     S
C618   C760    1.371   .     S
C621   C625    1.398   .     A
C621   H623    1.084   .     S
C621   C755    1.371   .     S
C622   H624    1.084   .     S
C622   C626    1.398   .     A
C627   H629    1.082   .     S
C628   H630    1.082   .     S
C628   C1046   1.417   .     S
C631   N639    1.429   .     S
C631   C1041   1.417   .     S
C632   N642    1.429   .     S
N633   O634    1.301   .     A
N633   O635    1.302   .     A
N633   C661    1.442   .     S
N636   O638    1.302   .     A
N636   O637    1.301   .     A
N639   O641    1.301   .     A
N639   O640    1.299   .     A
N642   O643    1.299   .     A
N642   O644    1.301   .     A
O645   C649    1.284   .     A
O645   Zn657   1.990   .     S
O646   C650    1.284   .     A
O646   Zn658   1.990   .     S
O647   Zn658   1.998   .     S
O647   C649    1.287   .     A
O648   C650    1.287   .     A
O648   Zn657   1.998   .     S
C649   C672    1.415   .     S
C650   C671    1.415   .     S
O651   C655    1.277   .     A
O651   Zn657   1.981   .     S
O652   C656    1.277   .     A
O652   Zn658   1.981   .     S
O653   Zn658   1.997   .     S
O653   C655    1.289   .     A
O654   C656    1.289   .     A
O654   Zn657   1.997   .     S
C655   C661    1.409   .     S
C656   C662    1.409   .     S
Zn657  N659    2.019   .     S
Zn658  N660    2.019   .     S
N659   C674    1.358   .     A
N659   C677    1.381   .     A
N660   C678    1.381   .     A
N660   C673    1.358   .     A
C662   C569    1.357   1_655 S
C662   N590    1.442   1_655 S
C663   C672    1.395   .     A
C663   H665    1.084   .     S
C664   C671    1.395   .     A
C664   H666    1.084   .     S
C664   C806    1.371   .     S
C667   C671    1.398   .     A
C667   H669    1.084   .     S
C667   C801    1.371   .     S
C668   H670    1.084   .     S
C668   C672    1.398   .     A
C673   H675    1.082   .     S
C674   H676    1.082   .     S
C674   C1092   1.417   .     S
C677   N685    1.429   .     S
C677   C1087   1.417   .     S
C678   N688    1.429   .     S
N679   O680    1.301   .     A
N679   O681    1.302   .     A
N679   C569    1.442   1_655 S
N682   O684    1.302   .     A
N682   O683    1.301   .     A
N685   O687    1.301   .     A
N685   O686    1.299   .     A
N688   O689    1.299   .     A
N688   O690    1.301   .     A
O691   C695    1.284   .     A
O691   Zn703   1.990   .     S
O692   C696    1.284   .     A
O692   Zn704   1.990   .     S
O693   Zn704   1.998   .     S
O693   C695    1.287   .     A
O694   C696    1.287   .     A
O694   Zn703   1.998   .     S
C695   C718    1.415   .     S
C696   C717    1.415   .     S
O697   C701    1.277   .     A
O697   Zn703   1.981   .     S
O698   C702    1.277   .     A
O698   Zn704   1.981   .     S
O699   Zn704   1.997   .     S
O699   C701    1.289   .     A
O700   C702    1.289   .     A
O700   Zn703   1.997   .     S
C701   C707    1.409   .     S
C702   C708    1.409   .     S
Zn703  N705    2.019   .     S
Zn704  N706    2.019   .     S
N705   C720    1.358   .     A
N705   C723    1.381   .     A
N706   C724    1.381   .     A
N706   C719    1.358   .     A
C707   C800    1.357   1_455 S
C707   N817    1.442   1_455 S
C708   C753    1.357   .     S
C708   N774    1.442   .     S
C709   C718    1.395   .     A
C709   H711    1.084   .     S
C710   C717    1.395   .     A
C710   H712    1.084   .     S
C710   C438    1.371   1_565 S
C713   C717    1.398   .     A
C713   H715    1.084   .     S
C713   C433    1.371   1_565 S
C714   H716    1.084   .     S
C714   C718    1.398   .     A
C719   H721    1.082   .     S
C720   H722    1.082   .     S
C720   C1138   1.417   .     S
C723   N731    1.429   .     S
C723   C1133   1.417   .     S
C724   N734    1.429   .     S
N725   O726    1.301   .     A
N725   O727    1.302   .     A
N725   C753    1.442   .     S
N728   O730    1.302   .     A
N728   O729    1.301   .     A
N728   C800    1.442   1_455 S
N731   O733    1.301   .     A
N731   O732    1.299   .     A
N734   O735    1.299   .     A
N734   O736    1.301   .     A
O737   C741    1.284   .     A
O737   Zn749   1.990   .     S
O738   C742    1.284   .     A
O738   Zn750   1.990   .     S
O739   Zn750   1.998   .     S
O739   C741    1.287   .     A
O740   C742    1.287   .     A
O740   Zn749   1.998   .     S
C741   C764    1.415   .     S
C742   C763    1.415   .     S
O743   C747    1.277   .     A
O743   Zn749   1.981   .     S
O744   C748    1.277   .     A
O744   Zn750   1.981   .     S
O745   Zn750   1.997   .     S
O745   C747    1.289   .     A
O746   C748    1.289   .     A
O746   Zn749   1.997   .     S
C747   C753    1.409   .     S
C748   C754    1.409   .     S
Zn749  N751    2.019   .     S
Zn750  N752    2.019   .     S
N751   C766    1.358   .     A
N751   C769    1.381   .     A
N752   C770    1.381   .     A
N752   C765    1.358   .     A
C754   C799    1.357   .     S
C754   N820    1.442   .     S
C755   C764    1.395   .     A
C755   H757    1.084   .     S
C756   C763    1.395   .     A
C756   H758    1.084   .     S
C756   C484    1.371   1_565 S
C759   C763    1.398   .     A
C759   H761    1.084   .     S
C759   C479    1.371   1_565 S
C760   H762    1.084   .     S
C760   C764    1.398   .     A
C765   H767    1.082   .     S
C766   H768    1.082   .     S
C766   C1184   1.417   .     S
C769   N777    1.429   .     S
C769   C1179   1.417   .     S
C770   N780    1.429   .     S
N771   O772    1.301   .     A
N771   O773    1.302   .     A
N771   C799    1.442   .     S
N774   O776    1.302   .     A
N774   O775    1.301   .     A
N777   O779    1.301   .     A
N777   O778    1.299   .     A
N780   O781    1.299   .     A
N780   O782    1.301   .     A
O783   C787    1.284   .     A
O783   Zn795   1.990   .     S
O784   C788    1.284   .     A
O784   Zn796   1.990   .     S
O785   Zn796   1.998   .     S
O785   C787    1.287   .     A
O786   C788    1.287   .     A
O786   Zn795   1.998   .     S
C787   C810    1.415   .     S
C788   C809    1.415   .     S
O789   C793    1.277   .     A
O789   Zn795   1.981   .     S
O790   C794    1.277   .     A
O790   Zn796   1.981   .     S
O791   Zn796   1.997   .     S
O791   C793    1.289   .     A
O792   C794    1.289   .     A
O792   Zn795   1.997   .     S
C793   C799    1.409   .     S
C794   C800    1.409   .     S
Zn795  N797    2.019   .     S
Zn796  N798    2.019   .     S
N797   C812    1.358   .     A
N797   C815    1.381   .     A
N798   C816    1.381   .     A
N798   C811    1.358   .     A
C800   C707    1.357   1_655 S
C800   N728    1.442   1_655 S
C801   C810    1.395   .     A
C801   H803    1.084   .     S
C802   C809    1.395   .     A
C802   H804    1.084   .     S
C802   C530    1.371   1_565 S
C805   C809    1.398   .     A
C805   H807    1.084   .     S
C805   C525    1.371   1_565 S
C806   H808    1.084   .     S
C806   C810    1.398   .     A
C811   H813    1.082   .     S
C812   H814    1.082   .     S
C812   C1230   1.417   .     S
C815   N823    1.429   .     S
C815   C1225   1.417   .     S
C816   N826    1.429   .     S
N817   O818    1.301   .     A
N817   O819    1.302   .     A
N817   C707    1.442   1_655 S
N820   O822    1.302   .     A
N820   O821    1.301   .     A
N823   O825    1.301   .     A
N823   O824    1.299   .     A
N826   O827    1.299   .     A
N826   O828    1.301   .     A
O829   C833    1.284   .     A
O829   Zn841   1.990   .     S
O830   C834    1.284   .     A
O830   Zn842   1.990   .     S
O831   Zn842   1.998   .     S
O831   C833    1.287   .     A
O832   C834    1.287   .     A
O832   Zn841   1.998   .     S
C833   C856    1.415   .     S
C834   C855    1.415   .     S
O835   C839    1.277   .     A
O835   Zn841   1.981   .     S
O836   C840    1.277   .     A
O836   Zn842   1.981   .     S
O837   Zn842   1.997   .     S
O837   C839    1.289   .     A
O838   C840    1.289   .     A
O838   Zn841   1.997   .     S
C839   C845    1.409   .     S
C840   C846    1.409   .     S
Zn841  N843    2.019   .     S
Zn842  N844    2.019   .     S
N843   C858    1.358   .     A
N843   C861    1.381   .     A
N844   C862    1.381   .     A
N844   C857    1.358   .     A
C845   C938    1.357   1_455 S
C845   N955    1.442   1_455 S
C846   C891    1.357   .     S
C846   N912    1.442   .     S
C847   C856    1.395   .     A
C847   H849    1.084   .     S
C847   C1127   1.371   1_545 S
C848   C855    1.395   .     A
C848   H850    1.084   .     S
C848   C990    1.371   .     S
C851   C855    1.398   .     A
C851   H853    1.084   .     S
C851   C985    1.371   .     S
C852   H854    1.084   .     S
C852   C856    1.398   .     A
C852   C1124   1.371   1_545 S
C857   H859    1.082   .     S
C858   H860    1.082   .     S
C858   C34     1.417   1_556 S
C861   N869    1.429   .     S
C861   C29     1.417   1_556 S
C862   N872    1.429   .     S
N863   O864    1.301   .     A
N863   O865    1.302   .     A
N863   C891    1.442   .     S
N866   O868    1.302   .     A
N866   O867    1.301   .     A
N866   C938    1.442   1_455 S
N869   O871    1.301   .     A
N869   O870    1.299   .     A
N872   O873    1.299   .     A
N872   O874    1.301   .     A
O875   C879    1.284   .     A
O875   Zn887   1.990   .     S
O876   C880    1.284   .     A
O876   Zn888   1.990   .     S
O877   Zn888   1.998   .     S
O877   C879    1.287   .     A
O878   C880    1.287   .     A
O878   Zn887   1.998   .     S
C879   C902    1.415   .     S
C880   C901    1.415   .     S
O881   C885    1.277   .     A
O881   Zn887   1.981   .     S
O882   C886    1.277   .     A
O882   Zn888   1.981   .     S
O883   Zn888   1.997   .     S
O883   C885    1.289   .     A
O884   C886    1.289   .     A
O884   Zn887   1.997   .     S
C885   C891    1.409   .     S
C886   C892    1.409   .     S
Zn887  N889    2.019   .     S
Zn888  N890    2.019   .     S
N889   C904    1.358   .     A
N889   C907    1.381   .     A
N890   C908    1.381   .     A
N890   C903    1.358   .     A
C892   C937    1.357   .     S
C892   N958    1.442   .     S
C893   C902    1.395   .     A
C893   H895    1.084   .     S
C893   C1173   1.371   1_545 S
C894   C901    1.395   .     A
C894   H896    1.084   .     S
C894   C1036   1.371   .     S
C897   C901    1.398   .     A
C897   H899    1.084   .     S
C897   C1031   1.371   .     S
C898   H900    1.084   .     S
C898   C902    1.398   .     A
C898   C1170   1.371   1_545 S
C903   H905    1.082   .     S
C904   H906    1.082   .     S
C904   C80     1.417   1_556 S
C907   N915    1.429   .     S
C907   C75     1.417   1_556 S
C908   N918    1.429   .     S
N909   O910    1.301   .     A
N909   O911    1.302   .     A
N909   C937    1.442   .     S
N912   O914    1.302   .     A
N912   O913    1.301   .     A
N915   O917    1.301   .     A
N915   O916    1.299   .     A
N918   O919    1.299   .     A
N918   O920    1.301   .     A
O921   C925    1.284   .     A
O921   Zn933   1.990   .     S
O922   C926    1.284   .     A
O922   Zn934   1.990   .     S
O923   Zn934   1.998   .     S
O923   C925    1.287   .     A
O924   C926    1.287   .     A
O924   Zn933   1.998   .     S
C925   C948    1.415   .     S
C926   C947    1.415   .     S
O927   C931    1.277   .     A
O927   Zn933   1.981   .     S
O928   C932    1.277   .     A
O928   Zn934   1.981   .     S
O929   Zn934   1.997   .     S
O929   C931    1.289   .     A
O930   C932    1.289   .     A
O930   Zn933   1.997   .     S
C931   C937    1.409   .     S
C932   C938    1.409   .     S
Zn933  N935    2.019   .     S
Zn934  N936    2.019   .     S
N935   C950    1.358   .     A
N935   C953    1.381   .     A
N936   C954    1.381   .     A
N936   C949    1.358   .     A
C938   C845    1.357   1_655 S
C938   N866    1.442   1_655 S
C939   C948    1.395   .     A
C939   H941    1.084   .     S
C939   C1219   1.371   1_545 S
C940   C947    1.395   .     A
C940   H942    1.084   .     S
C940   C1082   1.371   .     S
C943   C947    1.398   .     A
C943   H945    1.084   .     S
C943   C1077   1.371   .     S
C944   H946    1.084   .     S
C944   C948    1.398   .     A
C944   C1216   1.371   1_545 S
C949   H951    1.082   .     S
C950   H952    1.082   .     S
C950   C126    1.417   1_556 S
C953   N961    1.429   .     S
C953   C121    1.417   1_556 S
C954   N964    1.429   .     S
N955   O956    1.301   .     A
N955   O957    1.302   .     A
N955   C845    1.442   1_655 S
N958   O960    1.302   .     A
N958   O959    1.301   .     A
N961   O963    1.301   .     A
N961   O962    1.299   .     A
N964   O965    1.299   .     A
N964   O966    1.301   .     A
O967   C971    1.284   .     A
O967   Zn979   1.990   .     S
O968   C972    1.284   .     A
O968   Zn980   1.990   .     S
O969   Zn980   1.998   .     S
O969   C971    1.287   .     A
O970   C972    1.287   .     A
O970   Zn979   1.998   .     S
C971   C994    1.415   .     S
C972   C993    1.415   .     S
O973   C977    1.277   .     A
O973   Zn979   1.981   .     S
O974   C978    1.277   .     A
O974   Zn980   1.981   .     S
O975   Zn980   1.997   .     S
O975   C977    1.289   .     A
O976   C978    1.289   .     A
O976   Zn979   1.997   .     S
C977   C983    1.409   .     S
C978   C984    1.409   .     S
Zn979  N981    2.019   .     S
Zn980  N982    2.019   .     S
N981   C996    1.358   .     A
N981   C999    1.381   .     A
N982   C1000   1.381   .     A
N982   C995    1.358   .     A
C983   C1076   1.357   1_455 S
C983   N1093   1.442   1_455 S
C984   C1029   1.357   .     S
C984   N1050   1.442   .     S
C985   C994    1.395   .     A
C985   H987    1.084   .     S
C986   C993    1.395   .     A
C986   H988    1.084   .     S
C986   C1128   1.371   .     S
C989   C993    1.398   .     A
C989   H991    1.084   .     S
C989   C1123   1.371   .     S
C990   H992    1.084   .     S
C990   C994    1.398   .     A
C995   H997    1.082   .     S
C996   H998    1.082   .     S
C996   C172    1.417   1_556 S
C999   N1007   1.429   .     S
C999   C167    1.417   1_556 S
C1000  N1010   1.429   .     S
N1001  O1002   1.301   .     A
N1001  O1003   1.302   .     A
N1001  C1029   1.442   .     S
N1004  O1006   1.302   .     A
N1004  O1005   1.301   .     A
N1004  C1076   1.442   1_455 S
N1007  O1009   1.301   .     A
N1007  O1008   1.299   .     A
N1010  O1011   1.299   .     A
N1010  O1012   1.301   .     A
O1013  C1017   1.284   .     A
O1013  Zn1025  1.990   .     S
O1014  C1018   1.284   .     A
O1014  Zn1026  1.990   .     S
O1015  Zn1026  1.998   .     S
O1015  C1017   1.287   .     A
O1016  C1018   1.287   .     A
O1016  Zn1025  1.998   .     S
C1017  C1040   1.415   .     S
C1018  C1039   1.415   .     S
O1019  C1023   1.277   .     A
O1019  Zn1025  1.981   .     S
O1020  C1024   1.277   .     A
O1020  Zn1026  1.981   .     S
O1021  Zn1026  1.997   .     S
O1021  C1023   1.289   .     A
O1022  C1024   1.289   .     A
O1022  Zn1025  1.997   .     S
C1023  C1029   1.409   .     S
C1024  C1030   1.409   .     S
Zn1025 N1027   2.019   .     S
Zn1026 N1028   2.019   .     S
N1027  C1042   1.358   .     A
N1027  C1045   1.381   .     A
N1028  C1046   1.381   .     A
N1028  C1041   1.358   .     A
C1030  C1075   1.357   .     S
C1030  N1096   1.442   .     S
C1031  C1040   1.395   .     A
C1031  H1033   1.084   .     S
C1032  C1039   1.395   .     A
C1032  H1034   1.084   .     S
C1032  C1174   1.371   .     S
C1035  C1039   1.398   .     A
C1035  H1037   1.084   .     S
C1035  C1169   1.371   .     S
C1036  H1038   1.084   .     S
C1036  C1040   1.398   .     A
C1041  H1043   1.082   .     S
C1042  H1044   1.082   .     S
C1042  C218    1.417   1_556 S
C1045  N1053   1.429   .     S
C1045  C213    1.417   1_556 S
C1046  N1056   1.429   .     S
N1047  O1048   1.301   .     A
N1047  O1049   1.302   .     A
N1047  C1075   1.442   .     S
N1050  O1052   1.302   .     A
N1050  O1051   1.301   .     A
N1053  O1055   1.301   .     A
N1053  O1054   1.299   .     A
N1056  O1057   1.299   .     A
N1056  O1058   1.301   .     A
O1059  C1063   1.284   .     A
O1059  Zn1071  1.990   .     S
O1060  C1064   1.284   .     A
O1060  Zn1072  1.990   .     S
O1061  Zn1072  1.998   .     S
O1061  C1063   1.287   .     A
O1062  C1064   1.287   .     A
O1062  Zn1071  1.998   .     S
C1063  C1086   1.415   .     S
C1064  C1085   1.415   .     S
O1065  C1069   1.277   .     A
O1065  Zn1071  1.981   .     S
O1066  C1070   1.277   .     A
O1066  Zn1072  1.981   .     S
O1067  Zn1072  1.997   .     S
O1067  C1069   1.289   .     A
O1068  C1070   1.289   .     A
O1068  Zn1071  1.997   .     S
C1069  C1075   1.409   .     S
C1070  C1076   1.409   .     S
Zn1071 N1073   2.019   .     S
Zn1072 N1074   2.019   .     S
N1073  C1088   1.358   .     A
N1073  C1091   1.381   .     A
N1074  C1092   1.381   .     A
N1074  C1087   1.358   .     A
C1076  C983    1.357   1_655 S
C1076  N1004   1.442   1_655 S
C1077  C1086   1.395   .     A
C1077  H1079   1.084   .     S
C1078  C1085   1.395   .     A
C1078  H1080   1.084   .     S
C1078  C1220   1.371   .     S
C1081  C1085   1.398   .     A
C1081  H1083   1.084   .     S
C1081  C1215   1.371   .     S
C1082  H1084   1.084   .     S
C1082  C1086   1.398   .     A
C1087  H1089   1.082   .     S
C1088  H1090   1.082   .     S
C1088  C264    1.417   1_556 S
C1091  N1099   1.429   .     S
C1091  C259    1.417   1_556 S
C1092  N1102   1.429   .     S
N1093  O1094   1.301   .     A
N1093  O1095   1.302   .     A
N1093  C983    1.442   1_655 S
N1096  O1098   1.302   .     A
N1096  O1097   1.301   .     A
N1099  O1101   1.301   .     A
N1099  O1100   1.299   .     A
N1102  O1103   1.299   .     A
N1102  O1104   1.301   .     A
O1105  C1109   1.284   .     A
O1105  Zn1117  1.990   .     S
O1106  C1110   1.284   .     A
O1106  Zn1118  1.990   .     S
O1107  Zn1118  1.998   .     S
O1107  C1109   1.287   .     A
O1108  C1110   1.287   .     A
O1108  Zn1117  1.998   .     S
C1109  C1132   1.415   .     S
C1110  C1131   1.415   .     S
O1111  C1115   1.277   .     A
O1111  Zn1117  1.981   .     S
O1112  C1116   1.277   .     A
O1112  Zn1118  1.981   .     S
O1113  Zn1118  1.997   .     S
O1113  C1115   1.289   .     A
O1114  C1116   1.289   .     A
O1114  Zn1117  1.997   .     S
C1115  C1121   1.409   .     S
C1116  C1122   1.409   .     S
Zn1117 N1119   2.019   .     S
Zn1118 N1120   2.019   .     S
N1119  C1134   1.358   .     A
N1119  C1137   1.381   .     A
N1120  C1138   1.381   .     A
N1120  C1133   1.358   .     A
C1121  C1214   1.357   1_455 S
C1121  N1231   1.442   1_455 S
C1122  C1167   1.357   .     S
C1122  N1188   1.442   .     S
C1123  C1132   1.395   .     A
C1123  H1125   1.084   .     S
C1124  C1131   1.395   .     A
C1124  H1126   1.084   .     S
C1124  C852    1.371   1_565 S
C1127  C1131   1.398   .     A
C1127  H1129   1.084   .     S
C1127  C847    1.371   1_565 S
C1128  H1130   1.084   .     S
C1128  C1132   1.398   .     A
C1133  H1135   1.082   .     S
C1134  H1136   1.082   .     S
C1134  C310    1.417   1_556 S
C1137  N1145   1.429   .     S
C1137  C305    1.417   1_556 S
C1138  N1148   1.429   .     S
N1139  O1140   1.301   .     A
N1139  O1141   1.302   .     A
N1139  C1167   1.442   .     S
N1142  O1144   1.302   .     A
N1142  O1143   1.301   .     A
N1142  C1214   1.442   1_455 S
N1145  O1147   1.301   .     A
N1145  O1146   1.299   .     A
N1148  O1149   1.299   .     A
N1148  O1150   1.301   .     A
O1151  C1155   1.284   .     A
O1151  Zn1163  1.990   .     S
O1152  C1156   1.284   .     A
O1152  Zn1164  1.990   .     S
O1153  Zn1164  1.998   .     S
O1153  C1155   1.287   .     A
O1154  C1156   1.287   .     A
O1154  Zn1163  1.998   .     S
C1155  C1178   1.415   .     S
C1156  C1177   1.415   .     S
O1157  C1161   1.277   .     A
O1157  Zn1163  1.981   .     S
O1158  C1162   1.277   .     A
O1158  Zn1164  1.981   .     S
O1159  Zn1164  1.997   .     S
O1159  C1161   1.289   .     A
O1160  C1162   1.289   .     A
O1160  Zn1163  1.997   .     S
C1161  C1167   1.409   .     S
C1162  C1168   1.409   .     S
Zn1163 N1165   2.019   .     S
Zn1164 N1166   2.019   .     S
N1165  C1180   1.358   .     A
N1165  C1183   1.381   .     A
N1166  C1184   1.381   .     A
N1166  C1179   1.358   .     A
C1168  C1213   1.357   .     S
C1168  N1234   1.442   .     S
C1169  C1178   1.395   .     A
C1169  H1171   1.084   .     S
C1170  C1177   1.395   .     A
C1170  H1172   1.084   .     S
C1170  C898    1.371   1_565 S
C1173  C1177   1.398   .     A
C1173  H1175   1.084   .     S
C1173  C893    1.371   1_565 S
C1174  H1176   1.084   .     S
C1174  C1178   1.398   .     A
C1179  H1181   1.082   .     S
C1180  H1182   1.082   .     S
C1180  C356    1.417   1_556 S
C1183  N1191   1.429   .     S
C1183  C351    1.417   1_556 S
C1184  N1194   1.429   .     S
N1185  O1186   1.301   .     A
N1185  O1187   1.302   .     A
N1185  C1213   1.442   .     S
N1188  O1190   1.302   .     A
N1188  O1189   1.301   .     A
N1191  O1193   1.301   .     A
N1191  O1192   1.299   .     A
N1194  O1195   1.299   .     A
N1194  O1196   1.301   .     A
O1197  C1201   1.284   .     A
O1197  Zn1209  1.990   .     S
O1198  C1202   1.284   .     A
O1198  Zn1210  1.990   .     S
O1199  Zn1210  1.998   .     S
O1199  C1201   1.287   .     A
O1200  C1202   1.287   .     A
O1200  Zn1209  1.998   .     S
C1201  C1224   1.415   .     S
C1202  C1223   1.415   .     S
O1203  C1207   1.277   .     A
O1203  Zn1209  1.981   .     S
O1204  C1208   1.277   .     A
O1204  Zn1210  1.981   .     S
O1205  Zn1210  1.997   .     S
O1205  C1207   1.289   .     A
O1206  C1208   1.289   .     A
O1206  Zn1209  1.997   .     S
C1207  C1213   1.409   .     S
C1208  C1214   1.409   .     S
Zn1209 N1211   2.019   .     S
Zn1210 N1212   2.019   .     S
N1211  C1226   1.358   .     A
N1211  C1229   1.381   .     A
N1212  C1230   1.381   .     A
N1212  C1225   1.358   .     A
C1214  C1121   1.357   1_655 S
C1214  N1142   1.442   1_655 S
C1215  C1224   1.395   .     A
C1215  H1217   1.084   .     S
C1216  C1223   1.395   .     A
C1216  H1218   1.084   .     S
C1216  C944    1.371   1_565 S
C1219  C1223   1.398   .     A
C1219  H1221   1.084   .     S
C1219  C939    1.371   1_565 S
C1220  H1222   1.084   .     S
C1220  C1224   1.398   .     A
C1225  H1227   1.082   .     S
C1226  H1228   1.082   .     S
C1226  C402    1.417   1_556 S
C1229  N1237   1.429   .     S
C1229  C397    1.417   1_556 S
C1230  N1240   1.429   .     S
N1231  O1232   1.301   .     A
N1231  O1233   1.302   .     A
N1231  C1121   1.442   1_655 S
N1234  O1236   1.302   .     A
N1234  O1235   1.301   .     A
N1237  O1239   1.301   .     A
N1237  O1238   1.299   .     A
N1240  O1241   1.299   .     A
N1240  O1242   1.301   .     A
