data_str_m3_o1_o10_pcu_sym.30
_audit_creation_date              2020-01-03
_audit_creation_method            'Materials Studio'
_symmetry_space_group_name_H-M    'P1'
_symmetry_Int_Tables_number       1
_symmetry_cell_setting            triclinic
loop_
_symmetry_equiv_pos_as_xyz
  x,y,z
_cell_length_a                    25.9364
_cell_length_b                    31.9760
_cell_length_c                    29.5342
_cell_angle_alpha                 90.2483
_cell_angle_beta                  98.2889
_cell_angle_gamma                 89.7929
loop_
_atom_site_label
_atom_site_type_symbol
_atom_site_fract_x
_atom_site_fract_y
_atom_site_fract_z
_atom_site_U_iso_or_equiv
_atom_site_adp_type
_atom_site_occupancy
C1     C     0.16794   0.08676   0.16681   0.00000  Uiso   1.00
C2     C     0.20405   0.02060   0.19905   0.00000  Uiso   1.00
C3     C     0.16462   0.29070   0.16640   0.00000  Uiso   1.00
C4     C     0.16871   0.04263   0.16693   0.00000  Uiso   1.00
C5     C     0.19933   0.19236   0.02823   0.00000  Uiso   1.00
C6     C     0.13401   0.14097   0.30510   0.00000  Uiso   1.00
C7     C     0.19928   0.19237   0.31360   0.00000  Uiso   1.00
C8     C     0.13405   0.14096   0.01973   0.00000  Uiso   1.00
C9     C     0.32692   0.12439   0.11492   0.00000  Uiso   1.00
C10    C     0.31249   0.08366   0.13679   0.00000  Uiso   1.00
C11    C     0.00642   0.20894   0.21841   0.00000  Uiso   1.00
C12    C     0.16540   0.24657   0.16653   0.00000  Uiso   1.00
C13    C     0.02085   0.24967   0.19654   0.00000  Uiso   1.00
C14    C     0.08771   0.29180   0.10010   0.00000  Uiso   1.00
C15    C     0.10312   0.29150   0.05210   0.00000  Uiso   1.00
C16    C     0.24563   0.04153   0.23323   0.00000  Uiso   1.00
C17    C     0.23021   0.04184   0.28124   0.00000  Uiso   1.00
C18    C     0.06727   0.16610   0.15510   0.00000  Uiso   1.00
C19    C     0.26606   0.16723   0.17823   0.00000  Uiso   1.00
C20    C     0.01350   0.15801   0.15071   0.00000  Uiso   1.00
C21    C     0.31984   0.17533   0.18262   0.00000  Uiso   1.00
C22    C     0.13185   0.02250   0.13509   0.00000  Uiso   1.00
C23    C     0.20148   0.31083   0.19825   0.00000  Uiso   1.00
C24    C     0.12928   0.31273   0.13429   0.00000  Uiso   1.00
F25    F     0.09708   0.04510   0.10593   0.00000  Uiso   1.00
F26    F     0.23626   0.28823   0.22741   0.00000  Uiso   1.00
F27    F     0.23208   0.21811   0.05517   0.00000  Uiso   1.00
F28    F     0.10126   0.11522   0.27816   0.00000  Uiso   1.00
F29    F     0.23193   0.21817   0.29519   0.00000  Uiso   1.00
F30    F     0.10141   0.11516   0.03815   0.00000  Uiso   1.00
H31    H     0.01092   0.07369   0.16397   0.00000  Uiso   1.00
H32    H     0.03885   0.19751   0.24396   0.00000  Uiso   1.00
H33    H     0.14066   0.27472   0.05204   0.00000  Uiso   1.00
H34    H     0.07265   0.27528   0.02813   0.00000  Uiso   1.00
H35    H     0.10706   0.32391   0.03973   0.00000  Uiso   1.00
H36    H     0.07985   0.25927   0.10975   0.00000  Uiso   1.00
H37    H     0.05005   0.30868   0.09942   0.00000  Uiso   1.00
H38    H     0.26069   0.05805   0.30521   0.00000  Uiso   1.00
H39    H     0.19267   0.05862   0.28129   0.00000  Uiso   1.00
H40    H     0.22627   0.00942   0.29360   0.00000  Uiso   1.00
H41    H     0.28329   0.02466   0.23391   0.00000  Uiso   1.00
H42    H     0.27590   0.08738   0.15146   0.00000  Uiso   1.00
H43    H     0.25348   0.07407   0.22358   0.00000  Uiso   1.00
H44    H     0.30630   0.05865   0.11037   0.00000  Uiso   1.00
H45    H     0.29448   0.13582   0.08937   0.00000  Uiso   1.00
H46    H     0.02429   0.11593   0.09386   0.00000  Uiso   1.00
H47    H     0.05743   0.24595   0.18187   0.00000  Uiso   1.00
H48    H     0.32241   0.25965   0.16936   0.00000  Uiso   1.00
H49    H     0.02704   0.27468   0.22297   0.00000  Uiso   1.00
H50    H     0.30904   0.21740   0.23947   0.00000  Uiso   1.00
N51    N     0.16665   0.16666   0.28573   0.00000  Uiso   1.00
N52    N     0.16668   0.16668   0.04760   0.00000  Uiso   1.00
O53    O     0.16666   0.10558   0.20487   0.00000  Uiso   1.00
O54    O     0.16667   0.22775   0.12846   0.00000  Uiso   1.00
O55    O     0.16666   0.10559   0.12843   0.00000  Uiso   1.00
O56    O     0.16667   0.22774   0.20490   0.00000  Uiso   1.00
O57    O     0.09058   0.16666   0.19595   0.00000  Uiso   1.00
O58    O     0.24275   0.16667   0.13739   0.00000  Uiso   1.00
O59    O     0.09058   0.16667   0.11950   0.00000  Uiso   1.00
O60    O     0.24275   0.16666   0.21383   0.00000  Uiso   1.00
Zn61   Zn    0.16667   0.16666   0.21771   0.00000  Uiso   1.00
Zn62   Zn    0.16667   0.16667   0.11563   0.00000  Uiso   1.00
C63    C     0.50127   0.08676   0.16681   0.00000  Uiso   1.00
C64    C     0.53739   0.02060   0.19905   0.00000  Uiso   1.00
C65    C     0.49796   0.29070   0.16640   0.00000  Uiso   1.00
C66    C     0.50204   0.04263   0.16693   0.00000  Uiso   1.00
C67    C     0.53266   0.19236   0.02823   0.00000  Uiso   1.00
C68    C     0.46734   0.14097   0.30510   0.00000  Uiso   1.00
C69    C     0.53262   0.19237   0.31360   0.00000  Uiso   1.00
C70    C     0.46738   0.14096   0.01973   0.00000  Uiso   1.00
C71    C     0.66025   0.12439   0.11492   0.00000  Uiso   1.00
C72    C     0.64582   0.08366   0.13679   0.00000  Uiso   1.00
C73    C     0.33975   0.20894   0.21841   0.00000  Uiso   1.00
C74    C     0.49873   0.24657   0.16653   0.00000  Uiso   1.00
C75    C     0.35418   0.24967   0.19654   0.00000  Uiso   1.00
C76    C     0.42104   0.29180   0.10010   0.00000  Uiso   1.00
C77    C     0.43645   0.29150   0.05210   0.00000  Uiso   1.00
C78    C     0.57896   0.04153   0.23323   0.00000  Uiso   1.00
C79    C     0.56355   0.04184   0.28124   0.00000  Uiso   1.00
C80    C     0.40061   0.16610   0.15510   0.00000  Uiso   1.00
C81    C     0.59939   0.16723   0.17823   0.00000  Uiso   1.00
C82    C     0.34683   0.15801   0.15071   0.00000  Uiso   1.00
C83    C     0.65317   0.17533   0.18262   0.00000  Uiso   1.00
C84    C     0.46519   0.02250   0.13509   0.00000  Uiso   1.00
C85    C     0.53481   0.31083   0.19825   0.00000  Uiso   1.00
C86    C     0.46261   0.31273   0.13429   0.00000  Uiso   1.00
F87    F     0.43041   0.04510   0.10593   0.00000  Uiso   1.00
F88    F     0.56959   0.28823   0.22741   0.00000  Uiso   1.00
F89    F     0.56541   0.21811   0.05517   0.00000  Uiso   1.00
F90    F     0.43459   0.11522   0.27816   0.00000  Uiso   1.00
F91    F     0.56526   0.21817   0.29519   0.00000  Uiso   1.00
F92    F     0.43474   0.11516   0.03815   0.00000  Uiso   1.00
H93    H     0.34425   0.07369   0.16397   0.00000  Uiso   1.00
H94    H     0.37219   0.19751   0.24396   0.00000  Uiso   1.00
H95    H     0.47400   0.27472   0.05204   0.00000  Uiso   1.00
H96    H     0.40598   0.27528   0.02813   0.00000  Uiso   1.00
H97    H     0.44039   0.32391   0.03973   0.00000  Uiso   1.00
H98    H     0.41319   0.25927   0.10975   0.00000  Uiso   1.00
H99    H     0.38338   0.30868   0.09942   0.00000  Uiso   1.00
H100   H     0.59402   0.05805   0.30521   0.00000  Uiso   1.00
H101   H     0.52600   0.05862   0.28129   0.00000  Uiso   1.00
H102   H     0.55961   0.00942   0.29360   0.00000  Uiso   1.00
H103   H     0.61662   0.02466   0.23391   0.00000  Uiso   1.00
H104   H     0.60923   0.08738   0.15146   0.00000  Uiso   1.00
H105   H     0.58681   0.07407   0.22358   0.00000  Uiso   1.00
H106   H     0.63963   0.05865   0.11037   0.00000  Uiso   1.00
H107   H     0.62781   0.13582   0.08937   0.00000  Uiso   1.00
H108   H     0.35763   0.11593   0.09386   0.00000  Uiso   1.00
H109   H     0.39077   0.24595   0.18187   0.00000  Uiso   1.00
H110   H     0.65575   0.25965   0.16936   0.00000  Uiso   1.00
H111   H     0.36037   0.27468   0.22297   0.00000  Uiso   1.00
H112   H     0.64237   0.21740   0.23947   0.00000  Uiso   1.00
N113   N     0.49999   0.16666   0.28573   0.00000  Uiso   1.00
N114   N     0.50001   0.16668   0.04760   0.00000  Uiso   1.00
O115   O     0.50000   0.10558   0.20487   0.00000  Uiso   1.00
O116   O     0.50000   0.22775   0.12846   0.00000  Uiso   1.00
O117   O     0.50000   0.10559   0.12843   0.00000  Uiso   1.00
O118   O     0.50000   0.22774   0.20490   0.00000  Uiso   1.00
O119   O     0.42392   0.16666   0.19595   0.00000  Uiso   1.00
O120   O     0.57608   0.16667   0.13739   0.00000  Uiso   1.00
O121   O     0.42392   0.16667   0.11950   0.00000  Uiso   1.00
O122   O     0.57608   0.16666   0.21383   0.00000  Uiso   1.00
Zn123  Zn    0.50000   0.16666   0.21771   0.00000  Uiso   1.00
Zn124  Zn    0.50000   0.16667   0.11563   0.00000  Uiso   1.00
C125   C     0.83460   0.08676   0.16681   0.00000  Uiso   1.00
C126   C     0.87072   0.02060   0.19905   0.00000  Uiso   1.00
C127   C     0.83129   0.29070   0.16640   0.00000  Uiso   1.00
C128   C     0.83538   0.04263   0.16693   0.00000  Uiso   1.00
C129   C     0.86599   0.19236   0.02823   0.00000  Uiso   1.00
C130   C     0.80067   0.14097   0.30510   0.00000  Uiso   1.00
C131   C     0.86595   0.19237   0.31360   0.00000  Uiso   1.00
C132   C     0.80072   0.14096   0.01973   0.00000  Uiso   1.00
C133   C     0.99358   0.12439   0.11492   0.00000  Uiso   1.00
C134   C     0.97915   0.08366   0.13679   0.00000  Uiso   1.00
C135   C     0.67308   0.20894   0.21841   0.00000  Uiso   1.00
C136   C     0.83206   0.24657   0.16653   0.00000  Uiso   1.00
C137   C     0.68751   0.24967   0.19654   0.00000  Uiso   1.00
C138   C     0.75437   0.29180   0.10010   0.00000  Uiso   1.00
C139   C     0.76979   0.29150   0.05210   0.00000  Uiso   1.00
C140   C     0.91229   0.04153   0.23323   0.00000  Uiso   1.00
C141   C     0.89688   0.04184   0.28124   0.00000  Uiso   1.00
C142   C     0.73394   0.16610   0.15510   0.00000  Uiso   1.00
C143   C     0.93273   0.16723   0.17823   0.00000  Uiso   1.00
C144   C     0.68017   0.15801   0.15071   0.00000  Uiso   1.00
C145   C     0.98650   0.17533   0.18262   0.00000  Uiso   1.00
C146   C     0.79852   0.02250   0.13509   0.00000  Uiso   1.00
C147   C     0.86815   0.31083   0.19825   0.00000  Uiso   1.00
C148   C     0.79595   0.31273   0.13429   0.00000  Uiso   1.00
F149   F     0.76374   0.04510   0.10593   0.00000  Uiso   1.00
F150   F     0.90292   0.28823   0.22741   0.00000  Uiso   1.00
F151   F     0.89874   0.21811   0.05517   0.00000  Uiso   1.00
F152   F     0.76792   0.11522   0.27816   0.00000  Uiso   1.00
F153   F     0.89859   0.21817   0.29519   0.00000  Uiso   1.00
F154   F     0.76807   0.11516   0.03815   0.00000  Uiso   1.00
H155   H     0.67759   0.07369   0.16397   0.00000  Uiso   1.00
H156   H     0.70552   0.19751   0.24396   0.00000  Uiso   1.00
H157   H     0.80733   0.27472   0.05204   0.00000  Uiso   1.00
H158   H     0.73931   0.27528   0.02813   0.00000  Uiso   1.00
H159   H     0.77373   0.32391   0.03973   0.00000  Uiso   1.00
H160   H     0.74652   0.25927   0.10975   0.00000  Uiso   1.00
H161   H     0.71671   0.30868   0.09942   0.00000  Uiso   1.00
H162   H     0.92735   0.05805   0.30521   0.00000  Uiso   1.00
H163   H     0.85934   0.05862   0.28129   0.00000  Uiso   1.00
H164   H     0.89294   0.00942   0.29360   0.00000  Uiso   1.00
H165   H     0.94995   0.02466   0.23391   0.00000  Uiso   1.00
H166   H     0.94257   0.08738   0.15146   0.00000  Uiso   1.00
H167   H     0.92015   0.07407   0.22358   0.00000  Uiso   1.00
H168   H     0.97296   0.05865   0.11037   0.00000  Uiso   1.00
H169   H     0.96115   0.13582   0.08937   0.00000  Uiso   1.00
H170   H     0.69096   0.11593   0.09386   0.00000  Uiso   1.00
H171   H     0.72410   0.24595   0.18187   0.00000  Uiso   1.00
H172   H     0.98908   0.25965   0.16936   0.00000  Uiso   1.00
H173   H     0.69371   0.27468   0.22297   0.00000  Uiso   1.00
H174   H     0.97571   0.21740   0.23947   0.00000  Uiso   1.00
N175   N     0.83332   0.16666   0.28573   0.00000  Uiso   1.00
N176   N     0.83335   0.16668   0.04760   0.00000  Uiso   1.00
O177   O     0.83333   0.10558   0.20487   0.00000  Uiso   1.00
O178   O     0.83334   0.22775   0.12846   0.00000  Uiso   1.00
O179   O     0.83333   0.10559   0.12843   0.00000  Uiso   1.00
O180   O     0.83334   0.22774   0.20490   0.00000  Uiso   1.00
O181   O     0.75725   0.16666   0.19595   0.00000  Uiso   1.00
O182   O     0.90942   0.16667   0.13739   0.00000  Uiso   1.00
O183   O     0.75725   0.16667   0.11950   0.00000  Uiso   1.00
O184   O     0.90942   0.16666   0.21383   0.00000  Uiso   1.00
Zn185  Zn    0.83333   0.16666   0.21771   0.00000  Uiso   1.00
Zn186  Zn    0.83333   0.16667   0.11563   0.00000  Uiso   1.00
C187   C     0.16794   0.42010   0.16681   0.00000  Uiso   1.00
C188   C     0.20405   0.35394   0.19905   0.00000  Uiso   1.00
C189   C     0.16462   0.62404   0.16640   0.00000  Uiso   1.00
C190   C     0.16871   0.37596   0.16693   0.00000  Uiso   1.00
C191   C     0.19933   0.52570   0.02823   0.00000  Uiso   1.00
C192   C     0.13401   0.47430   0.30510   0.00000  Uiso   1.00
C193   C     0.19928   0.52570   0.31360   0.00000  Uiso   1.00
C194   C     0.13405   0.47430   0.01973   0.00000  Uiso   1.00
C195   C     0.32692   0.45772   0.11492   0.00000  Uiso   1.00
C196   C     0.31249   0.41699   0.13679   0.00000  Uiso   1.00
C197   C     0.00642   0.54227   0.21841   0.00000  Uiso   1.00
C198   C     0.16540   0.57990   0.16653   0.00000  Uiso   1.00
C199   C     0.02085   0.58301   0.19654   0.00000  Uiso   1.00
C200   C     0.08771   0.62514   0.10010   0.00000  Uiso   1.00
C201   C     0.10312   0.62483   0.05210   0.00000  Uiso   1.00
C202   C     0.24563   0.37486   0.23323   0.00000  Uiso   1.00
C203   C     0.23021   0.37517   0.28124   0.00000  Uiso   1.00
C204   C     0.06727   0.49944   0.15510   0.00000  Uiso   1.00
C205   C     0.26606   0.50056   0.17823   0.00000  Uiso   1.00
C206   C     0.01350   0.49134   0.15071   0.00000  Uiso   1.00
C207   C     0.31984   0.50866   0.18262   0.00000  Uiso   1.00
C208   C     0.13185   0.35583   0.13509   0.00000  Uiso   1.00
C209   C     0.20148   0.64417   0.19825   0.00000  Uiso   1.00
C210   C     0.12928   0.64606   0.13429   0.00000  Uiso   1.00
F211   F     0.09708   0.37844   0.10593   0.00000  Uiso   1.00
F212   F     0.23626   0.62156   0.22741   0.00000  Uiso   1.00
F213   F     0.23208   0.55144   0.05517   0.00000  Uiso   1.00
F214   F     0.10126   0.44856   0.27816   0.00000  Uiso   1.00
F215   F     0.23193   0.55151   0.29519   0.00000  Uiso   1.00
F216   F     0.10141   0.44849   0.03815   0.00000  Uiso   1.00
H217   H     0.01092   0.40702   0.16397   0.00000  Uiso   1.00
H218   H     0.03885   0.53084   0.24396   0.00000  Uiso   1.00
H219   H     0.14066   0.60805   0.05204   0.00000  Uiso   1.00
H220   H     0.07265   0.60861   0.02813   0.00000  Uiso   1.00
H221   H     0.10706   0.65725   0.03973   0.00000  Uiso   1.00
H222   H     0.07985   0.59260   0.10975   0.00000  Uiso   1.00
H223   H     0.05005   0.64201   0.09942   0.00000  Uiso   1.00
H224   H     0.26069   0.39139   0.30521   0.00000  Uiso   1.00
H225   H     0.19267   0.39195   0.28129   0.00000  Uiso   1.00
H226   H     0.22627   0.34275   0.29360   0.00000  Uiso   1.00
H227   H     0.28329   0.35799   0.23391   0.00000  Uiso   1.00
H228   H     0.27590   0.42071   0.15146   0.00000  Uiso   1.00
H229   H     0.25348   0.40740   0.22358   0.00000  Uiso   1.00
H230   H     0.30630   0.39199   0.11037   0.00000  Uiso   1.00
H231   H     0.29448   0.46916   0.08937   0.00000  Uiso   1.00
H232   H     0.02429   0.44927   0.09386   0.00000  Uiso   1.00
H233   H     0.05743   0.57929   0.18187   0.00000  Uiso   1.00
H234   H     0.32241   0.59298   0.16936   0.00000  Uiso   1.00
H235   H     0.02704   0.60801   0.22297   0.00000  Uiso   1.00
H236   H     0.30904   0.55073   0.23947   0.00000  Uiso   1.00
N237   N     0.16665   0.49999   0.28573   0.00000  Uiso   1.00
N238   N     0.16668   0.50001   0.04760   0.00000  Uiso   1.00
O239   O     0.16666   0.43892   0.20487   0.00000  Uiso   1.00
O240   O     0.16667   0.56108   0.12846   0.00000  Uiso   1.00
O241   O     0.16666   0.43893   0.12843   0.00000  Uiso   1.00
O242   O     0.16667   0.56107   0.20490   0.00000  Uiso   1.00
O243   O     0.09058   0.50000   0.19595   0.00000  Uiso   1.00
O244   O     0.24275   0.50000   0.13739   0.00000  Uiso   1.00
O245   O     0.09058   0.50000   0.11950   0.00000  Uiso   1.00
O246   O     0.24275   0.50000   0.21383   0.00000  Uiso   1.00
Zn247  Zn    0.16667   0.49999   0.21771   0.00000  Uiso   1.00
Zn248  Zn    0.16667   0.50001   0.11563   0.00000  Uiso   1.00
C249   C     0.50127   0.42010   0.16681   0.00000  Uiso   1.00
C250   C     0.53739   0.35394   0.19905   0.00000  Uiso   1.00
C251   C     0.49796   0.62404   0.16640   0.00000  Uiso   1.00
C252   C     0.50204   0.37596   0.16693   0.00000  Uiso   1.00
C253   C     0.53266   0.52570   0.02823   0.00000  Uiso   1.00
C254   C     0.46734   0.47430   0.30510   0.00000  Uiso   1.00
C255   C     0.53262   0.52570   0.31360   0.00000  Uiso   1.00
C256   C     0.46738   0.47430   0.01973   0.00000  Uiso   1.00
C257   C     0.66025   0.45772   0.11492   0.00000  Uiso   1.00
C258   C     0.64582   0.41699   0.13679   0.00000  Uiso   1.00
C259   C     0.33975   0.54227   0.21841   0.00000  Uiso   1.00
C260   C     0.49873   0.57990   0.16653   0.00000  Uiso   1.00
C261   C     0.35418   0.58301   0.19654   0.00000  Uiso   1.00
C262   C     0.42104   0.62514   0.10010   0.00000  Uiso   1.00
C263   C     0.43645   0.62483   0.05210   0.00000  Uiso   1.00
C264   C     0.57896   0.37486   0.23323   0.00000  Uiso   1.00
C265   C     0.56355   0.37517   0.28124   0.00000  Uiso   1.00
C266   C     0.40061   0.49944   0.15510   0.00000  Uiso   1.00
C267   C     0.59939   0.50056   0.17823   0.00000  Uiso   1.00
C268   C     0.34683   0.49134   0.15071   0.00000  Uiso   1.00
C269   C     0.65317   0.50866   0.18262   0.00000  Uiso   1.00
C270   C     0.46519   0.35583   0.13509   0.00000  Uiso   1.00
C271   C     0.53481   0.64417   0.19825   0.00000  Uiso   1.00
C272   C     0.46261   0.64606   0.13429   0.00000  Uiso   1.00
F273   F     0.43041   0.37844   0.10593   0.00000  Uiso   1.00
F274   F     0.56959   0.62156   0.22741   0.00000  Uiso   1.00
F275   F     0.56541   0.55144   0.05517   0.00000  Uiso   1.00
F276   F     0.43459   0.44856   0.27816   0.00000  Uiso   1.00
F277   F     0.56526   0.55151   0.29519   0.00000  Uiso   1.00
F278   F     0.43474   0.44849   0.03815   0.00000  Uiso   1.00
H279   H     0.34425   0.40702   0.16397   0.00000  Uiso   1.00
H280   H     0.37219   0.53084   0.24396   0.00000  Uiso   1.00
H281   H     0.47400   0.60805   0.05204   0.00000  Uiso   1.00
H282   H     0.40598   0.60861   0.02813   0.00000  Uiso   1.00
H283   H     0.44039   0.65725   0.03973   0.00000  Uiso   1.00
H284   H     0.41319   0.59260   0.10975   0.00000  Uiso   1.00
H285   H     0.38338   0.64201   0.09942   0.00000  Uiso   1.00
H286   H     0.59402   0.39139   0.30521   0.00000  Uiso   1.00
H287   H     0.52600   0.39195   0.28129   0.00000  Uiso   1.00
H288   H     0.55961   0.34275   0.29360   0.00000  Uiso   1.00
H289   H     0.61662   0.35799   0.23391   0.00000  Uiso   1.00
H290   H     0.60923   0.42071   0.15146   0.00000  Uiso   1.00
H291   H     0.58681   0.40740   0.22358   0.00000  Uiso   1.00
H292   H     0.63963   0.39199   0.11037   0.00000  Uiso   1.00
H293   H     0.62781   0.46916   0.08937   0.00000  Uiso   1.00
H294   H     0.35763   0.44927   0.09386   0.00000  Uiso   1.00
H295   H     0.39077   0.57929   0.18187   0.00000  Uiso   1.00
H296   H     0.65575   0.59298   0.16936   0.00000  Uiso   1.00
H297   H     0.36037   0.60801   0.22297   0.00000  Uiso   1.00
H298   H     0.64237   0.55073   0.23947   0.00000  Uiso   1.00
N299   N     0.49999   0.49999   0.28573   0.00000  Uiso   1.00
N300   N     0.50001   0.50001   0.04760   0.00000  Uiso   1.00
O301   O     0.50000   0.43892   0.20487   0.00000  Uiso   1.00
O302   O     0.50000   0.56108   0.12846   0.00000  Uiso   1.00
O303   O     0.50000   0.43893   0.12843   0.00000  Uiso   1.00
O304   O     0.50000   0.56107   0.20490   0.00000  Uiso   1.00
O305   O     0.42392   0.50000   0.19595   0.00000  Uiso   1.00
O306   O     0.57608   0.50000   0.13739   0.00000  Uiso   1.00
O307   O     0.42392   0.50000   0.11950   0.00000  Uiso   1.00
O308   O     0.57608   0.50000   0.21383   0.00000  Uiso   1.00
Zn309  Zn    0.50000   0.49999   0.21771   0.00000  Uiso   1.00
Zn310  Zn    0.50000   0.50001   0.11563   0.00000  Uiso   1.00
C311   C     0.83460   0.42010   0.16681   0.00000  Uiso   1.00
C312   C     0.87072   0.35394   0.19905   0.00000  Uiso   1.00
C313   C     0.83129   0.62404   0.16640   0.00000  Uiso   1.00
C314   C     0.83538   0.37596   0.16693   0.00000  Uiso   1.00
C315   C     0.86599   0.52570   0.02823   0.00000  Uiso   1.00
C316   C     0.80067   0.47430   0.30510   0.00000  Uiso   1.00
C317   C     0.86595   0.52570   0.31360   0.00000  Uiso   1.00
C318   C     0.80072   0.47430   0.01973   0.00000  Uiso   1.00
C319   C     0.99358   0.45772   0.11492   0.00000  Uiso   1.00
C320   C     0.97915   0.41699   0.13679   0.00000  Uiso   1.00
C321   C     0.67308   0.54227   0.21841   0.00000  Uiso   1.00
C322   C     0.83206   0.57990   0.16653   0.00000  Uiso   1.00
C323   C     0.68751   0.58301   0.19654   0.00000  Uiso   1.00
C324   C     0.75437   0.62514   0.10010   0.00000  Uiso   1.00
C325   C     0.76979   0.62483   0.05210   0.00000  Uiso   1.00
C326   C     0.91229   0.37486   0.23323   0.00000  Uiso   1.00
C327   C     0.89688   0.37517   0.28124   0.00000  Uiso   1.00
C328   C     0.73394   0.49944   0.15510   0.00000  Uiso   1.00
C329   C     0.93273   0.50056   0.17823   0.00000  Uiso   1.00
C330   C     0.68017   0.49134   0.15071   0.00000  Uiso   1.00
C331   C     0.98650   0.50866   0.18262   0.00000  Uiso   1.00
C332   C     0.79852   0.35583   0.13509   0.00000  Uiso   1.00
C333   C     0.86815   0.64417   0.19825   0.00000  Uiso   1.00
C334   C     0.79595   0.64606   0.13429   0.00000  Uiso   1.00
F335   F     0.76374   0.37844   0.10593   0.00000  Uiso   1.00
F336   F     0.90292   0.62156   0.22741   0.00000  Uiso   1.00
F337   F     0.89874   0.55144   0.05517   0.00000  Uiso   1.00
F338   F     0.76792   0.44856   0.27816   0.00000  Uiso   1.00
F339   F     0.89859   0.55151   0.29519   0.00000  Uiso   1.00
F340   F     0.76807   0.44849   0.03815   0.00000  Uiso   1.00
H341   H     0.67759   0.40702   0.16397   0.00000  Uiso   1.00
H342   H     0.70552   0.53084   0.24396   0.00000  Uiso   1.00
H343   H     0.80733   0.60805   0.05204   0.00000  Uiso   1.00
H344   H     0.73931   0.60861   0.02813   0.00000  Uiso   1.00
H345   H     0.77373   0.65725   0.03973   0.00000  Uiso   1.00
H346   H     0.74652   0.59260   0.10975   0.00000  Uiso   1.00
H347   H     0.71671   0.64201   0.09942   0.00000  Uiso   1.00
H348   H     0.92735   0.39139   0.30521   0.00000  Uiso   1.00
H349   H     0.85934   0.39195   0.28129   0.00000  Uiso   1.00
H350   H     0.89294   0.34275   0.29360   0.00000  Uiso   1.00
H351   H     0.94995   0.35799   0.23391   0.00000  Uiso   1.00
H352   H     0.94257   0.42071   0.15146   0.00000  Uiso   1.00
H353   H     0.92015   0.40740   0.22358   0.00000  Uiso   1.00
H354   H     0.97296   0.39199   0.11037   0.00000  Uiso   1.00
H355   H     0.96115   0.46916   0.08937   0.00000  Uiso   1.00
H356   H     0.69096   0.44927   0.09386   0.00000  Uiso   1.00
H357   H     0.72410   0.57929   0.18187   0.00000  Uiso   1.00
H358   H     0.98908   0.59298   0.16936   0.00000  Uiso   1.00
H359   H     0.69371   0.60801   0.22297   0.00000  Uiso   1.00
H360   H     0.97571   0.55073   0.23947   0.00000  Uiso   1.00
N361   N     0.83332   0.49999   0.28573   0.00000  Uiso   1.00
N362   N     0.83335   0.50001   0.04760   0.00000  Uiso   1.00
O363   O     0.83333   0.43892   0.20487   0.00000  Uiso   1.00
O364   O     0.83334   0.56108   0.12846   0.00000  Uiso   1.00
O365   O     0.83333   0.43893   0.12843   0.00000  Uiso   1.00
O366   O     0.83334   0.56107   0.20490   0.00000  Uiso   1.00
O367   O     0.75725   0.50000   0.19595   0.00000  Uiso   1.00
O368   O     0.90942   0.50000   0.13739   0.00000  Uiso   1.00
O369   O     0.75725   0.50000   0.11950   0.00000  Uiso   1.00
O370   O     0.90942   0.50000   0.21383   0.00000  Uiso   1.00
Zn371  Zn    0.83333   0.49999   0.21771   0.00000  Uiso   1.00
Zn372  Zn    0.83333   0.50001   0.11563   0.00000  Uiso   1.00
C373   C     0.16794   0.75343   0.16681   0.00000  Uiso   1.00
C374   C     0.20405   0.68727   0.19905   0.00000  Uiso   1.00
C375   C     0.16462   0.95737   0.16640   0.00000  Uiso   1.00
C376   C     0.16871   0.70930   0.16693   0.00000  Uiso   1.00
C377   C     0.19933   0.85903   0.02823   0.00000  Uiso   1.00
C378   C     0.13401   0.80764   0.30510   0.00000  Uiso   1.00
C379   C     0.19928   0.85904   0.31360   0.00000  Uiso   1.00
C380   C     0.13405   0.80763   0.01973   0.00000  Uiso   1.00
C381   C     0.32692   0.79106   0.11492   0.00000  Uiso   1.00
C382   C     0.31249   0.75033   0.13679   0.00000  Uiso   1.00
C383   C     0.00642   0.87561   0.21841   0.00000  Uiso   1.00
C384   C     0.16540   0.91324   0.16653   0.00000  Uiso   1.00
C385   C     0.02085   0.91634   0.19654   0.00000  Uiso   1.00
C386   C     0.08771   0.95847   0.10010   0.00000  Uiso   1.00
C387   C     0.10312   0.95816   0.05210   0.00000  Uiso   1.00
C388   C     0.24563   0.70820   0.23323   0.00000  Uiso   1.00
C389   C     0.23021   0.70850   0.28124   0.00000  Uiso   1.00
C390   C     0.06727   0.83277   0.15510   0.00000  Uiso   1.00
C391   C     0.26606   0.83390   0.17823   0.00000  Uiso   1.00
C392   C     0.01350   0.82467   0.15071   0.00000  Uiso   1.00
C393   C     0.31984   0.84199   0.18262   0.00000  Uiso   1.00
C394   C     0.13185   0.68917   0.13509   0.00000  Uiso   1.00
C395   C     0.20148   0.97750   0.19825   0.00000  Uiso   1.00
C396   C     0.12928   0.97939   0.13429   0.00000  Uiso   1.00
F397   F     0.09708   0.71177   0.10593   0.00000  Uiso   1.00
F398   F     0.23626   0.95490   0.22741   0.00000  Uiso   1.00
F399   F     0.23208   0.88478   0.05517   0.00000  Uiso   1.00
F400   F     0.10126   0.78189   0.27816   0.00000  Uiso   1.00
F401   F     0.23193   0.88484   0.29519   0.00000  Uiso   1.00
F402   F     0.10141   0.78183   0.03815   0.00000  Uiso   1.00
H403   H     0.01092   0.74035   0.16397   0.00000  Uiso   1.00
H404   H     0.03885   0.86418   0.24396   0.00000  Uiso   1.00
H405   H     0.14066   0.94138   0.05204   0.00000  Uiso   1.00
H406   H     0.07265   0.94195   0.02813   0.00000  Uiso   1.00
H407   H     0.10706   0.99058   0.03973   0.00000  Uiso   1.00
H408   H     0.07985   0.92593   0.10975   0.00000  Uiso   1.00
H409   H     0.05005   0.97534   0.09942   0.00000  Uiso   1.00
H410   H     0.26069   0.72472   0.30521   0.00000  Uiso   1.00
H411   H     0.19267   0.72528   0.28129   0.00000  Uiso   1.00
H412   H     0.22627   0.67609   0.29360   0.00000  Uiso   1.00
H413   H     0.28329   0.69132   0.23391   0.00000  Uiso   1.00
H414   H     0.27590   0.75405   0.15146   0.00000  Uiso   1.00
H415   H     0.25348   0.74073   0.22358   0.00000  Uiso   1.00
H416   H     0.30630   0.72532   0.11037   0.00000  Uiso   1.00
H417   H     0.29448   0.80249   0.08937   0.00000  Uiso   1.00
H418   H     0.02429   0.78260   0.09386   0.00000  Uiso   1.00
H419   H     0.05743   0.91262   0.18187   0.00000  Uiso   1.00
H420   H     0.32241   0.92631   0.16936   0.00000  Uiso   1.00
H421   H     0.02704   0.94134   0.22297   0.00000  Uiso   1.00
H422   H     0.30904   0.88407   0.23947   0.00000  Uiso   1.00
N423   N     0.16665   0.83332   0.28573   0.00000  Uiso   1.00
N424   N     0.16668   0.83334   0.04760   0.00000  Uiso   1.00
O425   O     0.16666   0.77225   0.20487   0.00000  Uiso   1.00
O426   O     0.16667   0.89442   0.12846   0.00000  Uiso   1.00
O427   O     0.16666   0.77226   0.12843   0.00000  Uiso   1.00
O428   O     0.16667   0.89441   0.20490   0.00000  Uiso   1.00
O429   O     0.09058   0.83333   0.19595   0.00000  Uiso   1.00
O430   O     0.24275   0.83334   0.13739   0.00000  Uiso   1.00
O431   O     0.09058   0.83334   0.11950   0.00000  Uiso   1.00
O432   O     0.24275   0.83333   0.21383   0.00000  Uiso   1.00
Zn433  Zn    0.16667   0.83333   0.21771   0.00000  Uiso   1.00
Zn434  Zn    0.16667   0.83334   0.11563   0.00000  Uiso   1.00
C435   C     0.50127   0.75343   0.16681   0.00000  Uiso   1.00
C436   C     0.53739   0.68727   0.19905   0.00000  Uiso   1.00
C437   C     0.49796   0.95737   0.16640   0.00000  Uiso   1.00
C438   C     0.50204   0.70930   0.16693   0.00000  Uiso   1.00
C439   C     0.53266   0.85903   0.02823   0.00000  Uiso   1.00
C440   C     0.46734   0.80764   0.30510   0.00000  Uiso   1.00
C441   C     0.53262   0.85904   0.31360   0.00000  Uiso   1.00
C442   C     0.46738   0.80763   0.01973   0.00000  Uiso   1.00
C443   C     0.66025   0.79106   0.11492   0.00000  Uiso   1.00
C444   C     0.64582   0.75033   0.13679   0.00000  Uiso   1.00
C445   C     0.33975   0.87561   0.21841   0.00000  Uiso   1.00
C446   C     0.49873   0.91324   0.16653   0.00000  Uiso   1.00
C447   C     0.35418   0.91634   0.19654   0.00000  Uiso   1.00
C448   C     0.42104   0.95847   0.10010   0.00000  Uiso   1.00
C449   C     0.43645   0.95816   0.05210   0.00000  Uiso   1.00
C450   C     0.57896   0.70820   0.23323   0.00000  Uiso   1.00
C451   C     0.56355   0.70850   0.28124   0.00000  Uiso   1.00
C452   C     0.40061   0.83277   0.15510   0.00000  Uiso   1.00
C453   C     0.59939   0.83390   0.17823   0.00000  Uiso   1.00
C454   C     0.34683   0.82467   0.15071   0.00000  Uiso   1.00
C455   C     0.65317   0.84199   0.18262   0.00000  Uiso   1.00
C456   C     0.46519   0.68917   0.13509   0.00000  Uiso   1.00
C457   C     0.53481   0.97750   0.19825   0.00000  Uiso   1.00
C458   C     0.46261   0.97939   0.13429   0.00000  Uiso   1.00
F459   F     0.43041   0.71177   0.10593   0.00000  Uiso   1.00
F460   F     0.56959   0.95490   0.22741   0.00000  Uiso   1.00
F461   F     0.56541   0.88478   0.05517   0.00000  Uiso   1.00
F462   F     0.43459   0.78189   0.27816   0.00000  Uiso   1.00
F463   F     0.56526   0.88484   0.29519   0.00000  Uiso   1.00
F464   F     0.43474   0.78183   0.03815   0.00000  Uiso   1.00
H465   H     0.34425   0.74035   0.16397   0.00000  Uiso   1.00
H466   H     0.37219   0.86418   0.24396   0.00000  Uiso   1.00
H467   H     0.47400   0.94138   0.05204   0.00000  Uiso   1.00
H468   H     0.40598   0.94195   0.02813   0.00000  Uiso   1.00
H469   H     0.44039   0.99058   0.03973   0.00000  Uiso   1.00
H470   H     0.41319   0.92593   0.10975   0.00000  Uiso   1.00
H471   H     0.38338   0.97534   0.09942   0.00000  Uiso   1.00
H472   H     0.59402   0.72472   0.30521   0.00000  Uiso   1.00
H473   H     0.52600   0.72528   0.28129   0.00000  Uiso   1.00
H474   H     0.55961   0.67609   0.29360   0.00000  Uiso   1.00
H475   H     0.61662   0.69132   0.23391   0.00000  Uiso   1.00
H476   H     0.60923   0.75405   0.15146   0.00000  Uiso   1.00
H477   H     0.58681   0.74073   0.22358   0.00000  Uiso   1.00
H478   H     0.63963   0.72532   0.11037   0.00000  Uiso   1.00
H479   H     0.62781   0.80249   0.08937   0.00000  Uiso   1.00
H480   H     0.35763   0.78260   0.09386   0.00000  Uiso   1.00
H481   H     0.39077   0.91262   0.18187   0.00000  Uiso   1.00
H482   H     0.65575   0.92631   0.16936   0.00000  Uiso   1.00
H483   H     0.36037   0.94134   0.22297   0.00000  Uiso   1.00
H484   H     0.64237   0.88407   0.23947   0.00000  Uiso   1.00
N485   N     0.49999   0.83332   0.28573   0.00000  Uiso   1.00
N486   N     0.50001   0.83334   0.04760   0.00000  Uiso   1.00
O487   O     0.50000   0.77225   0.20487   0.00000  Uiso   1.00
O488   O     0.50000   0.89442   0.12846   0.00000  Uiso   1.00
O489   O     0.50000   0.77226   0.12843   0.00000  Uiso   1.00
O490   O     0.50000   0.89441   0.20490   0.00000  Uiso   1.00
O491   O     0.42392   0.83333   0.19595   0.00000  Uiso   1.00
O492   O     0.57608   0.83334   0.13739   0.00000  Uiso   1.00
O493   O     0.42392   0.83334   0.11950   0.00000  Uiso   1.00
O494   O     0.57608   0.83333   0.21383   0.00000  Uiso   1.00
Zn495  Zn    0.50000   0.83333   0.21771   0.00000  Uiso   1.00
Zn496  Zn    0.50000   0.83334   0.11563   0.00000  Uiso   1.00
C497   C     0.83460   0.75343   0.16681   0.00000  Uiso   1.00
C498   C     0.87072   0.68727   0.19905   0.00000  Uiso   1.00
C499   C     0.83129   0.95737   0.16640   0.00000  Uiso   1.00
C500   C     0.83538   0.70930   0.16693   0.00000  Uiso   1.00
C501   C     0.86599   0.85903   0.02823   0.00000  Uiso   1.00
C502   C     0.80067   0.80764   0.30510   0.00000  Uiso   1.00
C503   C     0.86595   0.85904   0.31360   0.00000  Uiso   1.00
C504   C     0.80072   0.80763   0.01973   0.00000  Uiso   1.00
C505   C     0.99358   0.79106   0.11492   0.00000  Uiso   1.00
C506   C     0.97915   0.75033   0.13679   0.00000  Uiso   1.00
C507   C     0.67308   0.87561   0.21841   0.00000  Uiso   1.00
C508   C     0.83206   0.91324   0.16653   0.00000  Uiso   1.00
C509   C     0.68751   0.91634   0.19654   0.00000  Uiso   1.00
C510   C     0.75437   0.95847   0.10010   0.00000  Uiso   1.00
C511   C     0.76979   0.95816   0.05210   0.00000  Uiso   1.00
C512   C     0.91229   0.70820   0.23323   0.00000  Uiso   1.00
C513   C     0.89688   0.70850   0.28124   0.00000  Uiso   1.00
C514   C     0.73394   0.83277   0.15510   0.00000  Uiso   1.00
C515   C     0.93273   0.83390   0.17823   0.00000  Uiso   1.00
C516   C     0.68017   0.82467   0.15071   0.00000  Uiso   1.00
C517   C     0.98650   0.84199   0.18262   0.00000  Uiso   1.00
C518   C     0.79852   0.68917   0.13509   0.00000  Uiso   1.00
C519   C     0.86815   0.97750   0.19825   0.00000  Uiso   1.00
C520   C     0.79595   0.97939   0.13429   0.00000  Uiso   1.00
F521   F     0.76374   0.71177   0.10593   0.00000  Uiso   1.00
F522   F     0.90292   0.95490   0.22741   0.00000  Uiso   1.00
F523   F     0.89874   0.88478   0.05517   0.00000  Uiso   1.00
F524   F     0.76792   0.78189   0.27816   0.00000  Uiso   1.00
F525   F     0.89859   0.88484   0.29519   0.00000  Uiso   1.00
F526   F     0.76807   0.78183   0.03815   0.00000  Uiso   1.00
H527   H     0.67759   0.74035   0.16397   0.00000  Uiso   1.00
H528   H     0.70552   0.86418   0.24396   0.00000  Uiso   1.00
H529   H     0.80733   0.94138   0.05204   0.00000  Uiso   1.00
H530   H     0.73931   0.94195   0.02813   0.00000  Uiso   1.00
H531   H     0.77373   0.99058   0.03973   0.00000  Uiso   1.00
H532   H     0.74652   0.92593   0.10975   0.00000  Uiso   1.00
H533   H     0.71671   0.97534   0.09942   0.00000  Uiso   1.00
H534   H     0.92735   0.72472   0.30521   0.00000  Uiso   1.00
H535   H     0.85934   0.72528   0.28129   0.00000  Uiso   1.00
H536   H     0.89294   0.67609   0.29360   0.00000  Uiso   1.00
H537   H     0.94995   0.69132   0.23391   0.00000  Uiso   1.00
H538   H     0.94257   0.75405   0.15146   0.00000  Uiso   1.00
H539   H     0.92015   0.74073   0.22358   0.00000  Uiso   1.00
H540   H     0.97296   0.72532   0.11037   0.00000  Uiso   1.00
H541   H     0.96115   0.80249   0.08937   0.00000  Uiso   1.00
H542   H     0.69096   0.78260   0.09386   0.00000  Uiso   1.00
H543   H     0.72410   0.91262   0.18187   0.00000  Uiso   1.00
H544   H     0.98908   0.92631   0.16936   0.00000  Uiso   1.00
H545   H     0.69371   0.94134   0.22297   0.00000  Uiso   1.00
H546   H     0.97571   0.88407   0.23947   0.00000  Uiso   1.00
N547   N     0.83332   0.83332   0.28573   0.00000  Uiso   1.00
N548   N     0.83335   0.83334   0.04760   0.00000  Uiso   1.00
O549   O     0.83333   0.77225   0.20487   0.00000  Uiso   1.00
O550   O     0.83334   0.89442   0.12846   0.00000  Uiso   1.00
O551   O     0.83333   0.77226   0.12843   0.00000  Uiso   1.00
O552   O     0.83334   0.89441   0.20490   0.00000  Uiso   1.00
O553   O     0.75725   0.83333   0.19595   0.00000  Uiso   1.00
O554   O     0.90942   0.83334   0.13739   0.00000  Uiso   1.00
O555   O     0.75725   0.83334   0.11950   0.00000  Uiso   1.00
O556   O     0.90942   0.83333   0.21383   0.00000  Uiso   1.00
Zn557  Zn    0.83333   0.83333   0.21771   0.00000  Uiso   1.00
Zn558  Zn    0.83333   0.83334   0.11563   0.00000  Uiso   1.00
C559   C     0.16794   0.08676   0.50014   0.00000  Uiso   1.00
C560   C     0.20405   0.02060   0.53238   0.00000  Uiso   1.00
C561   C     0.16462   0.29070   0.49974   0.00000  Uiso   1.00
C562   C     0.16871   0.04263   0.50026   0.00000  Uiso   1.00
C563   C     0.19933   0.19236   0.36156   0.00000  Uiso   1.00
C564   C     0.13401   0.14097   0.63844   0.00000  Uiso   1.00
C565   C     0.19928   0.19237   0.64694   0.00000  Uiso   1.00
C566   C     0.13405   0.14096   0.35306   0.00000  Uiso   1.00
C567   C     0.32692   0.12439   0.44825   0.00000  Uiso   1.00
C568   C     0.31249   0.08366   0.47013   0.00000  Uiso   1.00
C569   C     0.00642   0.20894   0.55175   0.00000  Uiso   1.00
C570   C     0.16540   0.24657   0.49986   0.00000  Uiso   1.00
C571   C     0.02085   0.24967   0.52988   0.00000  Uiso   1.00
C572   C     0.08771   0.29180   0.43343   0.00000  Uiso   1.00
C573   C     0.10312   0.29150   0.38543   0.00000  Uiso   1.00
C574   C     0.24563   0.04153   0.56657   0.00000  Uiso   1.00
C575   C     0.23021   0.04184   0.61457   0.00000  Uiso   1.00
C576   C     0.06727   0.16610   0.48843   0.00000  Uiso   1.00
C577   C     0.26606   0.16723   0.51157   0.00000  Uiso   1.00
C578   C     0.01350   0.15801   0.48404   0.00000  Uiso   1.00
C579   C     0.31984   0.17533   0.51596   0.00000  Uiso   1.00
C580   C     0.13185   0.02250   0.46842   0.00000  Uiso   1.00
C581   C     0.20148   0.31083   0.53158   0.00000  Uiso   1.00
C582   C     0.12928   0.31273   0.46762   0.00000  Uiso   1.00
F583   F     0.09708   0.04510   0.43926   0.00000  Uiso   1.00
F584   F     0.23626   0.28823   0.56074   0.00000  Uiso   1.00
F585   F     0.23208   0.21811   0.38851   0.00000  Uiso   1.00
F586   F     0.10126   0.11522   0.61149   0.00000  Uiso   1.00
F587   F     0.23193   0.21817   0.62852   0.00000  Uiso   1.00
F588   F     0.10141   0.11516   0.37148   0.00000  Uiso   1.00
H589   H     0.01092   0.07369   0.49731   0.00000  Uiso   1.00
H590   H     0.03885   0.19751   0.57729   0.00000  Uiso   1.00
H591   H     0.14066   0.27472   0.38537   0.00000  Uiso   1.00
H592   H     0.07265   0.27528   0.36146   0.00000  Uiso   1.00
H593   H     0.10706   0.32391   0.37307   0.00000  Uiso   1.00
H594   H     0.07985   0.25927   0.44309   0.00000  Uiso   1.00
H595   H     0.05005   0.30868   0.43275   0.00000  Uiso   1.00
H596   H     0.26069   0.05805   0.63854   0.00000  Uiso   1.00
H597   H     0.19267   0.05862   0.61463   0.00000  Uiso   1.00
H598   H     0.22627   0.00942   0.62693   0.00000  Uiso   1.00
H599   H     0.28329   0.02466   0.56725   0.00000  Uiso   1.00
H600   H     0.27590   0.08738   0.48480   0.00000  Uiso   1.00
H601   H     0.25348   0.07407   0.55691   0.00000  Uiso   1.00
H602   H     0.30630   0.05865   0.44370   0.00000  Uiso   1.00
H603   H     0.29448   0.13582   0.42271   0.00000  Uiso   1.00
H604   H     0.02429   0.11593   0.42720   0.00000  Uiso   1.00
H605   H     0.05743   0.24595   0.51520   0.00000  Uiso   1.00
H606   H     0.32241   0.25965   0.50270   0.00000  Uiso   1.00
H607   H     0.02704   0.27468   0.55630   0.00000  Uiso   1.00
H608   H     0.30904   0.21740   0.57280   0.00000  Uiso   1.00
N609   N     0.16665   0.16666   0.61907   0.00000  Uiso   1.00
N610   N     0.16668   0.16668   0.38093   0.00000  Uiso   1.00
O611   O     0.16666   0.10558   0.53821   0.00000  Uiso   1.00
O612   O     0.16667   0.22775   0.46179   0.00000  Uiso   1.00
O613   O     0.16666   0.10559   0.46176   0.00000  Uiso   1.00
O614   O     0.16667   0.22774   0.53824   0.00000  Uiso   1.00
O615   O     0.09058   0.16666   0.52928   0.00000  Uiso   1.00
O616   O     0.24275   0.16667   0.47072   0.00000  Uiso   1.00
O617   O     0.09058   0.16667   0.45284   0.00000  Uiso   1.00
O618   O     0.24275   0.16666   0.54716   0.00000  Uiso   1.00
Zn619  Zn    0.16667   0.16666   0.55104   0.00000  Uiso   1.00
Zn620  Zn    0.16667   0.16667   0.44896   0.00000  Uiso   1.00
C621   C     0.50127   0.08676   0.50014   0.00000  Uiso   1.00
C622   C     0.53739   0.02060   0.53238   0.00000  Uiso   1.00
C623   C     0.49796   0.29070   0.49974   0.00000  Uiso   1.00
C624   C     0.50204   0.04263   0.50026   0.00000  Uiso   1.00
C625   C     0.53266   0.19236   0.36156   0.00000  Uiso   1.00
C626   C     0.46734   0.14097   0.63844   0.00000  Uiso   1.00
C627   C     0.53262   0.19237   0.64694   0.00000  Uiso   1.00
C628   C     0.46738   0.14096   0.35306   0.00000  Uiso   1.00
C629   C     0.66025   0.12439   0.44825   0.00000  Uiso   1.00
C630   C     0.64582   0.08366   0.47013   0.00000  Uiso   1.00
C631   C     0.33975   0.20894   0.55175   0.00000  Uiso   1.00
C632   C     0.49873   0.24657   0.49986   0.00000  Uiso   1.00
C633   C     0.35418   0.24967   0.52988   0.00000  Uiso   1.00
C634   C     0.42104   0.29180   0.43343   0.00000  Uiso   1.00
C635   C     0.43645   0.29150   0.38543   0.00000  Uiso   1.00
C636   C     0.57896   0.04153   0.56657   0.00000  Uiso   1.00
C637   C     0.56355   0.04184   0.61457   0.00000  Uiso   1.00
C638   C     0.40061   0.16610   0.48843   0.00000  Uiso   1.00
C639   C     0.59939   0.16723   0.51157   0.00000  Uiso   1.00
C640   C     0.34683   0.15801   0.48404   0.00000  Uiso   1.00
C641   C     0.65317   0.17533   0.51596   0.00000  Uiso   1.00
C642   C     0.46519   0.02250   0.46842   0.00000  Uiso   1.00
C643   C     0.53481   0.31083   0.53158   0.00000  Uiso   1.00
C644   C     0.46261   0.31273   0.46762   0.00000  Uiso   1.00
F645   F     0.43041   0.04510   0.43926   0.00000  Uiso   1.00
F646   F     0.56959   0.28823   0.56074   0.00000  Uiso   1.00
F647   F     0.56541   0.21811   0.38851   0.00000  Uiso   1.00
F648   F     0.43459   0.11522   0.61149   0.00000  Uiso   1.00
F649   F     0.56526   0.21817   0.62852   0.00000  Uiso   1.00
F650   F     0.43474   0.11516   0.37148   0.00000  Uiso   1.00
H651   H     0.34425   0.07369   0.49731   0.00000  Uiso   1.00
H652   H     0.37219   0.19751   0.57729   0.00000  Uiso   1.00
H653   H     0.47400   0.27472   0.38537   0.00000  Uiso   1.00
H654   H     0.40598   0.27528   0.36146   0.00000  Uiso   1.00
H655   H     0.44039   0.32391   0.37307   0.00000  Uiso   1.00
H656   H     0.41319   0.25927   0.44309   0.00000  Uiso   1.00
H657   H     0.38338   0.30868   0.43275   0.00000  Uiso   1.00
H658   H     0.59402   0.05805   0.63854   0.00000  Uiso   1.00
H659   H     0.52600   0.05862   0.61463   0.00000  Uiso   1.00
H660   H     0.55961   0.00942   0.62693   0.00000  Uiso   1.00
H661   H     0.61662   0.02466   0.56725   0.00000  Uiso   1.00
H662   H     0.60923   0.08738   0.48480   0.00000  Uiso   1.00
H663   H     0.58681   0.07407   0.55691   0.00000  Uiso   1.00
H664   H     0.63963   0.05865   0.44370   0.00000  Uiso   1.00
H665   H     0.62781   0.13582   0.42271   0.00000  Uiso   1.00
H666   H     0.35763   0.11593   0.42720   0.00000  Uiso   1.00
H667   H     0.39077   0.24595   0.51520   0.00000  Uiso   1.00
H668   H     0.65575   0.25965   0.50270   0.00000  Uiso   1.00
H669   H     0.36037   0.27468   0.55630   0.00000  Uiso   1.00
H670   H     0.64237   0.21740   0.57280   0.00000  Uiso   1.00
N671   N     0.49999   0.16666   0.61907   0.00000  Uiso   1.00
N672   N     0.50001   0.16668   0.38093   0.00000  Uiso   1.00
O673   O     0.50000   0.10558   0.53821   0.00000  Uiso   1.00
O674   O     0.50000   0.22775   0.46179   0.00000  Uiso   1.00
O675   O     0.50000   0.10559   0.46176   0.00000  Uiso   1.00
O676   O     0.50000   0.22774   0.53824   0.00000  Uiso   1.00
O677   O     0.42392   0.16666   0.52928   0.00000  Uiso   1.00
O678   O     0.57608   0.16667   0.47072   0.00000  Uiso   1.00
O679   O     0.42392   0.16667   0.45284   0.00000  Uiso   1.00
O680   O     0.57608   0.16666   0.54716   0.00000  Uiso   1.00
Zn681  Zn    0.50000   0.16666   0.55104   0.00000  Uiso   1.00
Zn682  Zn    0.50000   0.16667   0.44896   0.00000  Uiso   1.00
C683   C     0.83460   0.08676   0.50014   0.00000  Uiso   1.00
C684   C     0.87072   0.02060   0.53238   0.00000  Uiso   1.00
C685   C     0.83129   0.29070   0.49974   0.00000  Uiso   1.00
C686   C     0.83538   0.04263   0.50026   0.00000  Uiso   1.00
C687   C     0.86599   0.19236   0.36156   0.00000  Uiso   1.00
C688   C     0.80067   0.14097   0.63844   0.00000  Uiso   1.00
C689   C     0.86595   0.19237   0.64694   0.00000  Uiso   1.00
C690   C     0.80072   0.14096   0.35306   0.00000  Uiso   1.00
C691   C     0.99358   0.12439   0.44825   0.00000  Uiso   1.00
C692   C     0.97915   0.08366   0.47013   0.00000  Uiso   1.00
C693   C     0.67308   0.20894   0.55175   0.00000  Uiso   1.00
C694   C     0.83206   0.24657   0.49986   0.00000  Uiso   1.00
C695   C     0.68751   0.24967   0.52988   0.00000  Uiso   1.00
C696   C     0.75437   0.29180   0.43343   0.00000  Uiso   1.00
C697   C     0.76979   0.29150   0.38543   0.00000  Uiso   1.00
C698   C     0.91229   0.04153   0.56657   0.00000  Uiso   1.00
C699   C     0.89688   0.04184   0.61457   0.00000  Uiso   1.00
C700   C     0.73394   0.16610   0.48843   0.00000  Uiso   1.00
C701   C     0.93273   0.16723   0.51157   0.00000  Uiso   1.00
C702   C     0.68017   0.15801   0.48404   0.00000  Uiso   1.00
C703   C     0.98650   0.17533   0.51596   0.00000  Uiso   1.00
C704   C     0.79852   0.02250   0.46842   0.00000  Uiso   1.00
C705   C     0.86815   0.31083   0.53158   0.00000  Uiso   1.00
C706   C     0.79595   0.31273   0.46762   0.00000  Uiso   1.00
F707   F     0.76374   0.04510   0.43926   0.00000  Uiso   1.00
F708   F     0.90292   0.28823   0.56074   0.00000  Uiso   1.00
F709   F     0.89874   0.21811   0.38851   0.00000  Uiso   1.00
F710   F     0.76792   0.11522   0.61149   0.00000  Uiso   1.00
F711   F     0.89859   0.21817   0.62852   0.00000  Uiso   1.00
F712   F     0.76807   0.11516   0.37148   0.00000  Uiso   1.00
H713   H     0.67759   0.07369   0.49731   0.00000  Uiso   1.00
H714   H     0.70552   0.19751   0.57729   0.00000  Uiso   1.00
H715   H     0.80733   0.27472   0.38537   0.00000  Uiso   1.00
H716   H     0.73931   0.27528   0.36146   0.00000  Uiso   1.00
H717   H     0.77373   0.32391   0.37307   0.00000  Uiso   1.00
H718   H     0.74652   0.25927   0.44309   0.00000  Uiso   1.00
H719   H     0.71671   0.30868   0.43275   0.00000  Uiso   1.00
H720   H     0.92735   0.05805   0.63854   0.00000  Uiso   1.00
H721   H     0.85934   0.05862   0.61463   0.00000  Uiso   1.00
H722   H     0.89294   0.00942   0.62693   0.00000  Uiso   1.00
H723   H     0.94995   0.02466   0.56725   0.00000  Uiso   1.00
H724   H     0.94257   0.08738   0.48480   0.00000  Uiso   1.00
H725   H     0.92015   0.07407   0.55691   0.00000  Uiso   1.00
H726   H     0.97296   0.05865   0.44370   0.00000  Uiso   1.00
H727   H     0.96115   0.13582   0.42271   0.00000  Uiso   1.00
H728   H     0.69096   0.11593   0.42720   0.00000  Uiso   1.00
H729   H     0.72410   0.24595   0.51520   0.00000  Uiso   1.00
H730   H     0.98908   0.25965   0.50270   0.00000  Uiso   1.00
H731   H     0.69371   0.27468   0.55630   0.00000  Uiso   1.00
H732   H     0.97571   0.21740   0.57280   0.00000  Uiso   1.00
N733   N     0.83332   0.16666   0.61907   0.00000  Uiso   1.00
N734   N     0.83335   0.16668   0.38093   0.00000  Uiso   1.00
O735   O     0.83333   0.10558   0.53821   0.00000  Uiso   1.00
O736   O     0.83334   0.22775   0.46179   0.00000  Uiso   1.00
O737   O     0.83333   0.10559   0.46176   0.00000  Uiso   1.00
O738   O     0.83334   0.22774   0.53824   0.00000  Uiso   1.00
O739   O     0.75725   0.16666   0.52928   0.00000  Uiso   1.00
O740   O     0.90942   0.16667   0.47072   0.00000  Uiso   1.00
O741   O     0.75725   0.16667   0.45284   0.00000  Uiso   1.00
O742   O     0.90942   0.16666   0.54716   0.00000  Uiso   1.00
Zn743  Zn    0.83333   0.16666   0.55104   0.00000  Uiso   1.00
Zn744  Zn    0.83333   0.16667   0.44896   0.00000  Uiso   1.00
C745   C     0.16794   0.42010   0.50014   0.00000  Uiso   1.00
C746   C     0.20405   0.35394   0.53238   0.00000  Uiso   1.00
C747   C     0.16462   0.62404   0.49974   0.00000  Uiso   1.00
C748   C     0.16871   0.37596   0.50026   0.00000  Uiso   1.00
C749   C     0.19933   0.52570   0.36156   0.00000  Uiso   1.00
C750   C     0.13401   0.47430   0.63844   0.00000  Uiso   1.00
C751   C     0.19928   0.52570   0.64694   0.00000  Uiso   1.00
C752   C     0.13405   0.47430   0.35306   0.00000  Uiso   1.00
C753   C     0.32692   0.45772   0.44825   0.00000  Uiso   1.00
C754   C     0.31249   0.41699   0.47013   0.00000  Uiso   1.00
C755   C     0.00642   0.54227   0.55175   0.00000  Uiso   1.00
C756   C     0.16540   0.57990   0.49986   0.00000  Uiso   1.00
C757   C     0.02085   0.58301   0.52988   0.00000  Uiso   1.00
C758   C     0.08771   0.62514   0.43343   0.00000  Uiso   1.00
C759   C     0.10312   0.62483   0.38543   0.00000  Uiso   1.00
C760   C     0.24563   0.37486   0.56657   0.00000  Uiso   1.00
C761   C     0.23021   0.37517   0.61457   0.00000  Uiso   1.00
C762   C     0.06727   0.49944   0.48843   0.00000  Uiso   1.00
C763   C     0.26606   0.50056   0.51157   0.00000  Uiso   1.00
C764   C     0.01350   0.49134   0.48404   0.00000  Uiso   1.00
C765   C     0.31984   0.50866   0.51596   0.00000  Uiso   1.00
C766   C     0.13185   0.35583   0.46842   0.00000  Uiso   1.00
C767   C     0.20148   0.64417   0.53158   0.00000  Uiso   1.00
C768   C     0.12928   0.64606   0.46762   0.00000  Uiso   1.00
F769   F     0.09708   0.37844   0.43926   0.00000  Uiso   1.00
F770   F     0.23626   0.62156   0.56074   0.00000  Uiso   1.00
F771   F     0.23208   0.55144   0.38851   0.00000  Uiso   1.00
F772   F     0.10126   0.44856   0.61149   0.00000  Uiso   1.00
F773   F     0.23193   0.55151   0.62852   0.00000  Uiso   1.00
F774   F     0.10141   0.44849   0.37148   0.00000  Uiso   1.00
H775   H     0.01092   0.40702   0.49731   0.00000  Uiso   1.00
H776   H     0.03885   0.53084   0.57729   0.00000  Uiso   1.00
H777   H     0.14066   0.60805   0.38537   0.00000  Uiso   1.00
H778   H     0.07265   0.60861   0.36146   0.00000  Uiso   1.00
H779   H     0.10706   0.65725   0.37307   0.00000  Uiso   1.00
H780   H     0.07985   0.59260   0.44309   0.00000  Uiso   1.00
H781   H     0.05005   0.64201   0.43275   0.00000  Uiso   1.00
H782   H     0.26069   0.39139   0.63854   0.00000  Uiso   1.00
H783   H     0.19267   0.39195   0.61463   0.00000  Uiso   1.00
H784   H     0.22627   0.34275   0.62693   0.00000  Uiso   1.00
H785   H     0.28329   0.35799   0.56725   0.00000  Uiso   1.00
H786   H     0.27590   0.42071   0.48480   0.00000  Uiso   1.00
H787   H     0.25348   0.40740   0.55691   0.00000  Uiso   1.00
H788   H     0.30630   0.39199   0.44370   0.00000  Uiso   1.00
H789   H     0.29448   0.46916   0.42271   0.00000  Uiso   1.00
H790   H     0.02429   0.44927   0.42720   0.00000  Uiso   1.00
H791   H     0.05743   0.57929   0.51520   0.00000  Uiso   1.00
H792   H     0.32241   0.59298   0.50270   0.00000  Uiso   1.00
H793   H     0.02704   0.60801   0.55630   0.00000  Uiso   1.00
H794   H     0.30904   0.55073   0.57280   0.00000  Uiso   1.00
N795   N     0.16665   0.49999   0.61907   0.00000  Uiso   1.00
N796   N     0.16668   0.50001   0.38093   0.00000  Uiso   1.00
O797   O     0.16666   0.43892   0.53821   0.00000  Uiso   1.00
O798   O     0.16667   0.56108   0.46179   0.00000  Uiso   1.00
O799   O     0.16666   0.43893   0.46176   0.00000  Uiso   1.00
O800   O     0.16667   0.56107   0.53824   0.00000  Uiso   1.00
O801   O     0.09058   0.50000   0.52928   0.00000  Uiso   1.00
O802   O     0.24275   0.50000   0.47072   0.00000  Uiso   1.00
O803   O     0.09058   0.50000   0.45284   0.00000  Uiso   1.00
O804   O     0.24275   0.50000   0.54716   0.00000  Uiso   1.00
Zn805  Zn    0.16667   0.49999   0.55104   0.00000  Uiso   1.00
Zn806  Zn    0.16667   0.50001   0.44896   0.00000  Uiso   1.00
C807   C     0.50127   0.42010   0.50014   0.00000  Uiso   1.00
C808   C     0.53739   0.35394   0.53238   0.00000  Uiso   1.00
C809   C     0.49796   0.62404   0.49974   0.00000  Uiso   1.00
C810   C     0.50204   0.37596   0.50026   0.00000  Uiso   1.00
C811   C     0.53266   0.52570   0.36156   0.00000  Uiso   1.00
C812   C     0.46734   0.47430   0.63844   0.00000  Uiso   1.00
C813   C     0.53262   0.52570   0.64694   0.00000  Uiso   1.00
C814   C     0.46738   0.47430   0.35306   0.00000  Uiso   1.00
C815   C     0.66025   0.45772   0.44825   0.00000  Uiso   1.00
C816   C     0.64582   0.41699   0.47013   0.00000  Uiso   1.00
C817   C     0.33975   0.54227   0.55175   0.00000  Uiso   1.00
C818   C     0.49873   0.57990   0.49986   0.00000  Uiso   1.00
C819   C     0.35418   0.58301   0.52988   0.00000  Uiso   1.00
C820   C     0.42104   0.62514   0.43343   0.00000  Uiso   1.00
C821   C     0.43645   0.62483   0.38543   0.00000  Uiso   1.00
C822   C     0.57896   0.37486   0.56657   0.00000  Uiso   1.00
C823   C     0.56355   0.37517   0.61457   0.00000  Uiso   1.00
C824   C     0.40061   0.49944   0.48843   0.00000  Uiso   1.00
C825   C     0.59939   0.50056   0.51157   0.00000  Uiso   1.00
C826   C     0.34683   0.49134   0.48404   0.00000  Uiso   1.00
C827   C     0.65317   0.50866   0.51596   0.00000  Uiso   1.00
C828   C     0.46519   0.35583   0.46842   0.00000  Uiso   1.00
C829   C     0.53481   0.64417   0.53158   0.00000  Uiso   1.00
C830   C     0.46261   0.64606   0.46762   0.00000  Uiso   1.00
F831   F     0.43041   0.37844   0.43926   0.00000  Uiso   1.00
F832   F     0.56959   0.62156   0.56074   0.00000  Uiso   1.00
F833   F     0.56541   0.55144   0.38851   0.00000  Uiso   1.00
F834   F     0.43459   0.44856   0.61149   0.00000  Uiso   1.00
F835   F     0.56526   0.55151   0.62852   0.00000  Uiso   1.00
F836   F     0.43474   0.44849   0.37148   0.00000  Uiso   1.00
H837   H     0.34425   0.40702   0.49731   0.00000  Uiso   1.00
H838   H     0.37219   0.53084   0.57729   0.00000  Uiso   1.00
H839   H     0.47400   0.60805   0.38537   0.00000  Uiso   1.00
H840   H     0.40598   0.60861   0.36146   0.00000  Uiso   1.00
H841   H     0.44039   0.65725   0.37307   0.00000  Uiso   1.00
H842   H     0.41319   0.59260   0.44309   0.00000  Uiso   1.00
H843   H     0.38338   0.64201   0.43275   0.00000  Uiso   1.00
H844   H     0.59402   0.39139   0.63854   0.00000  Uiso   1.00
H845   H     0.52600   0.39195   0.61463   0.00000  Uiso   1.00
H846   H     0.55961   0.34275   0.62693   0.00000  Uiso   1.00
H847   H     0.61662   0.35799   0.56725   0.00000  Uiso   1.00
H848   H     0.60923   0.42071   0.48480   0.00000  Uiso   1.00
H849   H     0.58681   0.40740   0.55691   0.00000  Uiso   1.00
H850   H     0.63963   0.39199   0.44370   0.00000  Uiso   1.00
H851   H     0.62781   0.46916   0.42271   0.00000  Uiso   1.00
H852   H     0.35763   0.44927   0.42720   0.00000  Uiso   1.00
H853   H     0.39077   0.57929   0.51520   0.00000  Uiso   1.00
H854   H     0.65575   0.59298   0.50270   0.00000  Uiso   1.00
H855   H     0.36037   0.60801   0.55630   0.00000  Uiso   1.00
H856   H     0.64237   0.55073   0.57280   0.00000  Uiso   1.00
N857   N     0.49999   0.49999   0.61907   0.00000  Uiso   1.00
N858   N     0.50001   0.50001   0.38093   0.00000  Uiso   1.00
O859   O     0.50000   0.43892   0.53821   0.00000  Uiso   1.00
O860   O     0.50000   0.56108   0.46179   0.00000  Uiso   1.00
O861   O     0.50000   0.43893   0.46176   0.00000  Uiso   1.00
O862   O     0.50000   0.56107   0.53824   0.00000  Uiso   1.00
O863   O     0.42392   0.50000   0.52928   0.00000  Uiso   1.00
O864   O     0.57608   0.50000   0.47072   0.00000  Uiso   1.00
O865   O     0.42392   0.50000   0.45284   0.00000  Uiso   1.00
O866   O     0.57608   0.50000   0.54716   0.00000  Uiso   1.00
Zn867  Zn    0.50000   0.49999   0.55104   0.00000  Uiso   1.00
Zn868  Zn    0.50000   0.50001   0.44896   0.00000  Uiso   1.00
C869   C     0.83460   0.42010   0.50014   0.00000  Uiso   1.00
C870   C     0.87072   0.35394   0.53238   0.00000  Uiso   1.00
C871   C     0.83129   0.62404   0.49974   0.00000  Uiso   1.00
C872   C     0.83538   0.37596   0.50026   0.00000  Uiso   1.00
C873   C     0.86599   0.52570   0.36156   0.00000  Uiso   1.00
C874   C     0.80067   0.47430   0.63844   0.00000  Uiso   1.00
C875   C     0.86595   0.52570   0.64694   0.00000  Uiso   1.00
C876   C     0.80072   0.47430   0.35306   0.00000  Uiso   1.00
C877   C     0.99358   0.45772   0.44825   0.00000  Uiso   1.00
C878   C     0.97915   0.41699   0.47013   0.00000  Uiso   1.00
C879   C     0.67308   0.54227   0.55175   0.00000  Uiso   1.00
C880   C     0.83206   0.57990   0.49986   0.00000  Uiso   1.00
C881   C     0.68751   0.58301   0.52988   0.00000  Uiso   1.00
C882   C     0.75437   0.62514   0.43343   0.00000  Uiso   1.00
C883   C     0.76979   0.62483   0.38543   0.00000  Uiso   1.00
C884   C     0.91229   0.37486   0.56657   0.00000  Uiso   1.00
C885   C     0.89688   0.37517   0.61457   0.00000  Uiso   1.00
C886   C     0.73394   0.49944   0.48843   0.00000  Uiso   1.00
C887   C     0.93273   0.50056   0.51157   0.00000  Uiso   1.00
C888   C     0.68017   0.49134   0.48404   0.00000  Uiso   1.00
C889   C     0.98650   0.50866   0.51596   0.00000  Uiso   1.00
C890   C     0.79852   0.35583   0.46842   0.00000  Uiso   1.00
C891   C     0.86815   0.64417   0.53158   0.00000  Uiso   1.00
C892   C     0.79595   0.64606   0.46762   0.00000  Uiso   1.00
F893   F     0.76374   0.37844   0.43926   0.00000  Uiso   1.00
F894   F     0.90292   0.62156   0.56074   0.00000  Uiso   1.00
F895   F     0.89874   0.55144   0.38851   0.00000  Uiso   1.00
F896   F     0.76792   0.44856   0.61149   0.00000  Uiso   1.00
F897   F     0.89859   0.55151   0.62852   0.00000  Uiso   1.00
F898   F     0.76807   0.44849   0.37148   0.00000  Uiso   1.00
H899   H     0.67759   0.40702   0.49731   0.00000  Uiso   1.00
H900   H     0.70552   0.53084   0.57729   0.00000  Uiso   1.00
H901   H     0.80733   0.60805   0.38537   0.00000  Uiso   1.00
H902   H     0.73931   0.60861   0.36146   0.00000  Uiso   1.00
H903   H     0.77373   0.65725   0.37307   0.00000  Uiso   1.00
H904   H     0.74652   0.59260   0.44309   0.00000  Uiso   1.00
H905   H     0.71671   0.64201   0.43275   0.00000  Uiso   1.00
H906   H     0.92735   0.39139   0.63854   0.00000  Uiso   1.00
H907   H     0.85934   0.39195   0.61463   0.00000  Uiso   1.00
H908   H     0.89294   0.34275   0.62693   0.00000  Uiso   1.00
H909   H     0.94995   0.35799   0.56725   0.00000  Uiso   1.00
H910   H     0.94257   0.42071   0.48480   0.00000  Uiso   1.00
H911   H     0.92015   0.40740   0.55691   0.00000  Uiso   1.00
H912   H     0.97296   0.39199   0.44370   0.00000  Uiso   1.00
H913   H     0.96115   0.46916   0.42271   0.00000  Uiso   1.00
H914   H     0.69096   0.44927   0.42720   0.00000  Uiso   1.00
H915   H     0.72410   0.57929   0.51520   0.00000  Uiso   1.00
H916   H     0.98908   0.59298   0.50270   0.00000  Uiso   1.00
H917   H     0.69371   0.60801   0.55630   0.00000  Uiso   1.00
H918   H     0.97571   0.55073   0.57280   0.00000  Uiso   1.00
N919   N     0.83332   0.49999   0.61907   0.00000  Uiso   1.00
N920   N     0.83335   0.50001   0.38093   0.00000  Uiso   1.00
O921   O     0.83333   0.43892   0.53821   0.00000  Uiso   1.00
O922   O     0.83334   0.56108   0.46179   0.00000  Uiso   1.00
O923   O     0.83333   0.43893   0.46176   0.00000  Uiso   1.00
O924   O     0.83334   0.56107   0.53824   0.00000  Uiso   1.00
O925   O     0.75725   0.50000   0.52928   0.00000  Uiso   1.00
O926   O     0.90942   0.50000   0.47072   0.00000  Uiso   1.00
O927   O     0.75725   0.50000   0.45284   0.00000  Uiso   1.00
O928   O     0.90942   0.50000   0.54716   0.00000  Uiso   1.00
Zn929  Zn    0.83333   0.49999   0.55104   0.00000  Uiso   1.00
Zn930  Zn    0.83333   0.50001   0.44896   0.00000  Uiso   1.00
C931   C     0.16794   0.75343   0.50014   0.00000  Uiso   1.00
C932   C     0.20405   0.68727   0.53238   0.00000  Uiso   1.00
C933   C     0.16462   0.95737   0.49974   0.00000  Uiso   1.00
C934   C     0.16871   0.70930   0.50026   0.00000  Uiso   1.00
C935   C     0.19933   0.85903   0.36156   0.00000  Uiso   1.00
C936   C     0.13401   0.80764   0.63844   0.00000  Uiso   1.00
C937   C     0.19928   0.85904   0.64694   0.00000  Uiso   1.00
C938   C     0.13405   0.80763   0.35306   0.00000  Uiso   1.00
C939   C     0.32692   0.79106   0.44825   0.00000  Uiso   1.00
C940   C     0.31249   0.75033   0.47013   0.00000  Uiso   1.00
C941   C     0.00642   0.87561   0.55175   0.00000  Uiso   1.00
C942   C     0.16540   0.91324   0.49986   0.00000  Uiso   1.00
C943   C     0.02085   0.91634   0.52988   0.00000  Uiso   1.00
C944   C     0.08771   0.95847   0.43343   0.00000  Uiso   1.00
C945   C     0.10312   0.95816   0.38543   0.00000  Uiso   1.00
C946   C     0.24563   0.70820   0.56657   0.00000  Uiso   1.00
C947   C     0.23021   0.70850   0.61457   0.00000  Uiso   1.00
C948   C     0.06727   0.83277   0.48843   0.00000  Uiso   1.00
C949   C     0.26606   0.83390   0.51157   0.00000  Uiso   1.00
C950   C     0.01350   0.82467   0.48404   0.00000  Uiso   1.00
C951   C     0.31984   0.84199   0.51596   0.00000  Uiso   1.00
C952   C     0.13185   0.68917   0.46842   0.00000  Uiso   1.00
C953   C     0.20148   0.97750   0.53158   0.00000  Uiso   1.00
C954   C     0.12928   0.97939   0.46762   0.00000  Uiso   1.00
F955   F     0.09708   0.71177   0.43926   0.00000  Uiso   1.00
F956   F     0.23626   0.95490   0.56074   0.00000  Uiso   1.00
F957   F     0.23208   0.88478   0.38851   0.00000  Uiso   1.00
F958   F     0.10126   0.78189   0.61149   0.00000  Uiso   1.00
F959   F     0.23193   0.88484   0.62852   0.00000  Uiso   1.00
F960   F     0.10141   0.78183   0.37148   0.00000  Uiso   1.00
H961   H     0.01092   0.74035   0.49731   0.00000  Uiso   1.00
H962   H     0.03885   0.86418   0.57729   0.00000  Uiso   1.00
H963   H     0.14066   0.94138   0.38537   0.00000  Uiso   1.00
H964   H     0.07265   0.94195   0.36146   0.00000  Uiso   1.00
H965   H     0.10706   0.99058   0.37307   0.00000  Uiso   1.00
H966   H     0.07985   0.92593   0.44309   0.00000  Uiso   1.00
H967   H     0.05005   0.97534   0.43275   0.00000  Uiso   1.00
H968   H     0.26069   0.72472   0.63854   0.00000  Uiso   1.00
H969   H     0.19267   0.72528   0.61463   0.00000  Uiso   1.00
H970   H     0.22627   0.67609   0.62693   0.00000  Uiso   1.00
H971   H     0.28329   0.69132   0.56725   0.00000  Uiso   1.00
H972   H     0.27590   0.75405   0.48480   0.00000  Uiso   1.00
H973   H     0.25348   0.74073   0.55691   0.00000  Uiso   1.00
H974   H     0.30630   0.72532   0.44370   0.00000  Uiso   1.00
H975   H     0.29448   0.80249   0.42271   0.00000  Uiso   1.00
H976   H     0.02429   0.78260   0.42720   0.00000  Uiso   1.00
H977   H     0.05743   0.91262   0.51520   0.00000  Uiso   1.00
H978   H     0.32241   0.92631   0.50270   0.00000  Uiso   1.00
H979   H     0.02704   0.94134   0.55630   0.00000  Uiso   1.00
H980   H     0.30904   0.88407   0.57280   0.00000  Uiso   1.00
N981   N     0.16665   0.83332   0.61907   0.00000  Uiso   1.00
N982   N     0.16668   0.83334   0.38093   0.00000  Uiso   1.00
O983   O     0.16666   0.77225   0.53821   0.00000  Uiso   1.00
O984   O     0.16667   0.89442   0.46179   0.00000  Uiso   1.00
O985   O     0.16666   0.77226   0.46176   0.00000  Uiso   1.00
O986   O     0.16667   0.89441   0.53824   0.00000  Uiso   1.00
O987   O     0.09058   0.83333   0.52928   0.00000  Uiso   1.00
O988   O     0.24275   0.83334   0.47072   0.00000  Uiso   1.00
O989   O     0.09058   0.83334   0.45284   0.00000  Uiso   1.00
O990   O     0.24275   0.83333   0.54716   0.00000  Uiso   1.00
Zn991  Zn    0.16667   0.83333   0.55104   0.00000  Uiso   1.00
Zn992  Zn    0.16667   0.83334   0.44896   0.00000  Uiso   1.00
C993   C     0.50127   0.75343   0.50014   0.00000  Uiso   1.00
C994   C     0.53739   0.68727   0.53238   0.00000  Uiso   1.00
C995   C     0.49796   0.95737   0.49974   0.00000  Uiso   1.00
C996   C     0.50204   0.70930   0.50026   0.00000  Uiso   1.00
C997   C     0.53266   0.85903   0.36156   0.00000  Uiso   1.00
C998   C     0.46734   0.80764   0.63844   0.00000  Uiso   1.00
C999   C     0.53262   0.85904   0.64694   0.00000  Uiso   1.00
C1000  C     0.46738   0.80763   0.35306   0.00000  Uiso   1.00
C1001  C     0.66025   0.79106   0.44825   0.00000  Uiso   1.00
C1002  C     0.64582   0.75033   0.47013   0.00000  Uiso   1.00
C1003  C     0.33975   0.87561   0.55175   0.00000  Uiso   1.00
C1004  C     0.49873   0.91324   0.49986   0.00000  Uiso   1.00
C1005  C     0.35418   0.91634   0.52988   0.00000  Uiso   1.00
C1006  C     0.42104   0.95847   0.43343   0.00000  Uiso   1.00
C1007  C     0.43645   0.95816   0.38543   0.00000  Uiso   1.00
C1008  C     0.57896   0.70820   0.56657   0.00000  Uiso   1.00
C1009  C     0.56355   0.70850   0.61457   0.00000  Uiso   1.00
C1010  C     0.40061   0.83277   0.48843   0.00000  Uiso   1.00
C1011  C     0.59939   0.83390   0.51157   0.00000  Uiso   1.00
C1012  C     0.34683   0.82467   0.48404   0.00000  Uiso   1.00
C1013  C     0.65317   0.84199   0.51596   0.00000  Uiso   1.00
C1014  C     0.46519   0.68917   0.46842   0.00000  Uiso   1.00
C1015  C     0.53481   0.97750   0.53158   0.00000  Uiso   1.00
C1016  C     0.46261   0.97939   0.46762   0.00000  Uiso   1.00
F1017  F     0.43041   0.71177   0.43926   0.00000  Uiso   1.00
F1018  F     0.56959   0.95490   0.56074   0.00000  Uiso   1.00
F1019  F     0.56541   0.88478   0.38851   0.00000  Uiso   1.00
F1020  F     0.43459   0.78189   0.61149   0.00000  Uiso   1.00
F1021  F     0.56526   0.88484   0.62852   0.00000  Uiso   1.00
F1022  F     0.43474   0.78183   0.37148   0.00000  Uiso   1.00
H1023  H     0.34425   0.74035   0.49731   0.00000  Uiso   1.00
H1024  H     0.37219   0.86418   0.57729   0.00000  Uiso   1.00
H1025  H     0.47400   0.94138   0.38537   0.00000  Uiso   1.00
H1026  H     0.40598   0.94195   0.36146   0.00000  Uiso   1.00
H1027  H     0.44039   0.99058   0.37307   0.00000  Uiso   1.00
H1028  H     0.41319   0.92593   0.44309   0.00000  Uiso   1.00
H1029  H     0.38338   0.97534   0.43275   0.00000  Uiso   1.00
H1030  H     0.59402   0.72472   0.63854   0.00000  Uiso   1.00
H1031  H     0.52600   0.72528   0.61463   0.00000  Uiso   1.00
H1032  H     0.55961   0.67609   0.62693   0.00000  Uiso   1.00
H1033  H     0.61662   0.69132   0.56725   0.00000  Uiso   1.00
H1034  H     0.60923   0.75405   0.48480   0.00000  Uiso   1.00
H1035  H     0.58681   0.74073   0.55691   0.00000  Uiso   1.00
H1036  H     0.63963   0.72532   0.44370   0.00000  Uiso   1.00
H1037  H     0.62781   0.80249   0.42271   0.00000  Uiso   1.00
H1038  H     0.35763   0.78260   0.42720   0.00000  Uiso   1.00
H1039  H     0.39077   0.91262   0.51520   0.00000  Uiso   1.00
H1040  H     0.65575   0.92631   0.50270   0.00000  Uiso   1.00
H1041  H     0.36037   0.94134   0.55630   0.00000  Uiso   1.00
H1042  H     0.64237   0.88407   0.57280   0.00000  Uiso   1.00
N1043  N     0.49999   0.83332   0.61907   0.00000  Uiso   1.00
N1044  N     0.50001   0.83334   0.38093   0.00000  Uiso   1.00
O1045  O     0.50000   0.77225   0.53821   0.00000  Uiso   1.00
O1046  O     0.50000   0.89442   0.46179   0.00000  Uiso   1.00
O1047  O     0.50000   0.77226   0.46176   0.00000  Uiso   1.00
O1048  O     0.50000   0.89441   0.53824   0.00000  Uiso   1.00
O1049  O     0.42392   0.83333   0.52928   0.00000  Uiso   1.00
O1050  O     0.57608   0.83334   0.47072   0.00000  Uiso   1.00
O1051  O     0.42392   0.83334   0.45284   0.00000  Uiso   1.00
O1052  O     0.57608   0.83333   0.54716   0.00000  Uiso   1.00
Zn1053 Zn    0.50000   0.83333   0.55104   0.00000  Uiso   1.00
Zn1054 Zn    0.50000   0.83334   0.44896   0.00000  Uiso   1.00
C1055  C     0.83460   0.75343   0.50014   0.00000  Uiso   1.00
C1056  C     0.87072   0.68727   0.53238   0.00000  Uiso   1.00
C1057  C     0.83129   0.95737   0.49974   0.00000  Uiso   1.00
C1058  C     0.83538   0.70930   0.50026   0.00000  Uiso   1.00
C1059  C     0.86599   0.85903   0.36156   0.00000  Uiso   1.00
C1060  C     0.80067   0.80764   0.63844   0.00000  Uiso   1.00
C1061  C     0.86595   0.85904   0.64694   0.00000  Uiso   1.00
C1062  C     0.80072   0.80763   0.35306   0.00000  Uiso   1.00
C1063  C     0.99358   0.79106   0.44825   0.00000  Uiso   1.00
C1064  C     0.97915   0.75033   0.47013   0.00000  Uiso   1.00
C1065  C     0.67308   0.87561   0.55175   0.00000  Uiso   1.00
C1066  C     0.83206   0.91324   0.49986   0.00000  Uiso   1.00
C1067  C     0.68751   0.91634   0.52988   0.00000  Uiso   1.00
C1068  C     0.75437   0.95847   0.43343   0.00000  Uiso   1.00
C1069  C     0.76979   0.95816   0.38543   0.00000  Uiso   1.00
C1070  C     0.91229   0.70820   0.56657   0.00000  Uiso   1.00
C1071  C     0.89688   0.70850   0.61457   0.00000  Uiso   1.00
C1072  C     0.73394   0.83277   0.48843   0.00000  Uiso   1.00
C1073  C     0.93273   0.83390   0.51157   0.00000  Uiso   1.00
C1074  C     0.68017   0.82467   0.48404   0.00000  Uiso   1.00
C1075  C     0.98650   0.84199   0.51596   0.00000  Uiso   1.00
C1076  C     0.79852   0.68917   0.46842   0.00000  Uiso   1.00
C1077  C     0.86815   0.97750   0.53158   0.00000  Uiso   1.00
C1078  C     0.79595   0.97939   0.46762   0.00000  Uiso   1.00
F1079  F     0.76374   0.71177   0.43926   0.00000  Uiso   1.00
F1080  F     0.90292   0.95490   0.56074   0.00000  Uiso   1.00
F1081  F     0.89874   0.88478   0.38851   0.00000  Uiso   1.00
F1082  F     0.76792   0.78189   0.61149   0.00000  Uiso   1.00
F1083  F     0.89859   0.88484   0.62852   0.00000  Uiso   1.00
F1084  F     0.76807   0.78183   0.37148   0.00000  Uiso   1.00
H1085  H     0.67759   0.74035   0.49731   0.00000  Uiso   1.00
H1086  H     0.70552   0.86418   0.57729   0.00000  Uiso   1.00
H1087  H     0.80733   0.94138   0.38537   0.00000  Uiso   1.00
H1088  H     0.73931   0.94195   0.36146   0.00000  Uiso   1.00
H1089  H     0.77373   0.99058   0.37307   0.00000  Uiso   1.00
H1090  H     0.74652   0.92593   0.44309   0.00000  Uiso   1.00
H1091  H     0.71671   0.97534   0.43275   0.00000  Uiso   1.00
H1092  H     0.92735   0.72472   0.63854   0.00000  Uiso   1.00
H1093  H     0.85934   0.72528   0.61463   0.00000  Uiso   1.00
H1094  H     0.89294   0.67609   0.62693   0.00000  Uiso   1.00
H1095  H     0.94995   0.69132   0.56725   0.00000  Uiso   1.00
H1096  H     0.94257   0.75405   0.48480   0.00000  Uiso   1.00
H1097  H     0.92015   0.74073   0.55691   0.00000  Uiso   1.00
H1098  H     0.97296   0.72532   0.44370   0.00000  Uiso   1.00
H1099  H     0.96115   0.80249   0.42271   0.00000  Uiso   1.00
H1100  H     0.69096   0.78260   0.42720   0.00000  Uiso   1.00
H1101  H     0.72410   0.91262   0.51520   0.00000  Uiso   1.00
H1102  H     0.98908   0.92631   0.50270   0.00000  Uiso   1.00
H1103  H     0.69371   0.94134   0.55630   0.00000  Uiso   1.00
H1104  H     0.97571   0.88407   0.57280   0.00000  Uiso   1.00
N1105  N     0.83332   0.83332   0.61907   0.00000  Uiso   1.00
N1106  N     0.83335   0.83334   0.38093   0.00000  Uiso   1.00
O1107  O     0.83333   0.77225   0.53821   0.00000  Uiso   1.00
O1108  O     0.83334   0.89442   0.46179   0.00000  Uiso   1.00
O1109  O     0.83333   0.77226   0.46176   0.00000  Uiso   1.00
O1110  O     0.83334   0.89441   0.53824   0.00000  Uiso   1.00
O1111  O     0.75725   0.83333   0.52928   0.00000  Uiso   1.00
O1112  O     0.90942   0.83334   0.47072   0.00000  Uiso   1.00
O1113  O     0.75725   0.83334   0.45284   0.00000  Uiso   1.00
O1114  O     0.90942   0.83333   0.54716   0.00000  Uiso   1.00
Zn1115 Zn    0.83333   0.83333   0.55104   0.00000  Uiso   1.00
Zn1116 Zn    0.83333   0.83334   0.44896   0.00000  Uiso   1.00
C1117  C     0.16794   0.08676   0.83347   0.00000  Uiso   1.00
C1118  C     0.20405   0.02060   0.86571   0.00000  Uiso   1.00
C1119  C     0.16462   0.29070   0.83307   0.00000  Uiso   1.00
C1120  C     0.16871   0.04263   0.83360   0.00000  Uiso   1.00
C1121  C     0.19933   0.19236   0.69490   0.00000  Uiso   1.00
C1122  C     0.13401   0.14097   0.97177   0.00000  Uiso   1.00
C1123  C     0.19928   0.19237   0.98027   0.00000  Uiso   1.00
C1124  C     0.13405   0.14096   0.68640   0.00000  Uiso   1.00
C1125  C     0.32692   0.12439   0.78159   0.00000  Uiso   1.00
C1126  C     0.31249   0.08366   0.80346   0.00000  Uiso   1.00
C1127  C     0.00642   0.20894   0.88508   0.00000  Uiso   1.00
C1128  C     0.16540   0.24657   0.83319   0.00000  Uiso   1.00
C1129  C     0.02085   0.24967   0.86321   0.00000  Uiso   1.00
C1130  C     0.08771   0.29180   0.76677   0.00000  Uiso   1.00
C1131  C     0.10312   0.29150   0.71876   0.00000  Uiso   1.00
C1132  C     0.24563   0.04153   0.89990   0.00000  Uiso   1.00
C1133  C     0.23021   0.04184   0.94790   0.00000  Uiso   1.00
C1134  C     0.06727   0.16610   0.82177   0.00000  Uiso   1.00
C1135  C     0.26606   0.16723   0.84490   0.00000  Uiso   1.00
C1136  C     0.01350   0.15801   0.81738   0.00000  Uiso   1.00
C1137  C     0.31984   0.17533   0.84929   0.00000  Uiso   1.00
C1138  C     0.13185   0.02250   0.80175   0.00000  Uiso   1.00
C1139  C     0.20148   0.31083   0.86491   0.00000  Uiso   1.00
C1140  C     0.12928   0.31273   0.80095   0.00000  Uiso   1.00
F1141  F     0.09708   0.04510   0.77259   0.00000  Uiso   1.00
F1142  F     0.23626   0.28823   0.89407   0.00000  Uiso   1.00
F1143  F     0.23208   0.21811   0.72184   0.00000  Uiso   1.00
F1144  F     0.10126   0.11522   0.94483   0.00000  Uiso   1.00
F1145  F     0.23193   0.21817   0.96185   0.00000  Uiso   1.00
F1146  F     0.10141   0.11516   0.70481   0.00000  Uiso   1.00
H1147  H     0.01092   0.07369   0.83064   0.00000  Uiso   1.00
H1148  H     0.03885   0.19751   0.91063   0.00000  Uiso   1.00
H1149  H     0.14066   0.27472   0.71871   0.00000  Uiso   1.00
H1150  H     0.07265   0.27528   0.69479   0.00000  Uiso   1.00
H1151  H     0.10706   0.32391   0.70640   0.00000  Uiso   1.00
H1152  H     0.07985   0.25927   0.77642   0.00000  Uiso   1.00
H1153  H     0.05005   0.30868   0.76609   0.00000  Uiso   1.00
H1154  H     0.26069   0.05805   0.97187   0.00000  Uiso   1.00
H1155  H     0.19267   0.05862   0.94796   0.00000  Uiso   1.00
H1156  H     0.22627   0.00942   0.96027   0.00000  Uiso   1.00
H1157  H     0.28329   0.02466   0.90058   0.00000  Uiso   1.00
H1158  H     0.27590   0.08738   0.81813   0.00000  Uiso   1.00
H1159  H     0.25348   0.07407   0.89025   0.00000  Uiso   1.00
H1160  H     0.30630   0.05865   0.77703   0.00000  Uiso   1.00
H1161  H     0.29448   0.13582   0.75604   0.00000  Uiso   1.00
H1162  H     0.02429   0.11593   0.76053   0.00000  Uiso   1.00
H1163  H     0.05743   0.24595   0.84853   0.00000  Uiso   1.00
H1164  H     0.32241   0.25965   0.83603   0.00000  Uiso   1.00
H1165  H     0.02704   0.27468   0.88964   0.00000  Uiso   1.00
H1166  H     0.30904   0.21740   0.90614   0.00000  Uiso   1.00
N1167  N     0.16665   0.16666   0.95240   0.00000  Uiso   1.00
N1168  N     0.16668   0.16668   0.71427   0.00000  Uiso   1.00
O1169  O     0.16666   0.10558   0.87154   0.00000  Uiso   1.00
O1170  O     0.16667   0.22775   0.79513   0.00000  Uiso   1.00
O1171  O     0.16666   0.10559   0.79510   0.00000  Uiso   1.00
O1172  O     0.16667   0.22774   0.87157   0.00000  Uiso   1.00
O1173  O     0.09058   0.16666   0.86261   0.00000  Uiso   1.00
O1174  O     0.24275   0.16667   0.80405   0.00000  Uiso   1.00
O1175  O     0.09058   0.16667   0.78617   0.00000  Uiso   1.00
O1176  O     0.24275   0.16666   0.88050   0.00000  Uiso   1.00
Zn1177 Zn    0.16667   0.16666   0.88437   0.00000  Uiso   1.00
Zn1178 Zn    0.16667   0.16667   0.78229   0.00000  Uiso   1.00
C1179  C     0.50127   0.08676   0.83347   0.00000  Uiso   1.00
C1180  C     0.53739   0.02060   0.86571   0.00000  Uiso   1.00
C1181  C     0.49796   0.29070   0.83307   0.00000  Uiso   1.00
C1182  C     0.50204   0.04263   0.83360   0.00000  Uiso   1.00
C1183  C     0.53266   0.19236   0.69490   0.00000  Uiso   1.00
C1184  C     0.46734   0.14097   0.97177   0.00000  Uiso   1.00
C1185  C     0.53262   0.19237   0.98027   0.00000  Uiso   1.00
C1186  C     0.46738   0.14096   0.68640   0.00000  Uiso   1.00
C1187  C     0.66025   0.12439   0.78159   0.00000  Uiso   1.00
C1188  C     0.64582   0.08366   0.80346   0.00000  Uiso   1.00
C1189  C     0.33975   0.20894   0.88508   0.00000  Uiso   1.00
C1190  C     0.49873   0.24657   0.83319   0.00000  Uiso   1.00
C1191  C     0.35418   0.24967   0.86321   0.00000  Uiso   1.00
C1192  C     0.42104   0.29180   0.76677   0.00000  Uiso   1.00
C1193  C     0.43645   0.29150   0.71876   0.00000  Uiso   1.00
C1194  C     0.57896   0.04153   0.89990   0.00000  Uiso   1.00
C1195  C     0.56355   0.04184   0.94790   0.00000  Uiso   1.00
C1196  C     0.40061   0.16610   0.82177   0.00000  Uiso   1.00
C1197  C     0.59939   0.16723   0.84490   0.00000  Uiso   1.00
C1198  C     0.34683   0.15801   0.81738   0.00000  Uiso   1.00
C1199  C     0.65317   0.17533   0.84929   0.00000  Uiso   1.00
C1200  C     0.46519   0.02250   0.80175   0.00000  Uiso   1.00
C1201  C     0.53481   0.31083   0.86491   0.00000  Uiso   1.00
C1202  C     0.46261   0.31273   0.80095   0.00000  Uiso   1.00
F1203  F     0.43041   0.04510   0.77259   0.00000  Uiso   1.00
F1204  F     0.56959   0.28823   0.89407   0.00000  Uiso   1.00
F1205  F     0.56541   0.21811   0.72184   0.00000  Uiso   1.00
F1206  F     0.43459   0.11522   0.94483   0.00000  Uiso   1.00
F1207  F     0.56526   0.21817   0.96185   0.00000  Uiso   1.00
F1208  F     0.43474   0.11516   0.70481   0.00000  Uiso   1.00
H1209  H     0.34425   0.07369   0.83064   0.00000  Uiso   1.00
H1210  H     0.37219   0.19751   0.91063   0.00000  Uiso   1.00
H1211  H     0.47400   0.27472   0.71871   0.00000  Uiso   1.00
H1212  H     0.40598   0.27528   0.69479   0.00000  Uiso   1.00
H1213  H     0.44039   0.32391   0.70640   0.00000  Uiso   1.00
H1214  H     0.41319   0.25927   0.77642   0.00000  Uiso   1.00
H1215  H     0.38338   0.30868   0.76609   0.00000  Uiso   1.00
H1216  H     0.59402   0.05805   0.97187   0.00000  Uiso   1.00
H1217  H     0.52600   0.05862   0.94796   0.00000  Uiso   1.00
H1218  H     0.55961   0.00942   0.96027   0.00000  Uiso   1.00
H1219  H     0.61662   0.02466   0.90058   0.00000  Uiso   1.00
H1220  H     0.60923   0.08738   0.81813   0.00000  Uiso   1.00
H1221  H     0.58681   0.07407   0.89025   0.00000  Uiso   1.00
H1222  H     0.63963   0.05865   0.77703   0.00000  Uiso   1.00
H1223  H     0.62781   0.13582   0.75604   0.00000  Uiso   1.00
H1224  H     0.35763   0.11593   0.76053   0.00000  Uiso   1.00
H1225  H     0.39077   0.24595   0.84853   0.00000  Uiso   1.00
H1226  H     0.65575   0.25965   0.83603   0.00000  Uiso   1.00
H1227  H     0.36037   0.27468   0.88964   0.00000  Uiso   1.00
H1228  H     0.64237   0.21740   0.90614   0.00000  Uiso   1.00
N1229  N     0.49999   0.16666   0.95240   0.00000  Uiso   1.00
N1230  N     0.50001   0.16668   0.71427   0.00000  Uiso   1.00
O1231  O     0.50000   0.10558   0.87154   0.00000  Uiso   1.00
O1232  O     0.50000   0.22775   0.79513   0.00000  Uiso   1.00
O1233  O     0.50000   0.10559   0.79510   0.00000  Uiso   1.00
O1234  O     0.50000   0.22774   0.87157   0.00000  Uiso   1.00
O1235  O     0.42392   0.16666   0.86261   0.00000  Uiso   1.00
O1236  O     0.57608   0.16667   0.80405   0.00000  Uiso   1.00
O1237  O     0.42392   0.16667   0.78617   0.00000  Uiso   1.00
O1238  O     0.57608   0.16666   0.88050   0.00000  Uiso   1.00
Zn1239 Zn    0.50000   0.16666   0.88437   0.00000  Uiso   1.00
Zn1240 Zn    0.50000   0.16667   0.78229   0.00000  Uiso   1.00
C1241  C     0.83460   0.08676   0.83347   0.00000  Uiso   1.00
C1242  C     0.87072   0.02060   0.86571   0.00000  Uiso   1.00
C1243  C     0.83129   0.29070   0.83307   0.00000  Uiso   1.00
C1244  C     0.83538   0.04263   0.83360   0.00000  Uiso   1.00
C1245  C     0.86599   0.19236   0.69490   0.00000  Uiso   1.00
C1246  C     0.80067   0.14097   0.97177   0.00000  Uiso   1.00
C1247  C     0.86595   0.19237   0.98027   0.00000  Uiso   1.00
C1248  C     0.80072   0.14096   0.68640   0.00000  Uiso   1.00
C1249  C     0.99358   0.12439   0.78159   0.00000  Uiso   1.00
C1250  C     0.97915   0.08366   0.80346   0.00000  Uiso   1.00
C1251  C     0.67308   0.20894   0.88508   0.00000  Uiso   1.00
C1252  C     0.83206   0.24657   0.83319   0.00000  Uiso   1.00
C1253  C     0.68751   0.24967   0.86321   0.00000  Uiso   1.00
C1254  C     0.75437   0.29180   0.76677   0.00000  Uiso   1.00
C1255  C     0.76979   0.29150   0.71876   0.00000  Uiso   1.00
C1256  C     0.91229   0.04153   0.89990   0.00000  Uiso   1.00
C1257  C     0.89688   0.04184   0.94790   0.00000  Uiso   1.00
C1258  C     0.73394   0.16610   0.82177   0.00000  Uiso   1.00
C1259  C     0.93273   0.16723   0.84490   0.00000  Uiso   1.00
C1260  C     0.68017   0.15801   0.81738   0.00000  Uiso   1.00
C1261  C     0.98650   0.17533   0.84929   0.00000  Uiso   1.00
C1262  C     0.79852   0.02250   0.80175   0.00000  Uiso   1.00
C1263  C     0.86815   0.31083   0.86491   0.00000  Uiso   1.00
C1264  C     0.79595   0.31273   0.80095   0.00000  Uiso   1.00
F1265  F     0.76374   0.04510   0.77259   0.00000  Uiso   1.00
F1266  F     0.90292   0.28823   0.89407   0.00000  Uiso   1.00
F1267  F     0.89874   0.21811   0.72184   0.00000  Uiso   1.00
F1268  F     0.76792   0.11522   0.94483   0.00000  Uiso   1.00
F1269  F     0.89859   0.21817   0.96185   0.00000  Uiso   1.00
F1270  F     0.76807   0.11516   0.70481   0.00000  Uiso   1.00
H1271  H     0.67759   0.07369   0.83064   0.00000  Uiso   1.00
H1272  H     0.70552   0.19751   0.91063   0.00000  Uiso   1.00
H1273  H     0.80733   0.27472   0.71871   0.00000  Uiso   1.00
H1274  H     0.73931   0.27528   0.69479   0.00000  Uiso   1.00
H1275  H     0.77373   0.32391   0.70640   0.00000  Uiso   1.00
H1276  H     0.74652   0.25927   0.77642   0.00000  Uiso   1.00
H1277  H     0.71671   0.30868   0.76609   0.00000  Uiso   1.00
H1278  H     0.92735   0.05805   0.97187   0.00000  Uiso   1.00
H1279  H     0.85934   0.05862   0.94796   0.00000  Uiso   1.00
H1280  H     0.89294   0.00942   0.96027   0.00000  Uiso   1.00
H1281  H     0.94995   0.02466   0.90058   0.00000  Uiso   1.00
H1282  H     0.94257   0.08738   0.81813   0.00000  Uiso   1.00
H1283  H     0.92015   0.07407   0.89025   0.00000  Uiso   1.00
H1284  H     0.97296   0.05865   0.77703   0.00000  Uiso   1.00
H1285  H     0.96115   0.13582   0.75604   0.00000  Uiso   1.00
H1286  H     0.69096   0.11593   0.76053   0.00000  Uiso   1.00
H1287  H     0.72410   0.24595   0.84853   0.00000  Uiso   1.00
H1288  H     0.98908   0.25965   0.83603   0.00000  Uiso   1.00
H1289  H     0.69371   0.27468   0.88964   0.00000  Uiso   1.00
H1290  H     0.97571   0.21740   0.90614   0.00000  Uiso   1.00
N1291  N     0.83332   0.16666   0.95240   0.00000  Uiso   1.00
N1292  N     0.83335   0.16668   0.71427   0.00000  Uiso   1.00
O1293  O     0.83333   0.10558   0.87154   0.00000  Uiso   1.00
O1294  O     0.83334   0.22775   0.79513   0.00000  Uiso   1.00
O1295  O     0.83333   0.10559   0.79510   0.00000  Uiso   1.00
O1296  O     0.83334   0.22774   0.87157   0.00000  Uiso   1.00
O1297  O     0.75725   0.16666   0.86261   0.00000  Uiso   1.00
O1298  O     0.90942   0.16667   0.80405   0.00000  Uiso   1.00
O1299  O     0.75725   0.16667   0.78617   0.00000  Uiso   1.00
O1300  O     0.90942   0.16666   0.88050   0.00000  Uiso   1.00
Zn1301 Zn    0.83333   0.16666   0.88437   0.00000  Uiso   1.00
Zn1302 Zn    0.83333   0.16667   0.78229   0.00000  Uiso   1.00
C1303  C     0.16794   0.42010   0.83347   0.00000  Uiso   1.00
C1304  C     0.20405   0.35394   0.86571   0.00000  Uiso   1.00
C1305  C     0.16462   0.62404   0.83307   0.00000  Uiso   1.00
C1306  C     0.16871   0.37596   0.83360   0.00000  Uiso   1.00
C1307  C     0.19933   0.52570   0.69490   0.00000  Uiso   1.00
C1308  C     0.13401   0.47430   0.97177   0.00000  Uiso   1.00
C1309  C     0.19928   0.52570   0.98027   0.00000  Uiso   1.00
C1310  C     0.13405   0.47430   0.68640   0.00000  Uiso   1.00
C1311  C     0.32692   0.45772   0.78159   0.00000  Uiso   1.00
C1312  C     0.31249   0.41699   0.80346   0.00000  Uiso   1.00
C1313  C     0.00642   0.54227   0.88508   0.00000  Uiso   1.00
C1314  C     0.16540   0.57990   0.83319   0.00000  Uiso   1.00
C1315  C     0.02085   0.58301   0.86321   0.00000  Uiso   1.00
C1316  C     0.08771   0.62514   0.76677   0.00000  Uiso   1.00
C1317  C     0.10312   0.62483   0.71876   0.00000  Uiso   1.00
C1318  C     0.24563   0.37486   0.89990   0.00000  Uiso   1.00
C1319  C     0.23021   0.37517   0.94790   0.00000  Uiso   1.00
C1320  C     0.06727   0.49944   0.82177   0.00000  Uiso   1.00
C1321  C     0.26606   0.50056   0.84490   0.00000  Uiso   1.00
C1322  C     0.01350   0.49134   0.81738   0.00000  Uiso   1.00
C1323  C     0.31984   0.50866   0.84929   0.00000  Uiso   1.00
C1324  C     0.13185   0.35583   0.80175   0.00000  Uiso   1.00
C1325  C     0.20148   0.64417   0.86491   0.00000  Uiso   1.00
C1326  C     0.12928   0.64606   0.80095   0.00000  Uiso   1.00
F1327  F     0.09708   0.37844   0.77259   0.00000  Uiso   1.00
F1328  F     0.23626   0.62156   0.89407   0.00000  Uiso   1.00
F1329  F     0.23208   0.55144   0.72184   0.00000  Uiso   1.00
F1330  F     0.10126   0.44856   0.94483   0.00000  Uiso   1.00
F1331  F     0.23193   0.55151   0.96185   0.00000  Uiso   1.00
F1332  F     0.10141   0.44849   0.70481   0.00000  Uiso   1.00
H1333  H     0.01092   0.40702   0.83064   0.00000  Uiso   1.00
H1334  H     0.03885   0.53084   0.91063   0.00000  Uiso   1.00
H1335  H     0.14066   0.60805   0.71871   0.00000  Uiso   1.00
H1336  H     0.07265   0.60861   0.69479   0.00000  Uiso   1.00
H1337  H     0.10706   0.65725   0.70640   0.00000  Uiso   1.00
H1338  H     0.07985   0.59260   0.77642   0.00000  Uiso   1.00
H1339  H     0.05005   0.64201   0.76609   0.00000  Uiso   1.00
H1340  H     0.26069   0.39139   0.97187   0.00000  Uiso   1.00
H1341  H     0.19267   0.39195   0.94796   0.00000  Uiso   1.00
H1342  H     0.22627   0.34275   0.96027   0.00000  Uiso   1.00
H1343  H     0.28329   0.35799   0.90058   0.00000  Uiso   1.00
H1344  H     0.27590   0.42071   0.81813   0.00000  Uiso   1.00
H1345  H     0.25348   0.40740   0.89025   0.00000  Uiso   1.00
H1346  H     0.30630   0.39199   0.77703   0.00000  Uiso   1.00
H1347  H     0.29448   0.46916   0.75604   0.00000  Uiso   1.00
H1348  H     0.02429   0.44927   0.76053   0.00000  Uiso   1.00
H1349  H     0.05743   0.57929   0.84853   0.00000  Uiso   1.00
H1350  H     0.32241   0.59298   0.83603   0.00000  Uiso   1.00
H1351  H     0.02704   0.60801   0.88964   0.00000  Uiso   1.00
H1352  H     0.30904   0.55073   0.90614   0.00000  Uiso   1.00
N1353  N     0.16665   0.49999   0.95240   0.00000  Uiso   1.00
N1354  N     0.16668   0.50001   0.71427   0.00000  Uiso   1.00
O1355  O     0.16666   0.43892   0.87154   0.00000  Uiso   1.00
O1356  O     0.16667   0.56108   0.79513   0.00000  Uiso   1.00
O1357  O     0.16666   0.43893   0.79510   0.00000  Uiso   1.00
O1358  O     0.16667   0.56107   0.87157   0.00000  Uiso   1.00
O1359  O     0.09058   0.50000   0.86261   0.00000  Uiso   1.00
O1360  O     0.24275   0.50000   0.80405   0.00000  Uiso   1.00
O1361  O     0.09058   0.50000   0.78617   0.00000  Uiso   1.00
O1362  O     0.24275   0.50000   0.88050   0.00000  Uiso   1.00
Zn1363 Zn    0.16667   0.49999   0.88437   0.00000  Uiso   1.00
Zn1364 Zn    0.16667   0.50001   0.78229   0.00000  Uiso   1.00
C1365  C     0.50127   0.42010   0.83347   0.00000  Uiso   1.00
C1366  C     0.53739   0.35394   0.86571   0.00000  Uiso   1.00
C1367  C     0.49796   0.62404   0.83307   0.00000  Uiso   1.00
C1368  C     0.50204   0.37596   0.83360   0.00000  Uiso   1.00
C1369  C     0.53266   0.52570   0.69490   0.00000  Uiso   1.00
C1370  C     0.46734   0.47430   0.97177   0.00000  Uiso   1.00
C1371  C     0.53262   0.52570   0.98027   0.00000  Uiso   1.00
C1372  C     0.46738   0.47430   0.68640   0.00000  Uiso   1.00
C1373  C     0.66025   0.45772   0.78159   0.00000  Uiso   1.00
C1374  C     0.64582   0.41699   0.80346   0.00000  Uiso   1.00
C1375  C     0.33975   0.54227   0.88508   0.00000  Uiso   1.00
C1376  C     0.49873   0.57990   0.83319   0.00000  Uiso   1.00
C1377  C     0.35418   0.58301   0.86321   0.00000  Uiso   1.00
C1378  C     0.42104   0.62514   0.76677   0.00000  Uiso   1.00
C1379  C     0.43645   0.62483   0.71876   0.00000  Uiso   1.00
C1380  C     0.57896   0.37486   0.89990   0.00000  Uiso   1.00
C1381  C     0.56355   0.37517   0.94790   0.00000  Uiso   1.00
C1382  C     0.40061   0.49944   0.82177   0.00000  Uiso   1.00
C1383  C     0.59939   0.50056   0.84490   0.00000  Uiso   1.00
C1384  C     0.34683   0.49134   0.81738   0.00000  Uiso   1.00
C1385  C     0.65317   0.50866   0.84929   0.00000  Uiso   1.00
C1386  C     0.46519   0.35583   0.80175   0.00000  Uiso   1.00
C1387  C     0.53481   0.64417   0.86491   0.00000  Uiso   1.00
C1388  C     0.46261   0.64606   0.80095   0.00000  Uiso   1.00
F1389  F     0.43041   0.37844   0.77259   0.00000  Uiso   1.00
F1390  F     0.56959   0.62156   0.89407   0.00000  Uiso   1.00
F1391  F     0.56541   0.55144   0.72184   0.00000  Uiso   1.00
F1392  F     0.43459   0.44856   0.94483   0.00000  Uiso   1.00
F1393  F     0.56526   0.55151   0.96185   0.00000  Uiso   1.00
F1394  F     0.43474   0.44849   0.70481   0.00000  Uiso   1.00
H1395  H     0.34425   0.40702   0.83064   0.00000  Uiso   1.00
H1396  H     0.37219   0.53084   0.91063   0.00000  Uiso   1.00
H1397  H     0.47400   0.60805   0.71871   0.00000  Uiso   1.00
H1398  H     0.40598   0.60861   0.69479   0.00000  Uiso   1.00
H1399  H     0.44039   0.65725   0.70640   0.00000  Uiso   1.00
H1400  H     0.41319   0.59260   0.77642   0.00000  Uiso   1.00
H1401  H     0.38338   0.64201   0.76609   0.00000  Uiso   1.00
H1402  H     0.59402   0.39139   0.97187   0.00000  Uiso   1.00
H1403  H     0.52600   0.39195   0.94796   0.00000  Uiso   1.00
H1404  H     0.55961   0.34275   0.96027   0.00000  Uiso   1.00
H1405  H     0.61662   0.35799   0.90058   0.00000  Uiso   1.00
H1406  H     0.60923   0.42071   0.81813   0.00000  Uiso   1.00
H1407  H     0.58681   0.40740   0.89025   0.00000  Uiso   1.00
H1408  H     0.63963   0.39199   0.77703   0.00000  Uiso   1.00
H1409  H     0.62781   0.46916   0.75604   0.00000  Uiso   1.00
H1410  H     0.35763   0.44927   0.76053   0.00000  Uiso   1.00
H1411  H     0.39077   0.57929   0.84853   0.00000  Uiso   1.00
H1412  H     0.65575   0.59298   0.83603   0.00000  Uiso   1.00
H1413  H     0.36037   0.60801   0.88964   0.00000  Uiso   1.00
H1414  H     0.64237   0.55073   0.90614   0.00000  Uiso   1.00
N1415  N     0.49999   0.49999   0.95240   0.00000  Uiso   1.00
N1416  N     0.50001   0.50001   0.71427   0.00000  Uiso   1.00
O1417  O     0.50000   0.43892   0.87154   0.00000  Uiso   1.00
O1418  O     0.50000   0.56108   0.79513   0.00000  Uiso   1.00
O1419  O     0.50000   0.43893   0.79510   0.00000  Uiso   1.00
O1420  O     0.50000   0.56107   0.87157   0.00000  Uiso   1.00
O1421  O     0.42392   0.50000   0.86261   0.00000  Uiso   1.00
O1422  O     0.57608   0.50000   0.80405   0.00000  Uiso   1.00
O1423  O     0.42392   0.50000   0.78617   0.00000  Uiso   1.00
O1424  O     0.57608   0.50000   0.88050   0.00000  Uiso   1.00
Zn1425 Zn    0.50000   0.49999   0.88437   0.00000  Uiso   1.00
Zn1426 Zn    0.50000   0.50001   0.78229   0.00000  Uiso   1.00
C1427  C     0.83460   0.42010   0.83347   0.00000  Uiso   1.00
C1428  C     0.87072   0.35394   0.86571   0.00000  Uiso   1.00
C1429  C     0.83129   0.62404   0.83307   0.00000  Uiso   1.00
C1430  C     0.83538   0.37596   0.83360   0.00000  Uiso   1.00
C1431  C     0.86599   0.52570   0.69490   0.00000  Uiso   1.00
C1432  C     0.80067   0.47430   0.97177   0.00000  Uiso   1.00
C1433  C     0.86595   0.52570   0.98027   0.00000  Uiso   1.00
C1434  C     0.80072   0.47430   0.68640   0.00000  Uiso   1.00
C1435  C     0.99358   0.45772   0.78159   0.00000  Uiso   1.00
C1436  C     0.97915   0.41699   0.80346   0.00000  Uiso   1.00
C1437  C     0.67308   0.54227   0.88508   0.00000  Uiso   1.00
C1438  C     0.83206   0.57990   0.83319   0.00000  Uiso   1.00
C1439  C     0.68751   0.58301   0.86321   0.00000  Uiso   1.00
C1440  C     0.75437   0.62514   0.76677   0.00000  Uiso   1.00
C1441  C     0.76979   0.62483   0.71876   0.00000  Uiso   1.00
C1442  C     0.91229   0.37486   0.89990   0.00000  Uiso   1.00
C1443  C     0.89688   0.37517   0.94790   0.00000  Uiso   1.00
C1444  C     0.73394   0.49944   0.82177   0.00000  Uiso   1.00
C1445  C     0.93273   0.50056   0.84490   0.00000  Uiso   1.00
C1446  C     0.68017   0.49134   0.81738   0.00000  Uiso   1.00
C1447  C     0.98650   0.50866   0.84929   0.00000  Uiso   1.00
C1448  C     0.79852   0.35583   0.80175   0.00000  Uiso   1.00
C1449  C     0.86815   0.64417   0.86491   0.00000  Uiso   1.00
C1450  C     0.79595   0.64606   0.80095   0.00000  Uiso   1.00
F1451  F     0.76374   0.37844   0.77259   0.00000  Uiso   1.00
F1452  F     0.90292   0.62156   0.89407   0.00000  Uiso   1.00
F1453  F     0.89874   0.55144   0.72184   0.00000  Uiso   1.00
F1454  F     0.76792   0.44856   0.94483   0.00000  Uiso   1.00
F1455  F     0.89859   0.55151   0.96185   0.00000  Uiso   1.00
F1456  F     0.76807   0.44849   0.70481   0.00000  Uiso   1.00
H1457  H     0.67759   0.40702   0.83064   0.00000  Uiso   1.00
H1458  H     0.70552   0.53084   0.91063   0.00000  Uiso   1.00
H1459  H     0.80733   0.60805   0.71871   0.00000  Uiso   1.00
H1460  H     0.73931   0.60861   0.69479   0.00000  Uiso   1.00
H1461  H     0.77373   0.65725   0.70640   0.00000  Uiso   1.00
H1462  H     0.74652   0.59260   0.77642   0.00000  Uiso   1.00
H1463  H     0.71671   0.64201   0.76609   0.00000  Uiso   1.00
H1464  H     0.92735   0.39139   0.97187   0.00000  Uiso   1.00
H1465  H     0.85934   0.39195   0.94796   0.00000  Uiso   1.00
H1466  H     0.89294   0.34275   0.96027   0.00000  Uiso   1.00
H1467  H     0.94995   0.35799   0.90058   0.00000  Uiso   1.00
H1468  H     0.94257   0.42071   0.81813   0.00000  Uiso   1.00
H1469  H     0.92015   0.40740   0.89025   0.00000  Uiso   1.00
H1470  H     0.97296   0.39199   0.77703   0.00000  Uiso   1.00
H1471  H     0.96115   0.46916   0.75604   0.00000  Uiso   1.00
H1472  H     0.69096   0.44927   0.76053   0.00000  Uiso   1.00
H1473  H     0.72410   0.57929   0.84853   0.00000  Uiso   1.00
H1474  H     0.98908   0.59298   0.83603   0.00000  Uiso   1.00
H1475  H     0.69371   0.60801   0.88964   0.00000  Uiso   1.00
H1476  H     0.97571   0.55073   0.90614   0.00000  Uiso   1.00
N1477  N     0.83332   0.49999   0.95240   0.00000  Uiso   1.00
N1478  N     0.83335   0.50001   0.71427   0.00000  Uiso   1.00
O1479  O     0.83333   0.43892   0.87154   0.00000  Uiso   1.00
O1480  O     0.83334   0.56108   0.79513   0.00000  Uiso   1.00
O1481  O     0.83333   0.43893   0.79510   0.00000  Uiso   1.00
O1482  O     0.83334   0.56107   0.87157   0.00000  Uiso   1.00
O1483  O     0.75725   0.50000   0.86261   0.00000  Uiso   1.00
O1484  O     0.90942   0.50000   0.80405   0.00000  Uiso   1.00
O1485  O     0.75725   0.50000   0.78617   0.00000  Uiso   1.00
O1486  O     0.90942   0.50000   0.88050   0.00000  Uiso   1.00
Zn1487 Zn    0.83333   0.49999   0.88437   0.00000  Uiso   1.00
Zn1488 Zn    0.83333   0.50001   0.78229   0.00000  Uiso   1.00
C1489  C     0.16794   0.75343   0.83347   0.00000  Uiso   1.00
C1490  C     0.20405   0.68727   0.86571   0.00000  Uiso   1.00
C1491  C     0.16462   0.95737   0.83307   0.00000  Uiso   1.00
C1492  C     0.16871   0.70930   0.83360   0.00000  Uiso   1.00
C1493  C     0.19933   0.85903   0.69490   0.00000  Uiso   1.00
C1494  C     0.13401   0.80764   0.97177   0.00000  Uiso   1.00
C1495  C     0.19928   0.85904   0.98027   0.00000  Uiso   1.00
C1496  C     0.13405   0.80763   0.68640   0.00000  Uiso   1.00
C1497  C     0.32692   0.79106   0.78159   0.00000  Uiso   1.00
C1498  C     0.31249   0.75033   0.80346   0.00000  Uiso   1.00
C1499  C     0.00642   0.87561   0.88508   0.00000  Uiso   1.00
C1500  C     0.16540   0.91324   0.83319   0.00000  Uiso   1.00
C1501  C     0.02085   0.91634   0.86321   0.00000  Uiso   1.00
C1502  C     0.08771   0.95847   0.76677   0.00000  Uiso   1.00
C1503  C     0.10312   0.95816   0.71876   0.00000  Uiso   1.00
C1504  C     0.24563   0.70820   0.89990   0.00000  Uiso   1.00
C1505  C     0.23021   0.70850   0.94790   0.00000  Uiso   1.00
C1506  C     0.06727   0.83277   0.82177   0.00000  Uiso   1.00
C1507  C     0.26606   0.83390   0.84490   0.00000  Uiso   1.00
C1508  C     0.01350   0.82467   0.81738   0.00000  Uiso   1.00
C1509  C     0.31984   0.84199   0.84929   0.00000  Uiso   1.00
C1510  C     0.13185   0.68917   0.80175   0.00000  Uiso   1.00
C1511  C     0.20148   0.97750   0.86491   0.00000  Uiso   1.00
C1512  C     0.12928   0.97939   0.80095   0.00000  Uiso   1.00
F1513  F     0.09708   0.71177   0.77259   0.00000  Uiso   1.00
F1514  F     0.23626   0.95490   0.89407   0.00000  Uiso   1.00
F1515  F     0.23208   0.88478   0.72184   0.00000  Uiso   1.00
F1516  F     0.10126   0.78189   0.94483   0.00000  Uiso   1.00
F1517  F     0.23193   0.88484   0.96185   0.00000  Uiso   1.00
F1518  F     0.10141   0.78183   0.70481   0.00000  Uiso   1.00
H1519  H     0.01092   0.74035   0.83064   0.00000  Uiso   1.00
H1520  H     0.03885   0.86418   0.91063   0.00000  Uiso   1.00
H1521  H     0.14066   0.94138   0.71871   0.00000  Uiso   1.00
H1522  H     0.07265   0.94195   0.69479   0.00000  Uiso   1.00
H1523  H     0.10706   0.99058   0.70640   0.00000  Uiso   1.00
H1524  H     0.07985   0.92593   0.77642   0.00000  Uiso   1.00
H1525  H     0.05005   0.97534   0.76609   0.00000  Uiso   1.00
H1526  H     0.26069   0.72472   0.97187   0.00000  Uiso   1.00
H1527  H     0.19267   0.72528   0.94796   0.00000  Uiso   1.00
H1528  H     0.22627   0.67609   0.96027   0.00000  Uiso   1.00
H1529  H     0.28329   0.69132   0.90058   0.00000  Uiso   1.00
H1530  H     0.27590   0.75405   0.81813   0.00000  Uiso   1.00
H1531  H     0.25348   0.74073   0.89025   0.00000  Uiso   1.00
H1532  H     0.30630   0.72532   0.77703   0.00000  Uiso   1.00
H1533  H     0.29448   0.80249   0.75604   0.00000  Uiso   1.00
H1534  H     0.02429   0.78260   0.76053   0.00000  Uiso   1.00
H1535  H     0.05743   0.91262   0.84853   0.00000  Uiso   1.00
H1536  H     0.32241   0.92631   0.83603   0.00000  Uiso   1.00
H1537  H     0.02704   0.94134   0.88964   0.00000  Uiso   1.00
H1538  H     0.30904   0.88407   0.90614   0.00000  Uiso   1.00
N1539  N     0.16665   0.83332   0.95240   0.00000  Uiso   1.00
N1540  N     0.16668   0.83334   0.71427   0.00000  Uiso   1.00
O1541  O     0.16666   0.77225   0.87154   0.00000  Uiso   1.00
O1542  O     0.16667   0.89442   0.79513   0.00000  Uiso   1.00
O1543  O     0.16666   0.77226   0.79510   0.00000  Uiso   1.00
O1544  O     0.16667   0.89441   0.87157   0.00000  Uiso   1.00
O1545  O     0.09058   0.83333   0.86261   0.00000  Uiso   1.00
O1546  O     0.24275   0.83334   0.80405   0.00000  Uiso   1.00
O1547  O     0.09058   0.83334   0.78617   0.00000  Uiso   1.00
O1548  O     0.24275   0.83333   0.88050   0.00000  Uiso   1.00
Zn1549 Zn    0.16667   0.83333   0.88437   0.00000  Uiso   1.00
Zn1550 Zn    0.16667   0.83334   0.78229   0.00000  Uiso   1.00
C1551  C     0.50127   0.75343   0.83347   0.00000  Uiso   1.00
C1552  C     0.53739   0.68727   0.86571   0.00000  Uiso   1.00
C1553  C     0.49796   0.95737   0.83307   0.00000  Uiso   1.00
C1554  C     0.50204   0.70930   0.83360   0.00000  Uiso   1.00
C1555  C     0.53266   0.85903   0.69490   0.00000  Uiso   1.00
C1556  C     0.46734   0.80764   0.97177   0.00000  Uiso   1.00
C1557  C     0.53262   0.85904   0.98027   0.00000  Uiso   1.00
C1558  C     0.46738   0.80763   0.68640   0.00000  Uiso   1.00
C1559  C     0.66025   0.79106   0.78159   0.00000  Uiso   1.00
C1560  C     0.64582   0.75033   0.80346   0.00000  Uiso   1.00
C1561  C     0.33975   0.87561   0.88508   0.00000  Uiso   1.00
C1562  C     0.49873   0.91324   0.83319   0.00000  Uiso   1.00
C1563  C     0.35418   0.91634   0.86321   0.00000  Uiso   1.00
C1564  C     0.42104   0.95847   0.76677   0.00000  Uiso   1.00
C1565  C     0.43645   0.95816   0.71876   0.00000  Uiso   1.00
C1566  C     0.57896   0.70820   0.89990   0.00000  Uiso   1.00
C1567  C     0.56355   0.70850   0.94790   0.00000  Uiso   1.00
C1568  C     0.40061   0.83277   0.82177   0.00000  Uiso   1.00
C1569  C     0.59939   0.83390   0.84490   0.00000  Uiso   1.00
C1570  C     0.34683   0.82467   0.81738   0.00000  Uiso   1.00
C1571  C     0.65317   0.84199   0.84929   0.00000  Uiso   1.00
C1572  C     0.46519   0.68917   0.80175   0.00000  Uiso   1.00
C1573  C     0.53481   0.97750   0.86491   0.00000  Uiso   1.00
C1574  C     0.46261   0.97939   0.80095   0.00000  Uiso   1.00
F1575  F     0.43041   0.71177   0.77259   0.00000  Uiso   1.00
F1576  F     0.56959   0.95490   0.89407   0.00000  Uiso   1.00
F1577  F     0.56541   0.88478   0.72184   0.00000  Uiso   1.00
F1578  F     0.43459   0.78189   0.94483   0.00000  Uiso   1.00
F1579  F     0.56526   0.88484   0.96185   0.00000  Uiso   1.00
F1580  F     0.43474   0.78183   0.70481   0.00000  Uiso   1.00
H1581  H     0.34425   0.74035   0.83064   0.00000  Uiso   1.00
H1582  H     0.37219   0.86418   0.91063   0.00000  Uiso   1.00
H1583  H     0.47400   0.94138   0.71871   0.00000  Uiso   1.00
H1584  H     0.40598   0.94195   0.69479   0.00000  Uiso   1.00
H1585  H     0.44039   0.99058   0.70640   0.00000  Uiso   1.00
H1586  H     0.41319   0.92593   0.77642   0.00000  Uiso   1.00
H1587  H     0.38338   0.97534   0.76609   0.00000  Uiso   1.00
H1588  H     0.59402   0.72472   0.97187   0.00000  Uiso   1.00
H1589  H     0.52600   0.72528   0.94796   0.00000  Uiso   1.00
H1590  H     0.55961   0.67609   0.96027   0.00000  Uiso   1.00
H1591  H     0.61662   0.69132   0.90058   0.00000  Uiso   1.00
H1592  H     0.60923   0.75405   0.81813   0.00000  Uiso   1.00
H1593  H     0.58681   0.74073   0.89025   0.00000  Uiso   1.00
H1594  H     0.63963   0.72532   0.77703   0.00000  Uiso   1.00
H1595  H     0.62781   0.80249   0.75604   0.00000  Uiso   1.00
H1596  H     0.35763   0.78260   0.76053   0.00000  Uiso   1.00
H1597  H     0.39077   0.91262   0.84853   0.00000  Uiso   1.00
H1598  H     0.65575   0.92631   0.83603   0.00000  Uiso   1.00
H1599  H     0.36037   0.94134   0.88964   0.00000  Uiso   1.00
H1600  H     0.64237   0.88407   0.90614   0.00000  Uiso   1.00
N1601  N     0.49999   0.83332   0.95240   0.00000  Uiso   1.00
N1602  N     0.50001   0.83334   0.71427   0.00000  Uiso   1.00
O1603  O     0.50000   0.77225   0.87154   0.00000  Uiso   1.00
O1604  O     0.50000   0.89442   0.79513   0.00000  Uiso   1.00
O1605  O     0.50000   0.77226   0.79510   0.00000  Uiso   1.00
O1606  O     0.50000   0.89441   0.87157   0.00000  Uiso   1.00
O1607  O     0.42392   0.83333   0.86261   0.00000  Uiso   1.00
O1608  O     0.57608   0.83334   0.80405   0.00000  Uiso   1.00
O1609  O     0.42392   0.83334   0.78617   0.00000  Uiso   1.00
O1610  O     0.57608   0.83333   0.88050   0.00000  Uiso   1.00
Zn1611 Zn    0.50000   0.83333   0.88437   0.00000  Uiso   1.00
Zn1612 Zn    0.50000   0.83334   0.78229   0.00000  Uiso   1.00
C1613  C     0.83460   0.75343   0.83347   0.00000  Uiso   1.00
C1614  C     0.87072   0.68727   0.86571   0.00000  Uiso   1.00
C1615  C     0.83129   0.95737   0.83307   0.00000  Uiso   1.00
C1616  C     0.83538   0.70930   0.83360   0.00000  Uiso   1.00
C1617  C     0.86599   0.85903   0.69490   0.00000  Uiso   1.00
C1618  C     0.80067   0.80764   0.97177   0.00000  Uiso   1.00
C1619  C     0.86595   0.85904   0.98027   0.00000  Uiso   1.00
C1620  C     0.80072   0.80763   0.68640   0.00000  Uiso   1.00
C1621  C     0.99358   0.79106   0.78159   0.00000  Uiso   1.00
C1622  C     0.97915   0.75033   0.80346   0.00000  Uiso   1.00
C1623  C     0.67308   0.87561   0.88508   0.00000  Uiso   1.00
C1624  C     0.83206   0.91324   0.83319   0.00000  Uiso   1.00
C1625  C     0.68751   0.91634   0.86321   0.00000  Uiso   1.00
C1626  C     0.75437   0.95847   0.76677   0.00000  Uiso   1.00
C1627  C     0.76979   0.95816   0.71876   0.00000  Uiso   1.00
C1628  C     0.91229   0.70820   0.89990   0.00000  Uiso   1.00
C1629  C     0.89688   0.70850   0.94790   0.00000  Uiso   1.00
C1630  C     0.73394   0.83277   0.82177   0.00000  Uiso   1.00
C1631  C     0.93273   0.83390   0.84490   0.00000  Uiso   1.00
C1632  C     0.68017   0.82467   0.81738   0.00000  Uiso   1.00
C1633  C     0.98650   0.84199   0.84929   0.00000  Uiso   1.00
C1634  C     0.79852   0.68917   0.80175   0.00000  Uiso   1.00
C1635  C     0.86815   0.97750   0.86491   0.00000  Uiso   1.00
C1636  C     0.79595   0.97939   0.80095   0.00000  Uiso   1.00
F1637  F     0.76374   0.71177   0.77259   0.00000  Uiso   1.00
F1638  F     0.90292   0.95490   0.89407   0.00000  Uiso   1.00
F1639  F     0.89874   0.88478   0.72184   0.00000  Uiso   1.00
F1640  F     0.76792   0.78189   0.94483   0.00000  Uiso   1.00
F1641  F     0.89859   0.88484   0.96185   0.00000  Uiso   1.00
F1642  F     0.76807   0.78183   0.70481   0.00000  Uiso   1.00
H1643  H     0.67759   0.74035   0.83064   0.00000  Uiso   1.00
H1644  H     0.70552   0.86418   0.91063   0.00000  Uiso   1.00
H1645  H     0.80733   0.94138   0.71871   0.00000  Uiso   1.00
H1646  H     0.73931   0.94195   0.69479   0.00000  Uiso   1.00
H1647  H     0.77373   0.99058   0.70640   0.00000  Uiso   1.00
H1648  H     0.74652   0.92593   0.77642   0.00000  Uiso   1.00
H1649  H     0.71671   0.97534   0.76609   0.00000  Uiso   1.00
H1650  H     0.92735   0.72472   0.97187   0.00000  Uiso   1.00
H1651  H     0.85934   0.72528   0.94796   0.00000  Uiso   1.00
H1652  H     0.89294   0.67609   0.96027   0.00000  Uiso   1.00
H1653  H     0.94995   0.69132   0.90058   0.00000  Uiso   1.00
H1654  H     0.94257   0.75405   0.81813   0.00000  Uiso   1.00
H1655  H     0.92015   0.74073   0.89025   0.00000  Uiso   1.00
H1656  H     0.97296   0.72532   0.77703   0.00000  Uiso   1.00
H1657  H     0.96115   0.80249   0.75604   0.00000  Uiso   1.00
H1658  H     0.69096   0.78260   0.76053   0.00000  Uiso   1.00
H1659  H     0.72410   0.91262   0.84853   0.00000  Uiso   1.00
H1660  H     0.98908   0.92631   0.83603   0.00000  Uiso   1.00
H1661  H     0.69371   0.94134   0.88964   0.00000  Uiso   1.00
H1662  H     0.97571   0.88407   0.90614   0.00000  Uiso   1.00
N1663  N     0.83332   0.83332   0.95240   0.00000  Uiso   1.00
N1664  N     0.83335   0.83334   0.71427   0.00000  Uiso   1.00
O1665  O     0.83333   0.77225   0.87154   0.00000  Uiso   1.00
O1666  O     0.83334   0.89442   0.79513   0.00000  Uiso   1.00
O1667  O     0.83333   0.77226   0.79510   0.00000  Uiso   1.00
O1668  O     0.83334   0.89441   0.87157   0.00000  Uiso   1.00
O1669  O     0.75725   0.83333   0.86261   0.00000  Uiso   1.00
O1670  O     0.90942   0.83334   0.80405   0.00000  Uiso   1.00
O1671  O     0.75725   0.83334   0.78617   0.00000  Uiso   1.00
O1672  O     0.90942   0.83333   0.88050   0.00000  Uiso   1.00
Zn1673 Zn    0.83333   0.83333   0.88437   0.00000  Uiso   1.00
Zn1674 Zn    0.83333   0.83334   0.78229   0.00000  Uiso   1.00
loop_
_geom_bond_atom_site_label_1
_geom_bond_atom_site_label_2
_geom_bond_distance
_geom_bond_site_symmetry_2
_ccdc_geom_bond_type
C1     C4      1.411   .     S
C1     O55     1.282   .     A
C1     O53     1.277   .     A
C2     C4      1.409   .     A
C2     C16     1.522   .     S
C2     C395    1.380   1_545 S
C3     C23     1.397   .     A
C3     C24     1.409   .     A
C3     C12     1.411   .     S
C4     C22     1.397   .     A
C5     N52     1.367   .     A
C5     F27     1.355   .     S
C5     C1123   1.416   1_554 S
C6     N51     1.367   .     A
C6     F28     1.355   .     S
C6     C566    1.416   .     S
C7     F29     1.355   .     S
C7     N51     1.367   .     A
C7     C563    1.416   .     S
C8     N52     1.367   .     A
C8     F30     1.355   .     S
C8     C1122   1.416   1_554 S
C9     H45     1.108   .     S
C9     C10     1.528   .     S
C9     C82     1.541   .     S
C9     H108    1.111   .     S
C10    H42     1.104   .     S
C10    H44     1.111   .     S
C10    H93     1.111   .     S
C11    C13     1.528   .     S
C11    H32     1.108   .     S
C11    C145    1.541   1_455 S
C11    H174    1.111   1_455 S
C12    O56     1.282   .     A
C12    O54     1.277   .     A
C13    H49     1.111   .     S
C13    H47     1.104   .     S
C13    H172    1.111   1_455 S
C14    H37     1.112   .     S
C14    H36     1.107   .     S
C14    C24     1.522   .     S
C14    C15     1.528   .     S
C15    H34     1.110   .     S
C15    H35     1.110   .     S
C15    H33     1.110   .     S
C16    H43     1.107   .     S
C16    H41     1.112   .     S
C16    C17     1.527   .     S
C17    H40     1.110   .     S
C17    H38     1.110   .     S
C17    H39     1.110   .     S
C18    C20     1.407   .     S
C18    O57     1.269   .     A
C18    O59     1.286   .     A
C19    O60     1.286   .     A
C19    C21     1.407   .     S
C19    O58     1.269   .     A
C20    C133    1.541   1_455 S
C20    C145    1.367   1_455 S
C21    C73     1.541   .     S
C21    C82     1.367   .     S
C22    F25     1.362   .     S
C22    C396    1.380   1_545 S
C23    F26     1.362   .     S
C23    C188    1.380   .     S
C24    C208    1.380   .     S
H31    C134    1.111   1_455 S
H46    C133    1.111   1_455 S
H48    C75     1.111   .     S
H50    C73     1.111   .     S
N51    Zn61    2.009   .     S
N52    Zn62    2.009   .     S
O53    Zn61    1.988   .     S
O54    Zn62    1.988   .     S
O55    Zn62    1.991   .     S
O56    Zn61    1.991   .     S
O57    Zn61    1.985   .     S
O58    Zn62    1.985   .     S
O59    Zn62    1.993   .     S
O60    Zn61    1.993   .     S
C63    C66     1.411   .     S
C63    O117    1.282   .     A
C63    O115    1.277   .     A
C64    C66     1.409   .     A
C64    C78     1.522   .     S
C64    C457    1.380   1_545 S
C65    C85     1.397   .     A
C65    C86     1.409   .     A
C65    C74     1.411   .     S
C66    C84     1.397   .     A
C67    N114    1.367   .     A
C67    F89     1.355   .     S
C67    C1185   1.416   1_554 S
C68    N113    1.367   .     A
C68    F90     1.355   .     S
C68    C628    1.416   .     S
C69    F91     1.355   .     S
C69    N113    1.367   .     A
C69    C625    1.416   .     S
C70    N114    1.367   .     A
C70    F92     1.355   .     S
C70    C1184   1.416   1_554 S
C71    H107    1.108   .     S
C71    C72     1.528   .     S
C71    C144    1.541   .     S
C71    H170    1.111   .     S
C72    H104    1.104   .     S
C72    H106    1.111   .     S
C72    H155    1.111   .     S
C73    C75     1.528   .     S
C73    H94     1.108   .     S
C74    O118    1.282   .     A
C74    O116    1.277   .     A
C75    H111    1.111   .     S
C75    H109    1.104   .     S
C76    H99     1.112   .     S
C76    H98     1.107   .     S
C76    C86     1.522   .     S
C76    C77     1.528   .     S
C77    H96     1.110   .     S
C77    H97     1.110   .     S
C77    H95     1.110   .     S
C78    H105    1.107   .     S
C78    H103    1.112   .     S
C78    C79     1.527   .     S
C79    H102    1.110   .     S
C79    H100    1.110   .     S
C79    H101    1.110   .     S
C80    C82     1.407   .     S
C80    O119    1.269   .     A
C80    O121    1.286   .     A
C81    O122    1.286   .     A
C81    C83     1.407   .     S
C81    O120    1.269   .     A
C83    C135    1.541   .     S
C83    C144    1.367   .     S
C84    F87     1.362   .     S
C84    C458    1.380   1_545 S
C85    F88     1.362   .     S
C85    C250    1.380   .     S
C86    C270    1.380   .     S
H110   C137    1.111   .     S
H112   C135    1.111   .     S
N113   Zn123   2.009   .     S
N114   Zn124   2.009   .     S
O115   Zn123   1.988   .     S
O116   Zn124   1.988   .     S
O117   Zn124   1.991   .     S
O118   Zn123   1.991   .     S
O119   Zn123   1.985   .     S
O120   Zn124   1.985   .     S
O121   Zn124   1.993   .     S
O122   Zn123   1.993   .     S
C125   C128    1.411   .     S
C125   O179    1.282   .     A
C125   O177    1.277   .     A
C126   C128    1.409   .     A
C126   C140    1.522   .     S
C126   C519    1.380   1_545 S
C127   C147    1.397   .     A
C127   C148    1.409   .     A
C127   C136    1.411   .     S
C128   C146    1.397   .     A
C129   N176    1.367   .     A
C129   F151    1.355   .     S
C129   C1247   1.416   1_554 S
C130   N175    1.367   .     A
C130   F152    1.355   .     S
C130   C690    1.416   .     S
C131   F153    1.355   .     S
C131   N175    1.367   .     A
C131   C687    1.416   .     S
C132   N176    1.367   .     A
C132   F154    1.355   .     S
C132   C1246   1.416   1_554 S
C133   H169    1.108   .     S
C133   C134    1.528   .     S
C133   C20     1.541   1_655 S
C133   H46     1.111   1_655 S
C134   H166    1.104   .     S
C134   H168    1.111   .     S
C134   H31     1.111   1_655 S
C135   C137    1.528   .     S
C135   H156    1.108   .     S
C136   O180    1.282   .     A
C136   O178    1.277   .     A
C137   H173    1.111   .     S
C137   H171    1.104   .     S
C138   H161    1.112   .     S
C138   H160    1.107   .     S
C138   C148    1.522   .     S
C138   C139    1.528   .     S
C139   H158    1.110   .     S
C139   H159    1.110   .     S
C139   H157    1.110   .     S
C140   H167    1.107   .     S
C140   H165    1.112   .     S
C140   C141    1.527   .     S
C141   H164    1.110   .     S
C141   H162    1.110   .     S
C141   H163    1.110   .     S
C142   C144    1.407   .     S
C142   O181    1.269   .     A
C142   O183    1.286   .     A
C143   O184    1.286   .     A
C143   C145    1.407   .     S
C143   O182    1.269   .     A
C145   C11     1.541   1_655 S
C145   C20     1.367   1_655 S
C146   F149    1.362   .     S
C146   C520    1.380   1_545 S
C147   F150    1.362   .     S
C147   C312    1.380   .     S
C148   C332    1.380   .     S
H172   C13     1.111   1_655 S
H174   C11     1.111   1_655 S
N175   Zn185   2.009   .     S
N176   Zn186   2.009   .     S
O177   Zn185   1.988   .     S
O178   Zn186   1.988   .     S
O179   Zn186   1.991   .     S
O180   Zn185   1.991   .     S
O181   Zn185   1.985   .     S
O182   Zn186   1.985   .     S
O183   Zn186   1.993   .     S
O184   Zn185   1.993   .     S
C187   C190    1.411   .     S
C187   O241    1.282   .     A
C187   O239    1.277   .     A
C188   C190    1.409   .     A
C188   C202    1.522   .     S
C189   C209    1.397   .     A
C189   C210    1.409   .     A
C189   C198    1.411   .     S
C190   C208    1.397   .     A
C191   N238    1.367   .     A
C191   F213    1.355   .     S
C191   C1309   1.416   1_554 S
C192   N237    1.367   .     A
C192   F214    1.355   .     S
C192   C752    1.416   .     S
C193   F215    1.355   .     S
C193   N237    1.367   .     A
C193   C749    1.416   .     S
C194   N238    1.367   .     A
C194   F216    1.355   .     S
C194   C1308   1.416   1_554 S
C195   H231    1.108   .     S
C195   C196    1.528   .     S
C195   C268    1.541   .     S
C195   H294    1.111   .     S
C196   H228    1.104   .     S
C196   H230    1.111   .     S
C196   H279    1.111   .     S
C197   C199    1.528   .     S
C197   H218    1.108   .     S
C197   C331    1.541   1_455 S
C197   H360    1.111   1_455 S
C198   O242    1.282   .     A
C198   O240    1.277   .     A
C199   H235    1.111   .     S
C199   H233    1.104   .     S
C199   H358    1.111   1_455 S
C200   H223    1.112   .     S
C200   H222    1.107   .     S
C200   C210    1.522   .     S
C200   C201    1.528   .     S
C201   H220    1.110   .     S
C201   H221    1.110   .     S
C201   H219    1.110   .     S
C202   H229    1.107   .     S
C202   H227    1.112   .     S
C202   C203    1.527   .     S
C203   H226    1.110   .     S
C203   H224    1.110   .     S
C203   H225    1.110   .     S
C204   C206    1.407   .     S
C204   O243    1.269   .     A
C204   O245    1.286   .     A
C205   O246    1.286   .     A
C205   C207    1.407   .     S
C205   O244    1.269   .     A
C206   C319    1.541   1_455 S
C206   C331    1.367   1_455 S
C207   C259    1.541   .     S
C207   C268    1.367   .     S
C208   F211    1.362   .     S
C209   F212    1.362   .     S
C209   C374    1.380   .     S
C210   C394    1.380   .     S
H217   C320    1.111   1_455 S
H232   C319    1.111   1_455 S
H234   C261    1.111   .     S
H236   C259    1.111   .     S
N237   Zn247   2.009   .     S
N238   Zn248   2.009   .     S
O239   Zn247   1.988   .     S
O240   Zn248   1.988   .     S
O241   Zn248   1.991   .     S
O242   Zn247   1.991   .     S
O243   Zn247   1.985   .     S
O244   Zn248   1.985   .     S
O245   Zn248   1.993   .     S
O246   Zn247   1.993   .     S
C249   C252    1.411   .     S
C249   O303    1.282   .     A
C249   O301    1.277   .     A
C250   C252    1.409   .     A
C250   C264    1.522   .     S
C251   C271    1.397   .     A
C251   C272    1.409   .     A
C251   C260    1.411   .     S
C252   C270    1.397   .     A
C253   N300    1.367   .     A
C253   F275    1.355   .     S
C253   C1371   1.416   1_554 S
C254   N299    1.367   .     A
C254   F276    1.355   .     S
C254   C814    1.416   .     S
C255   F277    1.355   .     S
C255   N299    1.367   .     A
C255   C811    1.416   .     S
C256   N300    1.367   .     A
C256   F278    1.355   .     S
C256   C1370   1.416   1_554 S
C257   H293    1.108   .     S
C257   C258    1.528   .     S
C257   C330    1.541   .     S
C257   H356    1.111   .     S
C258   H290    1.104   .     S
C258   H292    1.111   .     S
C258   H341    1.111   .     S
C259   C261    1.528   .     S
C259   H280    1.108   .     S
C260   O304    1.282   .     A
C260   O302    1.277   .     A
C261   H297    1.111   .     S
C261   H295    1.104   .     S
C262   H285    1.112   .     S
C262   H284    1.107   .     S
C262   C272    1.522   .     S
C262   C263    1.528   .     S
C263   H282    1.110   .     S
C263   H283    1.110   .     S
C263   H281    1.110   .     S
C264   H291    1.107   .     S
C264   H289    1.112   .     S
C264   C265    1.527   .     S
C265   H288    1.110   .     S
C265   H286    1.110   .     S
C265   H287    1.110   .     S
C266   C268    1.407   .     S
C266   O305    1.269   .     A
C266   O307    1.286   .     A
C267   O308    1.286   .     A
C267   C269    1.407   .     S
C267   O306    1.269   .     A
C269   C321    1.541   .     S
C269   C330    1.367   .     S
C270   F273    1.362   .     S
C271   F274    1.362   .     S
C271   C436    1.380   .     S
C272   C456    1.380   .     S
H296   C323    1.111   .     S
H298   C321    1.111   .     S
N299   Zn309   2.009   .     S
N300   Zn310   2.009   .     S
O301   Zn309   1.988   .     S
O302   Zn310   1.988   .     S
O303   Zn310   1.991   .     S
O304   Zn309   1.991   .     S
O305   Zn309   1.985   .     S
O306   Zn310   1.985   .     S
O307   Zn310   1.993   .     S
O308   Zn309   1.993   .     S
C311   C314    1.411   .     S
C311   O365    1.282   .     A
C311   O363    1.277   .     A
C312   C314    1.409   .     A
C312   C326    1.522   .     S
C313   C333    1.397   .     A
C313   C334    1.409   .     A
C313   C322    1.411   .     S
C314   C332    1.397   .     A
C315   N362    1.367   .     A
C315   F337    1.355   .     S
C315   C1433   1.416   1_554 S
C316   N361    1.367   .     A
C316   F338    1.355   .     S
C316   C876    1.416   .     S
C317   F339    1.355   .     S
C317   N361    1.367   .     A
C317   C873    1.416   .     S
C318   N362    1.367   .     A
C318   F340    1.355   .     S
C318   C1432   1.416   1_554 S
C319   H355    1.108   .     S
C319   C320    1.528   .     S
C319   C206    1.541   1_655 S
C319   H232    1.111   1_655 S
C320   H352    1.104   .     S
C320   H354    1.111   .     S
C320   H217    1.111   1_655 S
C321   C323    1.528   .     S
C321   H342    1.108   .     S
C322   O366    1.282   .     A
C322   O364    1.277   .     A
C323   H359    1.111   .     S
C323   H357    1.104   .     S
C324   H347    1.112   .     S
C324   H346    1.107   .     S
C324   C334    1.522   .     S
C324   C325    1.528   .     S
C325   H344    1.110   .     S
C325   H345    1.110   .     S
C325   H343    1.110   .     S
C326   H353    1.107   .     S
C326   H351    1.112   .     S
C326   C327    1.527   .     S
C327   H350    1.110   .     S
C327   H348    1.110   .     S
C327   H349    1.110   .     S
C328   C330    1.407   .     S
C328   O367    1.269   .     A
C328   O369    1.286   .     A
C329   O370    1.286   .     A
C329   C331    1.407   .     S
C329   O368    1.269   .     A
C331   C197    1.541   1_655 S
C331   C206    1.367   1_655 S
C332   F335    1.362   .     S
C333   F336    1.362   .     S
C333   C498    1.380   .     S
C334   C518    1.380   .     S
H358   C199    1.111   1_655 S
H360   C197    1.111   1_655 S
N361   Zn371   2.009   .     S
N362   Zn372   2.009   .     S
O363   Zn371   1.988   .     S
O364   Zn372   1.988   .     S
O365   Zn372   1.991   .     S
O366   Zn371   1.991   .     S
O367   Zn371   1.985   .     S
O368   Zn372   1.985   .     S
O369   Zn372   1.993   .     S
O370   Zn371   1.993   .     S
C373   C376    1.411   .     S
C373   O427    1.282   .     A
C373   O425    1.277   .     A
C374   C376    1.409   .     A
C374   C388    1.522   .     S
C375   C395    1.397   .     A
C375   C396    1.409   .     A
C375   C384    1.411   .     S
C376   C394    1.397   .     A
C377   N424    1.367   .     A
C377   F399    1.355   .     S
C377   C1495   1.416   1_554 S
C378   N423    1.367   .     A
C378   F400    1.355   .     S
C378   C938    1.416   .     S
C379   F401    1.355   .     S
C379   N423    1.367   .     A
C379   C935    1.416   .     S
C380   N424    1.367   .     A
C380   F402    1.355   .     S
C380   C1494   1.416   1_554 S
C381   H417    1.108   .     S
C381   C382    1.528   .     S
C381   C454    1.541   .     S
C381   H480    1.111   .     S
C382   H414    1.104   .     S
C382   H416    1.111   .     S
C382   H465    1.111   .     S
C383   C385    1.528   .     S
C383   H404    1.108   .     S
C383   C517    1.541   1_455 S
C383   H546    1.111   1_455 S
C384   O428    1.282   .     A
C384   O426    1.277   .     A
C385   H421    1.111   .     S
C385   H419    1.104   .     S
C385   H544    1.111   1_455 S
C386   H409    1.112   .     S
C386   H408    1.107   .     S
C386   C396    1.522   .     S
C386   C387    1.528   .     S
C387   H406    1.110   .     S
C387   H407    1.110   .     S
C387   H405    1.110   .     S
C388   H415    1.107   .     S
C388   H413    1.112   .     S
C388   C389    1.527   .     S
C389   H412    1.110   .     S
C389   H410    1.110   .     S
C389   H411    1.110   .     S
C390   C392    1.407   .     S
C390   O429    1.269   .     A
C390   O431    1.286   .     A
C391   O432    1.286   .     A
C391   C393    1.407   .     S
C391   O430    1.269   .     A
C392   C505    1.541   1_455 S
C392   C517    1.367   1_455 S
C393   C445    1.541   .     S
C393   C454    1.367   .     S
C394   F397    1.362   .     S
C395   F398    1.362   .     S
C395   C2      1.380   1_565 S
C396   C22     1.380   1_565 S
H403   C506    1.111   1_455 S
H418   C505    1.111   1_455 S
H420   C447    1.111   .     S
H422   C445    1.111   .     S
N423   Zn433   2.009   .     S
N424   Zn434   2.009   .     S
O425   Zn433   1.988   .     S
O426   Zn434   1.988   .     S
O427   Zn434   1.991   .     S
O428   Zn433   1.991   .     S
O429   Zn433   1.985   .     S
O430   Zn434   1.985   .     S
O431   Zn434   1.993   .     S
O432   Zn433   1.993   .     S
C435   C438    1.411   .     S
C435   O489    1.282   .     A
C435   O487    1.277   .     A
C436   C438    1.409   .     A
C436   C450    1.522   .     S
C437   C457    1.397   .     A
C437   C458    1.409   .     A
C437   C446    1.411   .     S
C438   C456    1.397   .     A
C439   N486    1.367   .     A
C439   F461    1.355   .     S
C439   C1557   1.416   1_554 S
C440   N485    1.367   .     A
C440   F462    1.355   .     S
C440   C1000   1.416   .     S
C441   F463    1.355   .     S
C441   N485    1.367   .     A
C441   C997    1.416   .     S
C442   N486    1.367   .     A
C442   F464    1.355   .     S
C442   C1556   1.416   1_554 S
C443   H479    1.108   .     S
C443   C444    1.528   .     S
C443   C516    1.541   .     S
C443   H542    1.111   .     S
C444   H476    1.104   .     S
C444   H478    1.111   .     S
C444   H527    1.111   .     S
C445   C447    1.528   .     S
C445   H466    1.108   .     S
C446   O490    1.282   .     A
C446   O488    1.277   .     A
C447   H483    1.111   .     S
C447   H481    1.104   .     S
C448   H471    1.112   .     S
C448   H470    1.107   .     S
C448   C458    1.522   .     S
C448   C449    1.528   .     S
C449   H468    1.110   .     S
C449   H469    1.110   .     S
C449   H467    1.110   .     S
C450   H477    1.107   .     S
C450   H475    1.112   .     S
C450   C451    1.527   .     S
C451   H474    1.110   .     S
C451   H472    1.110   .     S
C451   H473    1.110   .     S
C452   C454    1.407   .     S
C452   O491    1.269   .     A
C452   O493    1.286   .     A
C453   O494    1.286   .     A
C453   C455    1.407   .     S
C453   O492    1.269   .     A
C455   C507    1.541   .     S
C455   C516    1.367   .     S
C456   F459    1.362   .     S
C457   F460    1.362   .     S
C457   C64     1.380   1_565 S
C458   C84     1.380   1_565 S
H482   C509    1.111   .     S
H484   C507    1.111   .     S
N485   Zn495   2.009   .     S
N486   Zn496   2.009   .     S
O487   Zn495   1.988   .     S
O488   Zn496   1.988   .     S
O489   Zn496   1.991   .     S
O490   Zn495   1.991   .     S
O491   Zn495   1.985   .     S
O492   Zn496   1.985   .     S
O493   Zn496   1.993   .     S
O494   Zn495   1.993   .     S
C497   C500    1.411   .     S
C497   O551    1.282   .     A
C497   O549    1.277   .     A
C498   C500    1.409   .     A
C498   C512    1.522   .     S
C499   C519    1.397   .     A
C499   C520    1.409   .     A
C499   C508    1.411   .     S
C500   C518    1.397   .     A
C501   N548    1.367   .     A
C501   F523    1.355   .     S
C501   C1619   1.416   1_554 S
C502   N547    1.367   .     A
C502   F524    1.355   .     S
C502   C1062   1.416   .     S
C503   F525    1.355   .     S
C503   N547    1.367   .     A
C503   C1059   1.416   .     S
C504   N548    1.367   .     A
C504   F526    1.355   .     S
C504   C1618   1.416   1_554 S
C505   H541    1.108   .     S
C505   C506    1.528   .     S
C505   C392    1.541   1_655 S
C505   H418    1.111   1_655 S
C506   H538    1.104   .     S
C506   H540    1.111   .     S
C506   H403    1.111   1_655 S
C507   C509    1.528   .     S
C507   H528    1.108   .     S
C508   O552    1.282   .     A
C508   O550    1.277   .     A
C509   H545    1.111   .     S
C509   H543    1.104   .     S
C510   H533    1.112   .     S
C510   H532    1.107   .     S
C510   C520    1.522   .     S
C510   C511    1.528   .     S
C511   H530    1.110   .     S
C511   H531    1.110   .     S
C511   H529    1.110   .     S
C512   H539    1.107   .     S
C512   H537    1.112   .     S
C512   C513    1.527   .     S
C513   H536    1.110   .     S
C513   H534    1.110   .     S
C513   H535    1.110   .     S
C514   C516    1.407   .     S
C514   O553    1.269   .     A
C514   O555    1.286   .     A
C515   O556    1.286   .     A
C515   C517    1.407   .     S
C515   O554    1.269   .     A
C517   C383    1.541   1_655 S
C517   C392    1.367   1_655 S
C518   F521    1.362   .     S
C519   F522    1.362   .     S
C519   C126    1.380   1_565 S
C520   C146    1.380   1_565 S
H544   C385    1.111   1_655 S
H546   C383    1.111   1_655 S
N547   Zn557   2.009   .     S
N548   Zn558   2.009   .     S
O549   Zn557   1.988   .     S
O550   Zn558   1.988   .     S
O551   Zn558   1.991   .     S
O552   Zn557   1.991   .     S
O553   Zn557   1.985   .     S
O554   Zn558   1.985   .     S
O555   Zn558   1.993   .     S
O556   Zn557   1.993   .     S
C559   C562    1.411   .     S
C559   O613    1.282   .     A
C559   O611    1.277   .     A
C560   C562    1.409   .     A
C560   C574    1.522   .     S
C560   C953    1.380   1_545 S
C561   C581    1.397   .     A
C561   C582    1.409   .     A
C561   C570    1.411   .     S
C562   C580    1.397   .     A
C563   N610    1.367   .     A
C563   F585    1.355   .     S
C564   N609    1.367   .     A
C564   F586    1.355   .     S
C564   C1124   1.416   .     S
C565   F587    1.355   .     S
C565   N609    1.367   .     A
C565   C1121   1.416   .     S
C566   N610    1.367   .     A
C566   F588    1.355   .     S
C567   H603    1.108   .     S
C567   C568    1.528   .     S
C567   C640    1.541   .     S
C567   H666    1.111   .     S
C568   H600    1.104   .     S
C568   H602    1.111   .     S
C568   H651    1.111   .     S
C569   C571    1.528   .     S
C569   H590    1.108   .     S
C569   C703    1.541   1_455 S
C569   H732    1.111   1_455 S
C570   O614    1.282   .     A
C570   O612    1.277   .     A
C571   H607    1.111   .     S
C571   H605    1.104   .     S
C571   H730    1.111   1_455 S
C572   H595    1.112   .     S
C572   H594    1.107   .     S
C572   C582    1.522   .     S
C572   C573    1.528   .     S
C573   H592    1.110   .     S
C573   H593    1.110   .     S
C573   H591    1.110   .     S
C574   H601    1.107   .     S
C574   H599    1.112   .     S
C574   C575    1.527   .     S
C575   H598    1.110   .     S
C575   H596    1.110   .     S
C575   H597    1.110   .     S
C576   C578    1.407   .     S
C576   O615    1.269   .     A
C576   O617    1.286   .     A
C577   O618    1.286   .     A
C577   C579    1.407   .     S
C577   O616    1.269   .     A
C578   C691    1.541   1_455 S
C578   C703    1.367   1_455 S
C579   C631    1.541   .     S
C579   C640    1.367   .     S
C580   F583    1.362   .     S
C580   C954    1.380   1_545 S
C581   F584    1.362   .     S
C581   C746    1.380   .     S
C582   C766    1.380   .     S
H589   C692    1.111   1_455 S
H604   C691    1.111   1_455 S
H606   C633    1.111   .     S
H608   C631    1.111   .     S
N609   Zn619   2.009   .     S
N610   Zn620   2.009   .     S
O611   Zn619   1.988   .     S
O612   Zn620   1.988   .     S
O613   Zn620   1.991   .     S
O614   Zn619   1.991   .     S
O615   Zn619   1.985   .     S
O616   Zn620   1.985   .     S
O617   Zn620   1.993   .     S
O618   Zn619   1.993   .     S
C621   C624    1.411   .     S
C621   O675    1.282   .     A
C621   O673    1.277   .     A
C622   C624    1.409   .     A
C622   C636    1.522   .     S
C622   C1015   1.380   1_545 S
C623   C643    1.397   .     A
C623   C644    1.409   .     A
C623   C632    1.411   .     S
C624   C642    1.397   .     A
C625   N672    1.367   .     A
C625   F647    1.355   .     S
C626   N671    1.367   .     A
C626   F648    1.355   .     S
C626   C1186   1.416   .     S
C627   F649    1.355   .     S
C627   N671    1.367   .     A
C627   C1183   1.416   .     S
C628   N672    1.367   .     A
C628   F650    1.355   .     S
C629   H665    1.108   .     S
C629   C630    1.528   .     S
C629   C702    1.541   .     S
C629   H728    1.111   .     S
C630   H662    1.104   .     S
C630   H664    1.111   .     S
C630   H713    1.111   .     S
C631   C633    1.528   .     S
C631   H652    1.108   .     S
C632   O676    1.282   .     A
C632   O674    1.277   .     A
C633   H669    1.111   .     S
C633   H667    1.104   .     S
C634   H657    1.112   .     S
C634   H656    1.107   .     S
C634   C644    1.522   .     S
C634   C635    1.528   .     S
C635   H654    1.110   .     S
C635   H655    1.110   .     S
C635   H653    1.110   .     S
C636   H663    1.107   .     S
C636   H661    1.112   .     S
C636   C637    1.527   .     S
C637   H660    1.110   .     S
C637   H658    1.110   .     S
C637   H659    1.110   .     S
C638   C640    1.407   .     S
C638   O677    1.269   .     A
C638   O679    1.286   .     A
C639   O680    1.286   .     A
C639   C641    1.407   .     S
C639   O678    1.269   .     A
C641   C693    1.541   .     S
C641   C702    1.367   .     S
C642   F645    1.362   .     S
C642   C1016   1.380   1_545 S
C643   F646    1.362   .     S
C643   C808    1.380   .     S
C644   C828    1.380   .     S
H668   C695    1.111   .     S
H670   C693    1.111   .     S
N671   Zn681   2.009   .     S
N672   Zn682   2.009   .     S
O673   Zn681   1.988   .     S
O674   Zn682   1.988   .     S
O675   Zn682   1.991   .     S
O676   Zn681   1.991   .     S
O677   Zn681   1.985   .     S
O678   Zn682   1.985   .     S
O679   Zn682   1.993   .     S
O680   Zn681   1.993   .     S
C683   C686    1.411   .     S
C683   O737    1.282   .     A
C683   O735    1.277   .     A
C684   C686    1.409   .     A
C684   C698    1.522   .     S
C684   C1077   1.380   1_545 S
C685   C705    1.397   .     A
C685   C706    1.409   .     A
C685   C694    1.411   .     S
C686   C704    1.397   .     A
C687   N734    1.367   .     A
C687   F709    1.355   .     S
C688   N733    1.367   .     A
C688   F710    1.355   .     S
C688   C1248   1.416   .     S
C689   F711    1.355   .     S
C689   N733    1.367   .     A
C689   C1245   1.416   .     S
C690   N734    1.367   .     A
C690   F712    1.355   .     S
C691   H727    1.108   .     S
C691   C692    1.528   .     S
C691   C578    1.541   1_655 S
C691   H604    1.111   1_655 S
C692   H724    1.104   .     S
C692   H726    1.111   .     S
C692   H589    1.111   1_655 S
C693   C695    1.528   .     S
C693   H714    1.108   .     S
C694   O738    1.282   .     A
C694   O736    1.277   .     A
C695   H731    1.111   .     S
C695   H729    1.104   .     S
C696   H719    1.112   .     S
C696   H718    1.107   .     S
C696   C706    1.522   .     S
C696   C697    1.528   .     S
C697   H716    1.110   .     S
C697   H717    1.110   .     S
C697   H715    1.110   .     S
C698   H725    1.107   .     S
C698   H723    1.112   .     S
C698   C699    1.527   .     S
C699   H722    1.110   .     S
C699   H720    1.110   .     S
C699   H721    1.110   .     S
C700   C702    1.407   .     S
C700   O739    1.269   .     A
C700   O741    1.286   .     A
C701   O742    1.286   .     A
C701   C703    1.407   .     S
C701   O740    1.269   .     A
C703   C569    1.541   1_655 S
C703   C578    1.367   1_655 S
C704   F707    1.362   .     S
C704   C1078   1.380   1_545 S
C705   F708    1.362   .     S
C705   C870    1.380   .     S
C706   C890    1.380   .     S
H730   C571    1.111   1_655 S
H732   C569    1.111   1_655 S
N733   Zn743   2.009   .     S
N734   Zn744   2.009   .     S
O735   Zn743   1.988   .     S
O736   Zn744   1.988   .     S
O737   Zn744   1.991   .     S
O738   Zn743   1.991   .     S
O739   Zn743   1.985   .     S
O740   Zn744   1.985   .     S
O741   Zn744   1.993   .     S
O742   Zn743   1.993   .     S
C745   C748    1.411   .     S
C745   O799    1.282   .     A
C745   O797    1.277   .     A
C746   C748    1.409   .     A
C746   C760    1.522   .     S
C747   C767    1.397   .     A
C747   C768    1.409   .     A
C747   C756    1.411   .     S
C748   C766    1.397   .     A
C749   N796    1.367   .     A
C749   F771    1.355   .     S
C750   N795    1.367   .     A
C750   F772    1.355   .     S
C750   C1310   1.416   .     S
C751   F773    1.355   .     S
C751   N795    1.367   .     A
C751   C1307   1.416   .     S
C752   N796    1.367   .     A
C752   F774    1.355   .     S
C753   H789    1.108   .     S
C753   C754    1.528   .     S
C753   C826    1.541   .     S
C753   H852    1.111   .     S
C754   H786    1.104   .     S
C754   H788    1.111   .     S
C754   H837    1.111   .     S
C755   C757    1.528   .     S
C755   H776    1.108   .     S
C755   C889    1.541   1_455 S
C755   H918    1.111   1_455 S
C756   O800    1.282   .     A
C756   O798    1.277   .     A
C757   H793    1.111   .     S
C757   H791    1.104   .     S
C757   H916    1.111   1_455 S
C758   H781    1.112   .     S
C758   H780    1.107   .     S
C758   C768    1.522   .     S
C758   C759    1.528   .     S
C759   H778    1.110   .     S
C759   H779    1.110   .     S
C759   H777    1.110   .     S
C760   H787    1.107   .     S
C760   H785    1.112   .     S
C760   C761    1.527   .     S
C761   H784    1.110   .     S
C761   H782    1.110   .     S
C761   H783    1.110   .     S
C762   C764    1.407   .     S
C762   O801    1.269   .     A
C762   O803    1.286   .     A
C763   O804    1.286   .     A
C763   C765    1.407   .     S
C763   O802    1.269   .     A
C764   C877    1.541   1_455 S
C764   C889    1.367   1_455 S
C765   C817    1.541   .     S
C765   C826    1.367   .     S
C766   F769    1.362   .     S
C767   F770    1.362   .     S
C767   C932    1.380   .     S
C768   C952    1.380   .     S
H775   C878    1.111   1_455 S
H790   C877    1.111   1_455 S
H792   C819    1.111   .     S
H794   C817    1.111   .     S
N795   Zn805   2.009   .     S
N796   Zn806   2.009   .     S
O797   Zn805   1.988   .     S
O798   Zn806   1.988   .     S
O799   Zn806   1.991   .     S
O800   Zn805   1.991   .     S
O801   Zn805   1.985   .     S
O802   Zn806   1.985   .     S
O803   Zn806   1.993   .     S
O804   Zn805   1.993   .     S
C807   C810    1.411   .     S
C807   O861    1.282   .     A
C807   O859    1.277   .     A
C808   C810    1.409   .     A
C808   C822    1.522   .     S
C809   C829    1.397   .     A
C809   C830    1.409   .     A
C809   C818    1.411   .     S
C810   C828    1.397   .     A
C811   N858    1.367   .     A
C811   F833    1.355   .     S
C812   N857    1.367   .     A
C812   F834    1.355   .     S
C812   C1372   1.416   .     S
C813   F835    1.355   .     S
C813   N857    1.367   .     A
C813   C1369   1.416   .     S
C814   N858    1.367   .     A
C814   F836    1.355   .     S
C815   H851    1.108   .     S
C815   C816    1.528   .     S
C815   C888    1.541   .     S
C815   H914    1.111   .     S
C816   H848    1.104   .     S
C816   H850    1.111   .     S
C816   H899    1.111   .     S
C817   C819    1.528   .     S
C817   H838    1.108   .     S
C818   O862    1.282   .     A
C818   O860    1.277   .     A
C819   H855    1.111   .     S
C819   H853    1.104   .     S
C820   H843    1.112   .     S
C820   H842    1.107   .     S
C820   C830    1.522   .     S
C820   C821    1.528   .     S
C821   H840    1.110   .     S
C821   H841    1.110   .     S
C821   H839    1.110   .     S
C822   H849    1.107   .     S
C822   H847    1.112   .     S
C822   C823    1.527   .     S
C823   H846    1.110   .     S
C823   H844    1.110   .     S
C823   H845    1.110   .     S
C824   C826    1.407   .     S
C824   O863    1.269   .     A
C824   O865    1.286   .     A
C825   O866    1.286   .     A
C825   C827    1.407   .     S
C825   O864    1.269   .     A
C827   C879    1.541   .     S
C827   C888    1.367   .     S
C828   F831    1.362   .     S
C829   F832    1.362   .     S
C829   C994    1.380   .     S
C830   C1014   1.380   .     S
H854   C881    1.111   .     S
H856   C879    1.111   .     S
N857   Zn867   2.009   .     S
N858   Zn868   2.009   .     S
O859   Zn867   1.988   .     S
O860   Zn868   1.988   .     S
O861   Zn868   1.991   .     S
O862   Zn867   1.991   .     S
O863   Zn867   1.985   .     S
O864   Zn868   1.985   .     S
O865   Zn868   1.993   .     S
O866   Zn867   1.993   .     S
C869   C872    1.411   .     S
C869   O923    1.282   .     A
C869   O921    1.277   .     A
C870   C872    1.409   .     A
C870   C884    1.522   .     S
C871   C891    1.397   .     A
C871   C892    1.409   .     A
C871   C880    1.411   .     S
C872   C890    1.397   .     A
C873   N920    1.367   .     A
C873   F895    1.355   .     S
C874   N919    1.367   .     A
C874   F896    1.355   .     S
C874   C1434   1.416   .     S
C875   F897    1.355   .     S
C875   N919    1.367   .     A
C875   C1431   1.416   .     S
C876   N920    1.367   .     A
C876   F898    1.355   .     S
C877   H913    1.108   .     S
C877   C878    1.528   .     S
C877   C764    1.541   1_655 S
C877   H790    1.111   1_655 S
C878   H910    1.104   .     S
C878   H912    1.111   .     S
C878   H775    1.111   1_655 S
C879   C881    1.528   .     S
C879   H900    1.108   .     S
C880   O924    1.282   .     A
C880   O922    1.277   .     A
C881   H917    1.111   .     S
C881   H915    1.104   .     S
C882   H905    1.112   .     S
C882   H904    1.107   .     S
C882   C892    1.522   .     S
C882   C883    1.528   .     S
C883   H902    1.110   .     S
C883   H903    1.110   .     S
C883   H901    1.110   .     S
C884   H911    1.107   .     S
C884   H909    1.112   .     S
C884   C885    1.527   .     S
C885   H908    1.110   .     S
C885   H906    1.110   .     S
C885   H907    1.110   .     S
C886   C888    1.407   .     S
C886   O925    1.269   .     A
C886   O927    1.286   .     A
C887   O928    1.286   .     A
C887   C889    1.407   .     S
C887   O926    1.269   .     A
C889   C755    1.541   1_655 S
C889   C764    1.367   1_655 S
C890   F893    1.362   .     S
C891   F894    1.362   .     S
C891   C1056   1.380   .     S
C892   C1076   1.380   .     S
H916   C757    1.111   1_655 S
H918   C755    1.111   1_655 S
N919   Zn929   2.009   .     S
N920   Zn930   2.009   .     S
O921   Zn929   1.988   .     S
O922   Zn930   1.988   .     S
O923   Zn930   1.991   .     S
O924   Zn929   1.991   .     S
O925   Zn929   1.985   .     S
O926   Zn930   1.985   .     S
O927   Zn930   1.993   .     S
O928   Zn929   1.993   .     S
C931   C934    1.411   .     S
C931   O985    1.282   .     A
C931   O983    1.277   .     A
C932   C934    1.409   .     A
C932   C946    1.522   .     S
C933   C953    1.397   .     A
C933   C954    1.409   .     A
C933   C942    1.411   .     S
C934   C952    1.397   .     A
C935   N982    1.367   .     A
C935   F957    1.355   .     S
C936   N981    1.367   .     A
C936   F958    1.355   .     S
C936   C1496   1.416   .     S
C937   F959    1.355   .     S
C937   N981    1.367   .     A
C937   C1493   1.416   .     S
C938   N982    1.367   .     A
C938   F960    1.355   .     S
C939   H975    1.108   .     S
C939   C940    1.528   .     S
C939   C1012   1.541   .     S
C939   H1038   1.111   .     S
C940   H972    1.104   .     S
C940   H974    1.111   .     S
C940   H1023   1.111   .     S
C941   C943    1.528   .     S
C941   H962    1.108   .     S
C941   C1075   1.541   1_455 S
C941   H1104   1.111   1_455 S
C942   O986    1.282   .     A
C942   O984    1.277   .     A
C943   H979    1.111   .     S
C943   H977    1.104   .     S
C943   H1102   1.111   1_455 S
C944   H967    1.112   .     S
C944   H966    1.107   .     S
C944   C954    1.522   .     S
C944   C945    1.528   .     S
C945   H964    1.110   .     S
C945   H965    1.110   .     S
C945   H963    1.110   .     S
C946   H973    1.107   .     S
C946   H971    1.112   .     S
C946   C947    1.527   .     S
C947   H970    1.110   .     S
C947   H968    1.110   .     S
C947   H969    1.110   .     S
C948   C950    1.407   .     S
C948   O987    1.269   .     A
C948   O989    1.286   .     A
C949   O990    1.286   .     A
C949   C951    1.407   .     S
C949   O988    1.269   .     A
C950   C1063   1.541   1_455 S
C950   C1075   1.367   1_455 S
C951   C1003   1.541   .     S
C951   C1012   1.367   .     S
C952   F955    1.362   .     S
C953   F956    1.362   .     S
C953   C560    1.380   1_565 S
C954   C580    1.380   1_565 S
H961   C1064   1.111   1_455 S
H976   C1063   1.111   1_455 S
H978   C1005   1.111   .     S
H980   C1003   1.111   .     S
N981   Zn991   2.009   .     S
N982   Zn992   2.009   .     S
O983   Zn991   1.988   .     S
O984   Zn992   1.988   .     S
O985   Zn992   1.991   .     S
O986   Zn991   1.991   .     S
O987   Zn991   1.985   .     S
O988   Zn992   1.985   .     S
O989   Zn992   1.993   .     S
O990   Zn991   1.993   .     S
C993   C996    1.411   .     S
C993   O1047   1.282   .     A
C993   O1045   1.277   .     A
C994   C996    1.409   .     A
C994   C1008   1.522   .     S
C995   C1015   1.397   .     A
C995   C1016   1.409   .     A
C995   C1004   1.411   .     S
C996   C1014   1.397   .     A
C997   N1044   1.367   .     A
C997   F1019   1.355   .     S
C998   N1043   1.367   .     A
C998   F1020   1.355   .     S
C998   C1558   1.416   .     S
C999   F1021   1.355   .     S
C999   N1043   1.367   .     A
C999   C1555   1.416   .     S
C1000  N1044   1.367   .     A
C1000  F1022   1.355   .     S
C1001  H1037   1.108   .     S
C1001  C1002   1.528   .     S
C1001  C1074   1.541   .     S
C1001  H1100   1.111   .     S
C1002  H1034   1.104   .     S
C1002  H1036   1.111   .     S
C1002  H1085   1.111   .     S
C1003  C1005   1.528   .     S
C1003  H1024   1.108   .     S
C1004  O1048   1.282   .     A
C1004  O1046   1.277   .     A
C1005  H1041   1.111   .     S
C1005  H1039   1.104   .     S
C1006  H1029   1.112   .     S
C1006  H1028   1.107   .     S
C1006  C1016   1.522   .     S
C1006  C1007   1.528   .     S
C1007  H1026   1.110   .     S
C1007  H1027   1.110   .     S
C1007  H1025   1.110   .     S
C1008  H1035   1.107   .     S
C1008  H1033   1.112   .     S
C1008  C1009   1.527   .     S
C1009  H1032   1.110   .     S
C1009  H1030   1.110   .     S
C1009  H1031   1.110   .     S
C1010  C1012   1.407   .     S
C1010  O1049   1.269   .     A
C1010  O1051   1.286   .     A
C1011  O1052   1.286   .     A
C1011  C1013   1.407   .     S
C1011  O1050   1.269   .     A
C1013  C1065   1.541   .     S
C1013  C1074   1.367   .     S
C1014  F1017   1.362   .     S
C1015  F1018   1.362   .     S
C1015  C622    1.380   1_565 S
C1016  C642    1.380   1_565 S
H1040  C1067   1.111   .     S
H1042  C1065   1.111   .     S
N1043  Zn1053  2.009   .     S
N1044  Zn1054  2.009   .     S
O1045  Zn1053  1.988   .     S
O1046  Zn1054  1.988   .     S
O1047  Zn1054  1.991   .     S
O1048  Zn1053  1.991   .     S
O1049  Zn1053  1.985   .     S
O1050  Zn1054  1.985   .     S
O1051  Zn1054  1.993   .     S
O1052  Zn1053  1.993   .     S
C1055  C1058   1.411   .     S
C1055  O1109   1.282   .     A
C1055  O1107   1.277   .     A
C1056  C1058   1.409   .     A
C1056  C1070   1.522   .     S
C1057  C1077   1.397   .     A
C1057  C1078   1.409   .     A
C1057  C1066   1.411   .     S
C1058  C1076   1.397   .     A
C1059  N1106   1.367   .     A
C1059  F1081   1.355   .     S
C1060  N1105   1.367   .     A
C1060  F1082   1.355   .     S
C1060  C1620   1.416   .     S
C1061  F1083   1.355   .     S
C1061  N1105   1.367   .     A
C1061  C1617   1.416   .     S
C1062  N1106   1.367   .     A
C1062  F1084   1.355   .     S
C1063  H1099   1.108   .     S
C1063  C1064   1.528   .     S
C1063  C950    1.541   1_655 S
C1063  H976    1.111   1_655 S
C1064  H1096   1.104   .     S
C1064  H1098   1.111   .     S
C1064  H961    1.111   1_655 S
C1065  C1067   1.528   .     S
C1065  H1086   1.108   .     S
C1066  O1110   1.282   .     A
C1066  O1108   1.277   .     A
C1067  H1103   1.111   .     S
C1067  H1101   1.104   .     S
C1068  H1091   1.112   .     S
C1068  H1090   1.107   .     S
C1068  C1078   1.522   .     S
C1068  C1069   1.528   .     S
C1069  H1088   1.110   .     S
C1069  H1089   1.110   .     S
C1069  H1087   1.110   .     S
C1070  H1097   1.107   .     S
C1070  H1095   1.112   .     S
C1070  C1071   1.527   .     S
C1071  H1094   1.110   .     S
C1071  H1092   1.110   .     S
C1071  H1093   1.110   .     S
C1072  C1074   1.407   .     S
C1072  O1111   1.269   .     A
C1072  O1113   1.286   .     A
C1073  O1114   1.286   .     A
C1073  C1075   1.407   .     S
C1073  O1112   1.269   .     A
C1075  C941    1.541   1_655 S
C1075  C950    1.367   1_655 S
C1076  F1079   1.362   .     S
C1077  F1080   1.362   .     S
C1077  C684    1.380   1_565 S
C1078  C704    1.380   1_565 S
H1102  C943    1.111   1_655 S
H1104  C941    1.111   1_655 S
N1105  Zn1115  2.009   .     S
N1106  Zn1116  2.009   .     S
O1107  Zn1115  1.988   .     S
O1108  Zn1116  1.988   .     S
O1109  Zn1116  1.991   .     S
O1110  Zn1115  1.991   .     S
O1111  Zn1115  1.985   .     S
O1112  Zn1116  1.985   .     S
O1113  Zn1116  1.993   .     S
O1114  Zn1115  1.993   .     S
C1117  C1120   1.411   .     S
C1117  O1171   1.282   .     A
C1117  O1169   1.277   .     A
C1118  C1120   1.409   .     A
C1118  C1132   1.522   .     S
C1118  C1511   1.380   1_545 S
C1119  C1139   1.397   .     A
C1119  C1140   1.409   .     A
C1119  C1128   1.411   .     S
C1120  C1138   1.397   .     A
C1121  N1168   1.367   .     A
C1121  F1143   1.355   .     S
C1122  N1167   1.367   .     A
C1122  F1144   1.355   .     S
C1122  C8      1.416   1_556 S
C1123  F1145   1.355   .     S
C1123  N1167   1.367   .     A
C1123  C5      1.416   1_556 S
C1124  N1168   1.367   .     A
C1124  F1146   1.355   .     S
C1125  H1161   1.108   .     S
C1125  C1126   1.528   .     S
C1125  C1198   1.541   .     S
C1125  H1224   1.111   .     S
C1126  H1158   1.104   .     S
C1126  H1160   1.111   .     S
C1126  H1209   1.111   .     S
C1127  C1129   1.528   .     S
C1127  H1148   1.108   .     S
C1127  C1261   1.541   1_455 S
C1127  H1290   1.111   1_455 S
C1128  O1172   1.282   .     A
C1128  O1170   1.277   .     A
C1129  H1165   1.111   .     S
C1129  H1163   1.104   .     S
C1129  H1288   1.111   1_455 S
C1130  H1153   1.112   .     S
C1130  H1152   1.107   .     S
C1130  C1140   1.522   .     S
C1130  C1131   1.528   .     S
C1131  H1150   1.110   .     S
C1131  H1151   1.110   .     S
C1131  H1149   1.110   .     S
C1132  H1159   1.107   .     S
C1132  H1157   1.112   .     S
C1132  C1133   1.527   .     S
C1133  H1156   1.110   .     S
C1133  H1154   1.110   .     S
C1133  H1155   1.110   .     S
C1134  C1136   1.407   .     S
C1134  O1173   1.269   .     A
C1134  O1175   1.286   .     A
C1135  O1176   1.286   .     A
C1135  C1137   1.407   .     S
C1135  O1174   1.269   .     A
C1136  C1249   1.541   1_455 S
C1136  C1261   1.367   1_455 S
C1137  C1189   1.541   .     S
C1137  C1198   1.367   .     S
C1138  F1141   1.362   .     S
C1138  C1512   1.380   1_545 S
C1139  F1142   1.362   .     S
C1139  C1304   1.380   .     S
C1140  C1324   1.380   .     S
H1147  C1250   1.111   1_455 S
H1162  C1249   1.111   1_455 S
H1164  C1191   1.111   .     S
H1166  C1189   1.111   .     S
N1167  Zn1177  2.009   .     S
N1168  Zn1178  2.009   .     S
O1169  Zn1177  1.988   .     S
O1170  Zn1178  1.988   .     S
O1171  Zn1178  1.991   .     S
O1172  Zn1177  1.991   .     S
O1173  Zn1177  1.985   .     S
O1174  Zn1178  1.985   .     S
O1175  Zn1178  1.993   .     S
O1176  Zn1177  1.993   .     S
C1179  C1182   1.411   .     S
C1179  O1233   1.282   .     A
C1179  O1231   1.277   .     A
C1180  C1182   1.409   .     A
C1180  C1194   1.522   .     S
C1180  C1573   1.380   1_545 S
C1181  C1201   1.397   .     A
C1181  C1202   1.409   .     A
C1181  C1190   1.411   .     S
C1182  C1200   1.397   .     A
C1183  N1230   1.367   .     A
C1183  F1205   1.355   .     S
C1184  N1229   1.367   .     A
C1184  F1206   1.355   .     S
C1184  C70     1.416   1_556 S
C1185  F1207   1.355   .     S
C1185  N1229   1.367   .     A
C1185  C67     1.416   1_556 S
C1186  N1230   1.367   .     A
C1186  F1208   1.355   .     S
C1187  H1223   1.108   .     S
C1187  C1188   1.528   .     S
C1187  C1260   1.541   .     S
C1187  H1286   1.111   .     S
C1188  H1220   1.104   .     S
C1188  H1222   1.111   .     S
C1188  H1271   1.111   .     S
C1189  C1191   1.528   .     S
C1189  H1210   1.108   .     S
C1190  O1234   1.282   .     A
C1190  O1232   1.277   .     A
C1191  H1227   1.111   .     S
C1191  H1225   1.104   .     S
C1192  H1215   1.112   .     S
C1192  H1214   1.107   .     S
C1192  C1202   1.522   .     S
C1192  C1193   1.528   .     S
C1193  H1212   1.110   .     S
C1193  H1213   1.110   .     S
C1193  H1211   1.110   .     S
C1194  H1221   1.107   .     S
C1194  H1219   1.112   .     S
C1194  C1195   1.527   .     S
C1195  H1218   1.110   .     S
C1195  H1216   1.110   .     S
C1195  H1217   1.110   .     S
C1196  C1198   1.407   .     S
C1196  O1235   1.269   .     A
C1196  O1237   1.286   .     A
C1197  O1238   1.286   .     A
C1197  C1199   1.407   .     S
C1197  O1236   1.269   .     A
C1199  C1251   1.541   .     S
C1199  C1260   1.367   .     S
C1200  F1203   1.362   .     S
C1200  C1574   1.380   1_545 S
C1201  F1204   1.362   .     S
C1201  C1366   1.380   .     S
C1202  C1386   1.380   .     S
H1226  C1253   1.111   .     S
H1228  C1251   1.111   .     S
N1229  Zn1239  2.009   .     S
N1230  Zn1240  2.009   .     S
O1231  Zn1239  1.988   .     S
O1232  Zn1240  1.988   .     S
O1233  Zn1240  1.991   .     S
O1234  Zn1239  1.991   .     S
O1235  Zn1239  1.985   .     S
O1236  Zn1240  1.985   .     S
O1237  Zn1240  1.993   .     S
O1238  Zn1239  1.993   .     S
C1241  C1244   1.411   .     S
C1241  O1295   1.282   .     A
C1241  O1293   1.277   .     A
C1242  C1244   1.409   .     A
C1242  C1256   1.522   .     S
C1242  C1635   1.380   1_545 S
C1243  C1263   1.397   .     A
C1243  C1264   1.409   .     A
C1243  C1252   1.411   .     S
C1244  C1262   1.397   .     A
C1245  N1292   1.367   .     A
C1245  F1267   1.355   .     S
C1246  N1291   1.367   .     A
C1246  F1268   1.355   .     S
C1246  C132    1.416   1_556 S
C1247  F1269   1.355   .     S
C1247  N1291   1.367   .     A
C1247  C129    1.416   1_556 S
C1248  N1292   1.367   .     A
C1248  F1270   1.355   .     S
C1249  H1285   1.108   .     S
C1249  C1250   1.528   .     S
C1249  C1136   1.541   1_655 S
C1249  H1162   1.111   1_655 S
C1250  H1282   1.104   .     S
C1250  H1284   1.111   .     S
C1250  H1147   1.111   1_655 S
C1251  C1253   1.528   .     S
C1251  H1272   1.108   .     S
C1252  O1296   1.282   .     A
C1252  O1294   1.277   .     A
C1253  H1289   1.111   .     S
C1253  H1287   1.104   .     S
C1254  H1277   1.112   .     S
C1254  H1276   1.107   .     S
C1254  C1264   1.522   .     S
C1254  C1255   1.528   .     S
C1255  H1274   1.110   .     S
C1255  H1275   1.110   .     S
C1255  H1273   1.110   .     S
C1256  H1283   1.107   .     S
C1256  H1281   1.112   .     S
C1256  C1257   1.527   .     S
C1257  H1280   1.110   .     S
C1257  H1278   1.110   .     S
C1257  H1279   1.110   .     S
C1258  C1260   1.407   .     S
C1258  O1297   1.269   .     A
C1258  O1299   1.286   .     A
C1259  O1300   1.286   .     A
C1259  C1261   1.407   .     S
C1259  O1298   1.269   .     A
C1261  C1127   1.541   1_655 S
C1261  C1136   1.367   1_655 S
C1262  F1265   1.362   .     S
C1262  C1636   1.380   1_545 S
C1263  F1266   1.362   .     S
C1263  C1428   1.380   .     S
C1264  C1448   1.380   .     S
H1288  C1129   1.111   1_655 S
H1290  C1127   1.111   1_655 S
N1291  Zn1301  2.009   .     S
N1292  Zn1302  2.009   .     S
O1293  Zn1301  1.988   .     S
O1294  Zn1302  1.988   .     S
O1295  Zn1302  1.991   .     S
O1296  Zn1301  1.991   .     S
O1297  Zn1301  1.985   .     S
O1298  Zn1302  1.985   .     S
O1299  Zn1302  1.993   .     S
O1300  Zn1301  1.993   .     S
C1303  C1306   1.411   .     S
C1303  O1357   1.282   .     A
C1303  O1355   1.277   .     A
C1304  C1306   1.409   .     A
C1304  C1318   1.522   .     S
C1305  C1325   1.397   .     A
C1305  C1326   1.409   .     A
C1305  C1314   1.411   .     S
C1306  C1324   1.397   .     A
C1307  N1354   1.367   .     A
C1307  F1329   1.355   .     S
C1308  N1353   1.367   .     A
C1308  F1330   1.355   .     S
C1308  C194    1.416   1_556 S
C1309  F1331   1.355   .     S
C1309  N1353   1.367   .     A
C1309  C191    1.416   1_556 S
C1310  N1354   1.367   .     A
C1310  F1332   1.355   .     S
C1311  H1347   1.108   .     S
C1311  C1312   1.528   .     S
C1311  C1384   1.541   .     S
C1311  H1410   1.111   .     S
C1312  H1344   1.104   .     S
C1312  H1346   1.111   .     S
C1312  H1395   1.111   .     S
C1313  C1315   1.528   .     S
C1313  H1334   1.108   .     S
C1313  C1447   1.541   1_455 S
C1313  H1476   1.111   1_455 S
C1314  O1358   1.282   .     A
C1314  O1356   1.277   .     A
C1315  H1351   1.111   .     S
C1315  H1349   1.104   .     S
C1315  H1474   1.111   1_455 S
C1316  H1339   1.112   .     S
C1316  H1338   1.107   .     S
C1316  C1326   1.522   .     S
C1316  C1317   1.528   .     S
C1317  H1336   1.110   .     S
C1317  H1337   1.110   .     S
C1317  H1335   1.110   .     S
C1318  H1345   1.107   .     S
C1318  H1343   1.112   .     S
C1318  C1319   1.527   .     S
C1319  H1342   1.110   .     S
C1319  H1340   1.110   .     S
C1319  H1341   1.110   .     S
C1320  C1322   1.407   .     S
C1320  O1359   1.269   .     A
C1320  O1361   1.286   .     A
C1321  O1362   1.286   .     A
C1321  C1323   1.407   .     S
C1321  O1360   1.269   .     A
C1322  C1435   1.541   1_455 S
C1322  C1447   1.367   1_455 S
C1323  C1375   1.541   .     S
C1323  C1384   1.367   .     S
C1324  F1327   1.362   .     S
C1325  F1328   1.362   .     S
C1325  C1490   1.380   .     S
C1326  C1510   1.380   .     S
H1333  C1436   1.111   1_455 S
H1348  C1435   1.111   1_455 S
H1350  C1377   1.111   .     S
H1352  C1375   1.111   .     S
N1353  Zn1363  2.009   .     S
N1354  Zn1364  2.009   .     S
O1355  Zn1363  1.988   .     S
O1356  Zn1364  1.988   .     S
O1357  Zn1364  1.991   .     S
O1358  Zn1363  1.991   .     S
O1359  Zn1363  1.985   .     S
O1360  Zn1364  1.985   .     S
O1361  Zn1364  1.993   .     S
O1362  Zn1363  1.993   .     S
C1365  C1368   1.411   .     S
C1365  O1419   1.282   .     A
C1365  O1417   1.277   .     A
C1366  C1368   1.409   .     A
C1366  C1380   1.522   .     S
C1367  C1387   1.397   .     A
C1367  C1388   1.409   .     A
C1367  C1376   1.411   .     S
C1368  C1386   1.397   .     A
C1369  N1416   1.367   .     A
C1369  F1391   1.355   .     S
C1370  N1415   1.367   .     A
C1370  F1392   1.355   .     S
C1370  C256    1.416   1_556 S
C1371  F1393   1.355   .     S
C1371  N1415   1.367   .     A
C1371  C253    1.416   1_556 S
C1372  N1416   1.367   .     A
C1372  F1394   1.355   .     S
C1373  H1409   1.108   .     S
C1373  C1374   1.528   .     S
C1373  C1446   1.541   .     S
C1373  H1472   1.111   .     S
C1374  H1406   1.104   .     S
C1374  H1408   1.111   .     S
C1374  H1457   1.111   .     S
C1375  C1377   1.528   .     S
C1375  H1396   1.108   .     S
C1376  O1420   1.282   .     A
C1376  O1418   1.277   .     A
C1377  H1413   1.111   .     S
C1377  H1411   1.104   .     S
C1378  H1401   1.112   .     S
C1378  H1400   1.107   .     S
C1378  C1388   1.522   .     S
C1378  C1379   1.528   .     S
C1379  H1398   1.110   .     S
C1379  H1399   1.110   .     S
C1379  H1397   1.110   .     S
C1380  H1407   1.107   .     S
C1380  H1405   1.112   .     S
C1380  C1381   1.527   .     S
C1381  H1404   1.110   .     S
C1381  H1402   1.110   .     S
C1381  H1403   1.110   .     S
C1382  C1384   1.407   .     S
C1382  O1421   1.269   .     A
C1382  O1423   1.286   .     A
C1383  O1424   1.286   .     A
C1383  C1385   1.407   .     S
C1383  O1422   1.269   .     A
C1385  C1437   1.541   .     S
C1385  C1446   1.367   .     S
C1386  F1389   1.362   .     S
C1387  F1390   1.362   .     S
C1387  C1552   1.380   .     S
C1388  C1572   1.380   .     S
H1412  C1439   1.111   .     S
H1414  C1437   1.111   .     S
N1415  Zn1425  2.009   .     S
N1416  Zn1426  2.009   .     S
O1417  Zn1425  1.988   .     S
O1418  Zn1426  1.988   .     S
O1419  Zn1426  1.991   .     S
O1420  Zn1425  1.991   .     S
O1421  Zn1425  1.985   .     S
O1422  Zn1426  1.985   .     S
O1423  Zn1426  1.993   .     S
O1424  Zn1425  1.993   .     S
C1427  C1430   1.411   .     S
C1427  O1481   1.282   .     A
C1427  O1479   1.277   .     A
C1428  C1430   1.409   .     A
C1428  C1442   1.522   .     S
C1429  C1449   1.397   .     A
C1429  C1450   1.409   .     A
C1429  C1438   1.411   .     S
C1430  C1448   1.397   .     A
C1431  N1478   1.367   .     A
C1431  F1453   1.355   .     S
C1432  N1477   1.367   .     A
C1432  F1454   1.355   .     S
C1432  C318    1.416   1_556 S
C1433  F1455   1.355   .     S
C1433  N1477   1.367   .     A
C1433  C315    1.416   1_556 S
C1434  N1478   1.367   .     A
C1434  F1456   1.355   .     S
C1435  H1471   1.108   .     S
C1435  C1436   1.528   .     S
C1435  C1322   1.541   1_655 S
C1435  H1348   1.111   1_655 S
C1436  H1468   1.104   .     S
C1436  H1470   1.111   .     S
C1436  H1333   1.111   1_655 S
C1437  C1439   1.528   .     S
C1437  H1458   1.108   .     S
C1438  O1482   1.282   .     A
C1438  O1480   1.277   .     A
C1439  H1475   1.111   .     S
C1439  H1473   1.104   .     S
C1440  H1463   1.112   .     S
C1440  H1462   1.107   .     S
C1440  C1450   1.522   .     S
C1440  C1441   1.528   .     S
C1441  H1460   1.110   .     S
C1441  H1461   1.110   .     S
C1441  H1459   1.110   .     S
C1442  H1469   1.107   .     S
C1442  H1467   1.112   .     S
C1442  C1443   1.527   .     S
C1443  H1466   1.110   .     S
C1443  H1464   1.110   .     S
C1443  H1465   1.110   .     S
C1444  C1446   1.407   .     S
C1444  O1483   1.269   .     A
C1444  O1485   1.286   .     A
C1445  O1486   1.286   .     A
C1445  C1447   1.407   .     S
C1445  O1484   1.269   .     A
C1447  C1313   1.541   1_655 S
C1447  C1322   1.367   1_655 S
C1448  F1451   1.362   .     S
C1449  F1452   1.362   .     S
C1449  C1614   1.380   .     S
C1450  C1634   1.380   .     S
H1474  C1315   1.111   1_655 S
H1476  C1313   1.111   1_655 S
N1477  Zn1487  2.009   .     S
N1478  Zn1488  2.009   .     S
O1479  Zn1487  1.988   .     S
O1480  Zn1488  1.988   .     S
O1481  Zn1488  1.991   .     S
O1482  Zn1487  1.991   .     S
O1483  Zn1487  1.985   .     S
O1484  Zn1488  1.985   .     S
O1485  Zn1488  1.993   .     S
O1486  Zn1487  1.993   .     S
C1489  C1492   1.411   .     S
C1489  O1543   1.282   .     A
C1489  O1541   1.277   .     A
C1490  C1492   1.409   .     A
C1490  C1504   1.522   .     S
C1491  C1511   1.397   .     A
C1491  C1512   1.409   .     A
C1491  C1500   1.411   .     S
C1492  C1510   1.397   .     A
C1493  N1540   1.367   .     A
C1493  F1515   1.355   .     S
C1494  N1539   1.367   .     A
C1494  F1516   1.355   .     S
C1494  C380    1.416   1_556 S
C1495  F1517   1.355   .     S
C1495  N1539   1.367   .     A
C1495  C377    1.416   1_556 S
C1496  N1540   1.367   .     A
C1496  F1518   1.355   .     S
C1497  H1533   1.108   .     S
C1497  C1498   1.528   .     S
C1497  C1570   1.541   .     S
C1497  H1596   1.111   .     S
C1498  H1530   1.104   .     S
C1498  H1532   1.111   .     S
C1498  H1581   1.111   .     S
C1499  C1501   1.528   .     S
C1499  H1520   1.108   .     S
C1499  C1633   1.541   1_455 S
C1499  H1662   1.111   1_455 S
C1500  O1544   1.282   .     A
C1500  O1542   1.277   .     A
C1501  H1537   1.111   .     S
C1501  H1535   1.104   .     S
C1501  H1660   1.111   1_455 S
C1502  H1525   1.112   .     S
C1502  H1524   1.107   .     S
C1502  C1512   1.522   .     S
C1502  C1503   1.528   .     S
C1503  H1522   1.110   .     S
C1503  H1523   1.110   .     S
C1503  H1521   1.110   .     S
C1504  H1531   1.107   .     S
C1504  H1529   1.112   .     S
C1504  C1505   1.527   .     S
C1505  H1528   1.110   .     S
C1505  H1526   1.110   .     S
C1505  H1527   1.110   .     S
C1506  C1508   1.407   .     S
C1506  O1545   1.269   .     A
C1506  O1547   1.286   .     A
C1507  O1548   1.286   .     A
C1507  C1509   1.407   .     S
C1507  O1546   1.269   .     A
C1508  C1621   1.541   1_455 S
C1508  C1633   1.367   1_455 S
C1509  C1561   1.541   .     S
C1509  C1570   1.367   .     S
C1510  F1513   1.362   .     S
C1511  F1514   1.362   .     S
C1511  C1118   1.380   1_565 S
C1512  C1138   1.380   1_565 S
H1519  C1622   1.111   1_455 S
H1534  C1621   1.111   1_455 S
H1536  C1563   1.111   .     S
H1538  C1561   1.111   .     S
N1539  Zn1549  2.009   .     S
N1540  Zn1550  2.009   .     S
O1541  Zn1549  1.988   .     S
O1542  Zn1550  1.988   .     S
O1543  Zn1550  1.991   .     S
O1544  Zn1549  1.991   .     S
O1545  Zn1549  1.985   .     S
O1546  Zn1550  1.985   .     S
O1547  Zn1550  1.993   .     S
O1548  Zn1549  1.993   .     S
C1551  C1554   1.411   .     S
C1551  O1605   1.282   .     A
C1551  O1603   1.277   .     A
C1552  C1554   1.409   .     A
C1552  C1566   1.522   .     S
C1553  C1573   1.397   .     A
C1553  C1574   1.409   .     A
C1553  C1562   1.411   .     S
C1554  C1572   1.397   .     A
C1555  N1602   1.367   .     A
C1555  F1577   1.355   .     S
C1556  N1601   1.367   .     A
C1556  F1578   1.355   .     S
C1556  C442    1.416   1_556 S
C1557  F1579   1.355   .     S
C1557  N1601   1.367   .     A
C1557  C439    1.416   1_556 S
C1558  N1602   1.367   .     A
C1558  F1580   1.355   .     S
C1559  H1595   1.108   .     S
C1559  C1560   1.528   .     S
C1559  C1632   1.541   .     S
C1559  H1658   1.111   .     S
C1560  H1592   1.104   .     S
C1560  H1594   1.111   .     S
C1560  H1643   1.111   .     S
C1561  C1563   1.528   .     S
C1561  H1582   1.108   .     S
C1562  O1606   1.282   .     A
C1562  O1604   1.277   .     A
C1563  H1599   1.111   .     S
C1563  H1597   1.104   .     S
C1564  H1587   1.112   .     S
C1564  H1586   1.107   .     S
C1564  C1574   1.522   .     S
C1564  C1565   1.528   .     S
C1565  H1584   1.110   .     S
C1565  H1585   1.110   .     S
C1565  H1583   1.110   .     S
C1566  H1593   1.107   .     S
C1566  H1591   1.112   .     S
C1566  C1567   1.527   .     S
C1567  H1590   1.110   .     S
C1567  H1588   1.110   .     S
C1567  H1589   1.110   .     S
C1568  C1570   1.407   .     S
C1568  O1607   1.269   .     A
C1568  O1609   1.286   .     A
C1569  O1610   1.286   .     A
C1569  C1571   1.407   .     S
C1569  O1608   1.269   .     A
C1571  C1623   1.541   .     S
C1571  C1632   1.367   .     S
C1572  F1575   1.362   .     S
C1573  F1576   1.362   .     S
C1573  C1180   1.380   1_565 S
C1574  C1200   1.380   1_565 S
H1598  C1625   1.111   .     S
H1600  C1623   1.111   .     S
N1601  Zn1611  2.009   .     S
N1602  Zn1612  2.009   .     S
O1603  Zn1611  1.988   .     S
O1604  Zn1612  1.988   .     S
O1605  Zn1612  1.991   .     S
O1606  Zn1611  1.991   .     S
O1607  Zn1611  1.985   .     S
O1608  Zn1612  1.985   .     S
O1609  Zn1612  1.993   .     S
O1610  Zn1611  1.993   .     S
C1613  C1616   1.411   .     S
C1613  O1667   1.282   .     A
C1613  O1665   1.277   .     A
C1614  C1616   1.409   .     A
C1614  C1628   1.522   .     S
C1615  C1635   1.397   .     A
C1615  C1636   1.409   .     A
C1615  C1624   1.411   .     S
C1616  C1634   1.397   .     A
C1617  N1664   1.367   .     A
C1617  F1639   1.355   .     S
C1618  N1663   1.367   .     A
C1618  F1640   1.355   .     S
C1618  C504    1.416   1_556 S
C1619  F1641   1.355   .     S
C1619  N1663   1.367   .     A
C1619  C501    1.416   1_556 S
C1620  N1664   1.367   .     A
C1620  F1642   1.355   .     S
C1621  H1657   1.108   .     S
C1621  C1622   1.528   .     S
C1621  C1508   1.541   1_655 S
C1621  H1534   1.111   1_655 S
C1622  H1654   1.104   .     S
C1622  H1656   1.111   .     S
C1622  H1519   1.111   1_655 S
C1623  C1625   1.528   .     S
C1623  H1644   1.108   .     S
C1624  O1668   1.282   .     A
C1624  O1666   1.277   .     A
C1625  H1661   1.111   .     S
C1625  H1659   1.104   .     S
C1626  H1649   1.112   .     S
C1626  H1648   1.107   .     S
C1626  C1636   1.522   .     S
C1626  C1627   1.528   .     S
C1627  H1646   1.110   .     S
C1627  H1647   1.110   .     S
C1627  H1645   1.110   .     S
C1628  H1655   1.107   .     S
C1628  H1653   1.112   .     S
C1628  C1629   1.527   .     S
C1629  H1652   1.110   .     S
C1629  H1650   1.110   .     S
C1629  H1651   1.110   .     S
C1630  C1632   1.407   .     S
C1630  O1669   1.269   .     A
C1630  O1671   1.286   .     A
C1631  O1672   1.286   .     A
C1631  C1633   1.407   .     S
C1631  O1670   1.269   .     A
C1633  C1499   1.541   1_655 S
C1633  C1508   1.367   1_655 S
C1634  F1637   1.362   .     S
C1635  F1638   1.362   .     S
C1635  C1242   1.380   1_565 S
C1636  C1262   1.380   1_565 S
H1660  C1501   1.111   1_655 S
H1662  C1499   1.111   1_655 S
N1663  Zn1673  2.009   .     S
N1664  Zn1674  2.009   .     S
O1665  Zn1673  1.988   .     S
O1666  Zn1674  1.988   .     S
O1667  Zn1674  1.991   .     S
O1668  Zn1673  1.991   .     S
O1669  Zn1673  1.985   .     S
O1670  Zn1674  1.985   .     S
O1671  Zn1674  1.993   .     S
O1672  Zn1673  1.993   .     S
