data_str_m2_o10_o17_pcu_sym.31
_audit_creation_date              2020-01-03
_audit_creation_method            'Materials Studio'
_symmetry_space_group_name_H-M    'P1'
_symmetry_Int_Tables_number       1
_symmetry_cell_setting            triclinic
loop_
_symmetry_equiv_pos_as_xyz
  x,y,z
_cell_length_a                    30.0620
_cell_length_b                    26.0096
_cell_length_c                    22.2943
_cell_angle_alpha                 102.2211
_cell_angle_beta                  94.6043
_cell_angle_gamma                 92.6072
loop_
_atom_site_label
_atom_site_type_symbol
_atom_site_fract_x
_atom_site_fract_y
_atom_site_fract_z
_atom_site_U_iso_or_equiv
_atom_site_adp_type
_atom_site_occupancy
C1     C     0.24631   0.06668   0.15159   0.00000  Uiso   1.00
C2     C     0.08885   0.14685   0.11250   0.00000  Uiso   1.00
C3     C     0.38402   0.16756   0.16573   0.00000  Uiso   1.00
C4     C     0.11597   0.16545   0.16780   0.00000  Uiso   1.00
C5     C     0.40322   0.14913   0.11068   0.00000  Uiso   1.00
C6     C     0.09679   0.18374   0.22297   0.00000  Uiso   1.00
C7     C     0.44950   0.14819   0.11084   0.00000  Uiso   1.00
C8     C     0.05047   0.18426   0.22299   0.00000  Uiso   1.00
C9     C     0.47669   0.16646   0.16668   0.00000  Uiso   1.00
C10    C     0.02326   0.16578   0.16718   0.00000  Uiso   1.00
C11    C     0.45737   0.18554   0.22199   0.00000  Uiso   1.00
C12    C     0.25315   0.26653   0.18154   0.00000  Uiso   1.00
C13    C     0.04257   0.14678   0.11181   0.00000  Uiso   1.00
C14    C     0.46902   0.12912   0.05620   0.00000  Uiso   1.00
C15    C     0.03093   0.20331   0.27767   0.00000  Uiso   1.00
C16    C     0.20582   0.31316   0.04532   0.00000  Uiso   1.00
C17    C     0.16673   0.00538   0.01722   0.00000  Uiso   1.00
C18    C     0.16948   0.00197   0.28183   0.00000  Uiso   1.00
C19    C     0.33670   0.00711   0.20164   0.00000  Uiso   1.00
C20    C     0.37405   0.04290   0.24241   0.00000  Uiso   1.00
C21    C     0.41840   0.03723   0.21339   0.00000  Uiso   1.00
C22    C     0.01534   0.12830   0.05667   0.00000  Uiso   1.00
C23    C     0.48457   0.20397   0.27716   0.00000  Uiso   1.00
C24    C     0.23891   0.01089   0.14537   0.00000  Uiso   1.00
C25    C     0.26144   0.32177   0.18640   0.00000  Uiso   1.00
C26    C     0.16435   0.16625   0.16719   0.00000  Uiso   1.00
C27    C     0.33565   0.16703   0.16618   0.00000  Uiso   1.00
C28    C     0.41110   0.18582   0.22115   0.00000  Uiso   1.00
Cu29   Cu    0.25500   0.17246   0.22813   0.00000  Uiso   1.00
Cu30   Cu    0.24499   0.16087   0.10521   0.00000  Uiso   1.00
H31    H     0.39620   0.20039   0.26372   0.00000  Uiso   1.00
H32    H     0.28486   0.20752   0.01719   0.00000  Uiso   1.00
H33    H     0.20365   0.27054   0.02306   0.00000  Uiso   1.00
H34    H     0.23837   0.32972   0.03444   0.00000  Uiso   1.00
H35    H     0.13472   0.31846   0.02394   0.00000  Uiso   1.00
H36    H     0.16671   0.04748   0.04098   0.00000  Uiso   1.00
H37    H     0.20042   0.02380   0.27441   0.00000  Uiso   1.00
H38    H     0.14025   0.01999   0.26283   0.00000  Uiso   1.00
H39    H     0.16933   0.29351   0.25689   0.00000  Uiso   1.00
H40    H     0.33495   0.01656   0.15497   0.00000  Uiso   1.00
H41    H     0.34509   0.29863   0.19773   0.00000  Uiso   1.00
H42    H     0.10373   0.13230   0.06990   0.00000  Uiso   1.00
H43    H     0.36515   0.08460   0.24892   0.00000  Uiso   1.00
H44    H     0.37789   0.03258   0.28838   0.00000  Uiso   1.00
H45    H     0.42851   0.32938   0.20784   0.00000  Uiso   1.00
H46    H     0.44490   0.06395   0.24329   0.00000  Uiso   1.00
H47    H     0.41536   0.04792   0.16762   0.00000  Uiso   1.00
H48    H     0.38219   0.13479   0.06798   0.00000  Uiso   1.00
H49    H     0.11786   0.19830   0.26559   0.00000  Uiso   1.00
H50    H     0.44842   0.11513   0.01320   0.00000  Uiso   1.00
H51    H     0.05146   0.21764   0.32075   0.00000  Uiso   1.00
H52    H     0.02988   0.11351   0.01391   0.00000  Uiso   1.00
H53    H     0.46999   0.21881   0.31987   0.00000  Uiso   1.00
H54    H     0.21504   0.12592   0.31616   0.00000  Uiso   1.00
N55    N     0.23744   0.15214   0.01284   0.00000  Uiso   1.00
N56    N     0.26255   0.18119   0.32049   0.00000  Uiso   1.00
O57    O     0.25325   0.09538   0.20659   0.00000  Uiso   1.00
O58    O     0.29576   0.01553   0.22823   0.00000  Uiso   1.00
O59    O     0.24674   0.23796   0.12674   0.00000  Uiso   1.00
O60    O     0.24480   0.08559   0.10279   0.00000  Uiso   1.00
O61    O     0.25520   0.24774   0.23055   0.00000  Uiso   1.00
O62    O     0.18935   0.17155   0.21857   0.00000  Uiso   1.00
O63    O     0.31064   0.16179   0.11476   0.00000  Uiso   1.00
O64    O     0.18090   0.16176   0.11477   0.00000  Uiso   1.00
O65    O     0.31910   0.17157   0.21857   0.00000  Uiso   1.00
O66    O     0.20157   0.31754   0.10898   0.00000  Uiso   1.00
C67    C     0.74631   0.06668   0.15159   0.00000  Uiso   1.00
C68    C     0.58885   0.14685   0.11250   0.00000  Uiso   1.00
C69    C     0.88402   0.16756   0.16573   0.00000  Uiso   1.00
C70    C     0.61597   0.16545   0.16780   0.00000  Uiso   1.00
C71    C     0.90322   0.14913   0.11068   0.00000  Uiso   1.00
C72    C     0.59679   0.18374   0.22297   0.00000  Uiso   1.00
C73    C     0.94950   0.14819   0.11084   0.00000  Uiso   1.00
C74    C     0.55047   0.18426   0.22299   0.00000  Uiso   1.00
C75    C     0.97669   0.16646   0.16668   0.00000  Uiso   1.00
C76    C     0.52326   0.16578   0.16718   0.00000  Uiso   1.00
C77    C     0.95737   0.18554   0.22199   0.00000  Uiso   1.00
C78    C     0.75315   0.26653   0.18154   0.00000  Uiso   1.00
C79    C     0.54257   0.14678   0.11181   0.00000  Uiso   1.00
C80    C     0.96902   0.12912   0.05620   0.00000  Uiso   1.00
C81    C     0.53093   0.20331   0.27767   0.00000  Uiso   1.00
C82    C     0.70582   0.31316   0.04532   0.00000  Uiso   1.00
C83    C     0.66673   0.00538   0.01722   0.00000  Uiso   1.00
C84    C     0.66948   0.00197   0.28183   0.00000  Uiso   1.00
C85    C     0.83670   0.00711   0.20164   0.00000  Uiso   1.00
C86    C     0.87405   0.04290   0.24241   0.00000  Uiso   1.00
C87    C     0.91840   0.03723   0.21339   0.00000  Uiso   1.00
C88    C     0.51534   0.12830   0.05667   0.00000  Uiso   1.00
C89    C     0.98457   0.20397   0.27716   0.00000  Uiso   1.00
C90    C     0.73891   0.01089   0.14537   0.00000  Uiso   1.00
C91    C     0.76144   0.32177   0.18640   0.00000  Uiso   1.00
C92    C     0.66435   0.16625   0.16719   0.00000  Uiso   1.00
C93    C     0.83565   0.16703   0.16618   0.00000  Uiso   1.00
C94    C     0.91110   0.18582   0.22115   0.00000  Uiso   1.00
Cu95   Cu    0.75500   0.17246   0.22813   0.00000  Uiso   1.00
Cu96   Cu    0.74499   0.16087   0.10521   0.00000  Uiso   1.00
H97    H     0.89620   0.20039   0.26372   0.00000  Uiso   1.00
H98    H     0.78486   0.20752   0.01719   0.00000  Uiso   1.00
H99    H     0.70365   0.27054   0.02306   0.00000  Uiso   1.00
H100   H     0.73837   0.32972   0.03444   0.00000  Uiso   1.00
H101   H     0.63472   0.31846   0.02394   0.00000  Uiso   1.00
H102   H     0.66671   0.04748   0.04098   0.00000  Uiso   1.00
H103   H     0.70042   0.02380   0.27441   0.00000  Uiso   1.00
H104   H     0.64025   0.01999   0.26283   0.00000  Uiso   1.00
H105   H     0.66933   0.29351   0.25689   0.00000  Uiso   1.00
H106   H     0.83495   0.01656   0.15497   0.00000  Uiso   1.00
H107   H     0.84509   0.29863   0.19773   0.00000  Uiso   1.00
H108   H     0.60373   0.13230   0.06990   0.00000  Uiso   1.00
H109   H     0.86515   0.08460   0.24892   0.00000  Uiso   1.00
H110   H     0.87789   0.03258   0.28838   0.00000  Uiso   1.00
H111   H     0.92851   0.32938   0.20784   0.00000  Uiso   1.00
H112   H     0.94490   0.06395   0.24329   0.00000  Uiso   1.00
H113   H     0.91536   0.04792   0.16762   0.00000  Uiso   1.00
H114   H     0.88219   0.13479   0.06798   0.00000  Uiso   1.00
H115   H     0.61786   0.19830   0.26559   0.00000  Uiso   1.00
H116   H     0.94842   0.11513   0.01320   0.00000  Uiso   1.00
H117   H     0.55146   0.21764   0.32075   0.00000  Uiso   1.00
H118   H     0.52988   0.11351   0.01391   0.00000  Uiso   1.00
H119   H     0.96999   0.21881   0.31987   0.00000  Uiso   1.00
H120   H     0.71504   0.12592   0.31616   0.00000  Uiso   1.00
N121   N     0.73744   0.15214   0.01284   0.00000  Uiso   1.00
N122   N     0.76255   0.18119   0.32049   0.00000  Uiso   1.00
O123   O     0.75325   0.09538   0.20659   0.00000  Uiso   1.00
O124   O     0.79576   0.01553   0.22823   0.00000  Uiso   1.00
O125   O     0.74674   0.23796   0.12674   0.00000  Uiso   1.00
O126   O     0.74480   0.08559   0.10279   0.00000  Uiso   1.00
O127   O     0.75520   0.24774   0.23055   0.00000  Uiso   1.00
O128   O     0.68935   0.17155   0.21857   0.00000  Uiso   1.00
O129   O     0.81064   0.16179   0.11476   0.00000  Uiso   1.00
O130   O     0.68090   0.16176   0.11477   0.00000  Uiso   1.00
O131   O     0.81910   0.17157   0.21857   0.00000  Uiso   1.00
O132   O     0.70157   0.31754   0.10898   0.00000  Uiso   1.00
C133   C     0.24631   0.40001   0.15159   0.00000  Uiso   1.00
C134   C     0.08885   0.48019   0.11250   0.00000  Uiso   1.00
C135   C     0.38402   0.50089   0.16573   0.00000  Uiso   1.00
C136   C     0.11597   0.49879   0.16780   0.00000  Uiso   1.00
C137   C     0.40322   0.48247   0.11068   0.00000  Uiso   1.00
C138   C     0.09679   0.51707   0.22297   0.00000  Uiso   1.00
C139   C     0.44950   0.48153   0.11084   0.00000  Uiso   1.00
C140   C     0.05047   0.51760   0.22299   0.00000  Uiso   1.00
C141   C     0.47669   0.49979   0.16668   0.00000  Uiso   1.00
C142   C     0.02326   0.49911   0.16718   0.00000  Uiso   1.00
C143   C     0.45737   0.51887   0.22199   0.00000  Uiso   1.00
C144   C     0.25315   0.59987   0.18154   0.00000  Uiso   1.00
C145   C     0.04257   0.48011   0.11181   0.00000  Uiso   1.00
C146   C     0.46902   0.46245   0.05620   0.00000  Uiso   1.00
C147   C     0.03093   0.53665   0.27767   0.00000  Uiso   1.00
C148   C     0.20582   0.64649   0.04532   0.00000  Uiso   1.00
C149   C     0.16673   0.33871   0.01722   0.00000  Uiso   1.00
C150   C     0.16948   0.33530   0.28183   0.00000  Uiso   1.00
C151   C     0.33670   0.34044   0.20164   0.00000  Uiso   1.00
C152   C     0.37405   0.37624   0.24241   0.00000  Uiso   1.00
C153   C     0.41840   0.37057   0.21339   0.00000  Uiso   1.00
C154   C     0.01534   0.46163   0.05667   0.00000  Uiso   1.00
C155   C     0.48457   0.53730   0.27716   0.00000  Uiso   1.00
C156   C     0.23891   0.34422   0.14537   0.00000  Uiso   1.00
C157   C     0.26144   0.65510   0.18640   0.00000  Uiso   1.00
C158   C     0.16435   0.49959   0.16719   0.00000  Uiso   1.00
C159   C     0.33565   0.50037   0.16618   0.00000  Uiso   1.00
C160   C     0.41110   0.51915   0.22115   0.00000  Uiso   1.00
Cu161  Cu    0.25500   0.50579   0.22813   0.00000  Uiso   1.00
Cu162  Cu    0.24499   0.49421   0.10521   0.00000  Uiso   1.00
H163   H     0.39620   0.53373   0.26372   0.00000  Uiso   1.00
H164   H     0.28486   0.54086   0.01719   0.00000  Uiso   1.00
H165   H     0.20365   0.60387   0.02306   0.00000  Uiso   1.00
H166   H     0.23837   0.66305   0.03444   0.00000  Uiso   1.00
H167   H     0.13472   0.65179   0.02394   0.00000  Uiso   1.00
H168   H     0.16671   0.38082   0.04098   0.00000  Uiso   1.00
H169   H     0.20042   0.35713   0.27441   0.00000  Uiso   1.00
H170   H     0.14025   0.35332   0.26283   0.00000  Uiso   1.00
H171   H     0.16933   0.62684   0.25689   0.00000  Uiso   1.00
H172   H     0.33495   0.34990   0.15497   0.00000  Uiso   1.00
H173   H     0.34509   0.63196   0.19773   0.00000  Uiso   1.00
H174   H     0.10373   0.46563   0.06990   0.00000  Uiso   1.00
H175   H     0.36515   0.41793   0.24892   0.00000  Uiso   1.00
H176   H     0.37789   0.36592   0.28838   0.00000  Uiso   1.00
H177   H     0.42851   0.66272   0.20784   0.00000  Uiso   1.00
H178   H     0.44490   0.39729   0.24329   0.00000  Uiso   1.00
H179   H     0.41536   0.38126   0.16762   0.00000  Uiso   1.00
H180   H     0.38219   0.46813   0.06798   0.00000  Uiso   1.00
H181   H     0.11786   0.53164   0.26559   0.00000  Uiso   1.00
H182   H     0.44842   0.44846   0.01320   0.00000  Uiso   1.00
H183   H     0.05146   0.55098   0.32075   0.00000  Uiso   1.00
H184   H     0.02988   0.44684   0.01391   0.00000  Uiso   1.00
H185   H     0.46999   0.55214   0.31987   0.00000  Uiso   1.00
H186   H     0.21504   0.45926   0.31616   0.00000  Uiso   1.00
N187   N     0.23744   0.48547   0.01284   0.00000  Uiso   1.00
N188   N     0.26255   0.51453   0.32049   0.00000  Uiso   1.00
O189   O     0.25325   0.42871   0.20659   0.00000  Uiso   1.00
O190   O     0.29576   0.34886   0.22823   0.00000  Uiso   1.00
O191   O     0.24674   0.57129   0.12674   0.00000  Uiso   1.00
O192   O     0.24480   0.41892   0.10279   0.00000  Uiso   1.00
O193   O     0.25520   0.58108   0.23055   0.00000  Uiso   1.00
O194   O     0.18935   0.50488   0.21857   0.00000  Uiso   1.00
O195   O     0.31064   0.49512   0.11476   0.00000  Uiso   1.00
O196   O     0.18090   0.49510   0.11477   0.00000  Uiso   1.00
O197   O     0.31910   0.50490   0.21857   0.00000  Uiso   1.00
O198   O     0.20157   0.65088   0.10898   0.00000  Uiso   1.00
C199   C     0.74631   0.40001   0.15159   0.00000  Uiso   1.00
C200   C     0.58885   0.48019   0.11250   0.00000  Uiso   1.00
C201   C     0.88402   0.50089   0.16573   0.00000  Uiso   1.00
C202   C     0.61597   0.49879   0.16780   0.00000  Uiso   1.00
C203   C     0.90322   0.48247   0.11068   0.00000  Uiso   1.00
C204   C     0.59679   0.51707   0.22297   0.00000  Uiso   1.00
C205   C     0.94950   0.48153   0.11084   0.00000  Uiso   1.00
C206   C     0.55047   0.51760   0.22299   0.00000  Uiso   1.00
C207   C     0.97669   0.49979   0.16668   0.00000  Uiso   1.00
C208   C     0.52326   0.49911   0.16718   0.00000  Uiso   1.00
C209   C     0.95737   0.51887   0.22199   0.00000  Uiso   1.00
C210   C     0.75315   0.59987   0.18154   0.00000  Uiso   1.00
C211   C     0.54257   0.48011   0.11181   0.00000  Uiso   1.00
C212   C     0.96902   0.46245   0.05620   0.00000  Uiso   1.00
C213   C     0.53093   0.53665   0.27767   0.00000  Uiso   1.00
C214   C     0.70582   0.64649   0.04532   0.00000  Uiso   1.00
C215   C     0.66673   0.33871   0.01722   0.00000  Uiso   1.00
C216   C     0.66948   0.33530   0.28183   0.00000  Uiso   1.00
C217   C     0.83670   0.34044   0.20164   0.00000  Uiso   1.00
C218   C     0.87405   0.37624   0.24241   0.00000  Uiso   1.00
C219   C     0.91840   0.37057   0.21339   0.00000  Uiso   1.00
C220   C     0.51534   0.46163   0.05667   0.00000  Uiso   1.00
C221   C     0.98457   0.53730   0.27716   0.00000  Uiso   1.00
C222   C     0.73891   0.34422   0.14537   0.00000  Uiso   1.00
C223   C     0.76144   0.65510   0.18640   0.00000  Uiso   1.00
C224   C     0.66435   0.49959   0.16719   0.00000  Uiso   1.00
C225   C     0.83565   0.50037   0.16618   0.00000  Uiso   1.00
C226   C     0.91110   0.51915   0.22115   0.00000  Uiso   1.00
Cu227  Cu    0.75500   0.50579   0.22813   0.00000  Uiso   1.00
Cu228  Cu    0.74499   0.49421   0.10521   0.00000  Uiso   1.00
H229   H     0.89620   0.53373   0.26372   0.00000  Uiso   1.00
H230   H     0.78486   0.54086   0.01719   0.00000  Uiso   1.00
H231   H     0.70365   0.60387   0.02306   0.00000  Uiso   1.00
H232   H     0.73837   0.66305   0.03444   0.00000  Uiso   1.00
H233   H     0.63472   0.65179   0.02394   0.00000  Uiso   1.00
H234   H     0.66671   0.38082   0.04098   0.00000  Uiso   1.00
H235   H     0.70042   0.35713   0.27441   0.00000  Uiso   1.00
H236   H     0.64025   0.35332   0.26283   0.00000  Uiso   1.00
H237   H     0.66933   0.62684   0.25689   0.00000  Uiso   1.00
H238   H     0.83495   0.34990   0.15497   0.00000  Uiso   1.00
H239   H     0.84509   0.63196   0.19773   0.00000  Uiso   1.00
H240   H     0.60373   0.46563   0.06990   0.00000  Uiso   1.00
H241   H     0.86515   0.41793   0.24892   0.00000  Uiso   1.00
H242   H     0.87789   0.36592   0.28838   0.00000  Uiso   1.00
H243   H     0.92851   0.66272   0.20784   0.00000  Uiso   1.00
H244   H     0.94490   0.39729   0.24329   0.00000  Uiso   1.00
H245   H     0.91536   0.38126   0.16762   0.00000  Uiso   1.00
H246   H     0.88219   0.46813   0.06798   0.00000  Uiso   1.00
H247   H     0.61786   0.53164   0.26559   0.00000  Uiso   1.00
H248   H     0.94842   0.44846   0.01320   0.00000  Uiso   1.00
H249   H     0.55146   0.55098   0.32075   0.00000  Uiso   1.00
H250   H     0.52988   0.44684   0.01391   0.00000  Uiso   1.00
H251   H     0.96999   0.55214   0.31987   0.00000  Uiso   1.00
H252   H     0.71504   0.45926   0.31616   0.00000  Uiso   1.00
N253   N     0.73744   0.48547   0.01284   0.00000  Uiso   1.00
N254   N     0.76255   0.51453   0.32049   0.00000  Uiso   1.00
O255   O     0.75325   0.42871   0.20659   0.00000  Uiso   1.00
O256   O     0.79576   0.34886   0.22823   0.00000  Uiso   1.00
O257   O     0.74674   0.57129   0.12674   0.00000  Uiso   1.00
O258   O     0.74480   0.41892   0.10279   0.00000  Uiso   1.00
O259   O     0.75520   0.58108   0.23055   0.00000  Uiso   1.00
O260   O     0.68935   0.50488   0.21857   0.00000  Uiso   1.00
O261   O     0.81064   0.49512   0.11476   0.00000  Uiso   1.00
O262   O     0.68090   0.49510   0.11477   0.00000  Uiso   1.00
O263   O     0.81910   0.50490   0.21857   0.00000  Uiso   1.00
O264   O     0.70157   0.65088   0.10898   0.00000  Uiso   1.00
C265   C     0.24631   0.73334   0.15159   0.00000  Uiso   1.00
C266   C     0.08885   0.81352   0.11250   0.00000  Uiso   1.00
C267   C     0.38402   0.83423   0.16573   0.00000  Uiso   1.00
C268   C     0.11597   0.83212   0.16780   0.00000  Uiso   1.00
C269   C     0.40322   0.81580   0.11068   0.00000  Uiso   1.00
C270   C     0.09679   0.85040   0.22297   0.00000  Uiso   1.00
C271   C     0.44950   0.81486   0.11084   0.00000  Uiso   1.00
C272   C     0.05047   0.85093   0.22299   0.00000  Uiso   1.00
C273   C     0.47669   0.83313   0.16668   0.00000  Uiso   1.00
C274   C     0.02326   0.83244   0.16718   0.00000  Uiso   1.00
C275   C     0.45737   0.85221   0.22199   0.00000  Uiso   1.00
C276   C     0.25315   0.93320   0.18154   0.00000  Uiso   1.00
C277   C     0.04257   0.81345   0.11181   0.00000  Uiso   1.00
C278   C     0.46902   0.79579   0.05620   0.00000  Uiso   1.00
C279   C     0.03093   0.86998   0.27767   0.00000  Uiso   1.00
C280   C     0.20582   0.97983   0.04532   0.00000  Uiso   1.00
C281   C     0.16673   0.67205   0.01722   0.00000  Uiso   1.00
C282   C     0.16948   0.66864   0.28183   0.00000  Uiso   1.00
C283   C     0.33670   0.67377   0.20164   0.00000  Uiso   1.00
C284   C     0.37405   0.70957   0.24241   0.00000  Uiso   1.00
C285   C     0.41840   0.70390   0.21339   0.00000  Uiso   1.00
C286   C     0.01534   0.79496   0.05667   0.00000  Uiso   1.00
C287   C     0.48457   0.87063   0.27716   0.00000  Uiso   1.00
C288   C     0.23891   0.67755   0.14537   0.00000  Uiso   1.00
C289   C     0.26144   0.98844   0.18640   0.00000  Uiso   1.00
C290   C     0.16435   0.83292   0.16719   0.00000  Uiso   1.00
C291   C     0.33565   0.83370   0.16618   0.00000  Uiso   1.00
C292   C     0.41110   0.85248   0.22115   0.00000  Uiso   1.00
Cu293  Cu    0.25500   0.83913   0.22813   0.00000  Uiso   1.00
Cu294  Cu    0.24499   0.82754   0.10521   0.00000  Uiso   1.00
H295   H     0.39620   0.86706   0.26372   0.00000  Uiso   1.00
H296   H     0.28486   0.87419   0.01719   0.00000  Uiso   1.00
H297   H     0.20365   0.93720   0.02306   0.00000  Uiso   1.00
H298   H     0.23837   0.99639   0.03444   0.00000  Uiso   1.00
H299   H     0.13472   0.98512   0.02394   0.00000  Uiso   1.00
H300   H     0.16671   0.71415   0.04098   0.00000  Uiso   1.00
H301   H     0.20042   0.69047   0.27441   0.00000  Uiso   1.00
H302   H     0.14025   0.68665   0.26283   0.00000  Uiso   1.00
H303   H     0.16933   0.96017   0.25689   0.00000  Uiso   1.00
H304   H     0.33495   0.68323   0.15497   0.00000  Uiso   1.00
H305   H     0.34509   0.96529   0.19773   0.00000  Uiso   1.00
H306   H     0.10373   0.79896   0.06990   0.00000  Uiso   1.00
H307   H     0.36515   0.75126   0.24892   0.00000  Uiso   1.00
H308   H     0.37789   0.69925   0.28838   0.00000  Uiso   1.00
H309   H     0.42851   0.99605   0.20784   0.00000  Uiso   1.00
H310   H     0.44490   0.73062   0.24329   0.00000  Uiso   1.00
H311   H     0.41536   0.71459   0.16762   0.00000  Uiso   1.00
H312   H     0.38219   0.80146   0.06798   0.00000  Uiso   1.00
H313   H     0.11786   0.86497   0.26559   0.00000  Uiso   1.00
H314   H     0.44842   0.78179   0.01320   0.00000  Uiso   1.00
H315   H     0.05146   0.88431   0.32075   0.00000  Uiso   1.00
H316   H     0.02988   0.78017   0.01391   0.00000  Uiso   1.00
H317   H     0.46999   0.88547   0.31987   0.00000  Uiso   1.00
H318   H     0.21504   0.79259   0.31616   0.00000  Uiso   1.00
N319   N     0.23744   0.81881   0.01284   0.00000  Uiso   1.00
N320   N     0.26255   0.84786   0.32049   0.00000  Uiso   1.00
O321   O     0.25325   0.76204   0.20659   0.00000  Uiso   1.00
O322   O     0.29576   0.68219   0.22823   0.00000  Uiso   1.00
O323   O     0.24674   0.90462   0.12674   0.00000  Uiso   1.00
O324   O     0.24480   0.75226   0.10279   0.00000  Uiso   1.00
O325   O     0.25520   0.91441   0.23055   0.00000  Uiso   1.00
O326   O     0.18935   0.83821   0.21857   0.00000  Uiso   1.00
O327   O     0.31064   0.82845   0.11476   0.00000  Uiso   1.00
O328   O     0.18090   0.82843   0.11477   0.00000  Uiso   1.00
O329   O     0.31910   0.83824   0.21857   0.00000  Uiso   1.00
O330   O     0.20157   0.98421   0.10898   0.00000  Uiso   1.00
C331   C     0.74631   0.73334   0.15159   0.00000  Uiso   1.00
C332   C     0.58885   0.81352   0.11250   0.00000  Uiso   1.00
C333   C     0.88402   0.83423   0.16573   0.00000  Uiso   1.00
C334   C     0.61597   0.83212   0.16780   0.00000  Uiso   1.00
C335   C     0.90322   0.81580   0.11068   0.00000  Uiso   1.00
C336   C     0.59679   0.85040   0.22297   0.00000  Uiso   1.00
C337   C     0.94950   0.81486   0.11084   0.00000  Uiso   1.00
C338   C     0.55047   0.85093   0.22299   0.00000  Uiso   1.00
C339   C     0.97669   0.83313   0.16668   0.00000  Uiso   1.00
C340   C     0.52326   0.83244   0.16718   0.00000  Uiso   1.00
C341   C     0.95737   0.85221   0.22199   0.00000  Uiso   1.00
C342   C     0.75315   0.93320   0.18154   0.00000  Uiso   1.00
C343   C     0.54257   0.81345   0.11181   0.00000  Uiso   1.00
C344   C     0.96902   0.79579   0.05620   0.00000  Uiso   1.00
C345   C     0.53093   0.86998   0.27767   0.00000  Uiso   1.00
C346   C     0.70582   0.97983   0.04532   0.00000  Uiso   1.00
C347   C     0.66673   0.67205   0.01722   0.00000  Uiso   1.00
C348   C     0.66948   0.66864   0.28183   0.00000  Uiso   1.00
C349   C     0.83670   0.67377   0.20164   0.00000  Uiso   1.00
C350   C     0.87405   0.70957   0.24241   0.00000  Uiso   1.00
C351   C     0.91840   0.70390   0.21339   0.00000  Uiso   1.00
C352   C     0.51534   0.79496   0.05667   0.00000  Uiso   1.00
C353   C     0.98457   0.87063   0.27716   0.00000  Uiso   1.00
C354   C     0.73891   0.67755   0.14537   0.00000  Uiso   1.00
C355   C     0.76144   0.98844   0.18640   0.00000  Uiso   1.00
C356   C     0.66435   0.83292   0.16719   0.00000  Uiso   1.00
C357   C     0.83565   0.83370   0.16618   0.00000  Uiso   1.00
C358   C     0.91110   0.85248   0.22115   0.00000  Uiso   1.00
Cu359  Cu    0.75500   0.83913   0.22813   0.00000  Uiso   1.00
Cu360  Cu    0.74499   0.82754   0.10521   0.00000  Uiso   1.00
H361   H     0.89620   0.86706   0.26372   0.00000  Uiso   1.00
H362   H     0.78486   0.87419   0.01719   0.00000  Uiso   1.00
H363   H     0.70365   0.93720   0.02306   0.00000  Uiso   1.00
H364   H     0.73837   0.99639   0.03444   0.00000  Uiso   1.00
H365   H     0.63472   0.98512   0.02394   0.00000  Uiso   1.00
H366   H     0.66671   0.71415   0.04098   0.00000  Uiso   1.00
H367   H     0.70042   0.69047   0.27441   0.00000  Uiso   1.00
H368   H     0.64025   0.68665   0.26283   0.00000  Uiso   1.00
H369   H     0.66933   0.96017   0.25689   0.00000  Uiso   1.00
H370   H     0.83495   0.68323   0.15497   0.00000  Uiso   1.00
H371   H     0.84509   0.96529   0.19773   0.00000  Uiso   1.00
H372   H     0.60373   0.79896   0.06990   0.00000  Uiso   1.00
H373   H     0.86515   0.75126   0.24892   0.00000  Uiso   1.00
H374   H     0.87789   0.69925   0.28838   0.00000  Uiso   1.00
H375   H     0.92851   0.99605   0.20784   0.00000  Uiso   1.00
H376   H     0.94490   0.73062   0.24329   0.00000  Uiso   1.00
H377   H     0.91536   0.71459   0.16762   0.00000  Uiso   1.00
H378   H     0.88219   0.80146   0.06798   0.00000  Uiso   1.00
H379   H     0.61786   0.86497   0.26559   0.00000  Uiso   1.00
H380   H     0.94842   0.78179   0.01320   0.00000  Uiso   1.00
H381   H     0.55146   0.88431   0.32075   0.00000  Uiso   1.00
H382   H     0.52988   0.78017   0.01391   0.00000  Uiso   1.00
H383   H     0.96999   0.88547   0.31987   0.00000  Uiso   1.00
H384   H     0.71504   0.79259   0.31616   0.00000  Uiso   1.00
N385   N     0.73744   0.81881   0.01284   0.00000  Uiso   1.00
N386   N     0.76255   0.84786   0.32049   0.00000  Uiso   1.00
O387   O     0.75325   0.76204   0.20659   0.00000  Uiso   1.00
O388   O     0.79576   0.68219   0.22823   0.00000  Uiso   1.00
O389   O     0.74674   0.90462   0.12674   0.00000  Uiso   1.00
O390   O     0.74480   0.75226   0.10279   0.00000  Uiso   1.00
O391   O     0.75520   0.91441   0.23055   0.00000  Uiso   1.00
O392   O     0.68935   0.83821   0.21857   0.00000  Uiso   1.00
O393   O     0.81064   0.82845   0.11476   0.00000  Uiso   1.00
O394   O     0.68090   0.82843   0.11477   0.00000  Uiso   1.00
O395   O     0.81910   0.83824   0.21857   0.00000  Uiso   1.00
O396   O     0.70157   0.98421   0.10898   0.00000  Uiso   1.00
C397   C     0.24631   0.06668   0.48493   0.00000  Uiso   1.00
C398   C     0.08885   0.14685   0.44584   0.00000  Uiso   1.00
C399   C     0.38402   0.16756   0.49907   0.00000  Uiso   1.00
C400   C     0.11597   0.16545   0.50113   0.00000  Uiso   1.00
C401   C     0.40322   0.14913   0.44401   0.00000  Uiso   1.00
C402   C     0.09679   0.18374   0.55630   0.00000  Uiso   1.00
C403   C     0.44950   0.14819   0.44417   0.00000  Uiso   1.00
C404   C     0.05047   0.18426   0.55632   0.00000  Uiso   1.00
C405   C     0.47669   0.16646   0.50002   0.00000  Uiso   1.00
C406   C     0.02326   0.16578   0.50051   0.00000  Uiso   1.00
C407   C     0.45737   0.18554   0.55533   0.00000  Uiso   1.00
C408   C     0.25315   0.26653   0.51487   0.00000  Uiso   1.00
C409   C     0.04257   0.14678   0.44514   0.00000  Uiso   1.00
C410   C     0.46902   0.12912   0.38954   0.00000  Uiso   1.00
C411   C     0.03093   0.20331   0.61100   0.00000  Uiso   1.00
C412   C     0.20582   0.31316   0.37865   0.00000  Uiso   1.00
C413   C     0.16673   0.00538   0.35055   0.00000  Uiso   1.00
C414   C     0.16948   0.00197   0.61517   0.00000  Uiso   1.00
C415   C     0.33670   0.00711   0.53498   0.00000  Uiso   1.00
C416   C     0.37405   0.04290   0.57574   0.00000  Uiso   1.00
C417   C     0.41840   0.03723   0.54672   0.00000  Uiso   1.00
C418   C     0.01534   0.12830   0.39000   0.00000  Uiso   1.00
C419   C     0.48457   0.20397   0.61050   0.00000  Uiso   1.00
C420   C     0.23891   0.01089   0.47870   0.00000  Uiso   1.00
C421   C     0.26144   0.32177   0.51974   0.00000  Uiso   1.00
C422   C     0.16435   0.16625   0.50052   0.00000  Uiso   1.00
C423   C     0.33565   0.16703   0.49951   0.00000  Uiso   1.00
C424   C     0.41110   0.18582   0.55448   0.00000  Uiso   1.00
Cu425  Cu    0.25500   0.17246   0.56146   0.00000  Uiso   1.00
Cu426  Cu    0.24499   0.16087   0.43854   0.00000  Uiso   1.00
H427   H     0.39620   0.20039   0.59705   0.00000  Uiso   1.00
H428   H     0.28486   0.20752   0.35053   0.00000  Uiso   1.00
H429   H     0.20365   0.27054   0.35640   0.00000  Uiso   1.00
H430   H     0.23837   0.32972   0.36777   0.00000  Uiso   1.00
H431   H     0.13472   0.31846   0.35728   0.00000  Uiso   1.00
H432   H     0.16671   0.04748   0.37431   0.00000  Uiso   1.00
H433   H     0.20042   0.02380   0.60775   0.00000  Uiso   1.00
H434   H     0.14025   0.01999   0.59617   0.00000  Uiso   1.00
H435   H     0.16933   0.29351   0.59022   0.00000  Uiso   1.00
H436   H     0.33495   0.01656   0.48830   0.00000  Uiso   1.00
H437   H     0.34509   0.29863   0.53106   0.00000  Uiso   1.00
H438   H     0.10373   0.13230   0.40324   0.00000  Uiso   1.00
H439   H     0.36515   0.08460   0.58225   0.00000  Uiso   1.00
H440   H     0.37789   0.03258   0.62171   0.00000  Uiso   1.00
H441   H     0.42851   0.32938   0.54118   0.00000  Uiso   1.00
H442   H     0.44490   0.06395   0.57663   0.00000  Uiso   1.00
H443   H     0.41536   0.04792   0.50095   0.00000  Uiso   1.00
H444   H     0.38219   0.13479   0.40131   0.00000  Uiso   1.00
H445   H     0.11786   0.19830   0.59892   0.00000  Uiso   1.00
H446   H     0.44842   0.11513   0.34653   0.00000  Uiso   1.00
H447   H     0.05146   0.21764   0.65408   0.00000  Uiso   1.00
H448   H     0.02988   0.11351   0.34724   0.00000  Uiso   1.00
H449   H     0.46999   0.21881   0.65321   0.00000  Uiso   1.00
H450   H     0.21504   0.12592   0.64950   0.00000  Uiso   1.00
N451   N     0.23744   0.15214   0.34617   0.00000  Uiso   1.00
N452   N     0.26255   0.18119   0.65383   0.00000  Uiso   1.00
O453   O     0.25325   0.09538   0.53992   0.00000  Uiso   1.00
O454   O     0.29576   0.01553   0.56157   0.00000  Uiso   1.00
O455   O     0.24674   0.23796   0.46008   0.00000  Uiso   1.00
O456   O     0.24480   0.08559   0.43612   0.00000  Uiso   1.00
O457   O     0.25520   0.24774   0.56388   0.00000  Uiso   1.00
O458   O     0.18935   0.17155   0.55191   0.00000  Uiso   1.00
O459   O     0.31064   0.16179   0.44809   0.00000  Uiso   1.00
O460   O     0.18090   0.16176   0.44810   0.00000  Uiso   1.00
O461   O     0.31910   0.17157   0.55190   0.00000  Uiso   1.00
O462   O     0.20157   0.31754   0.44232   0.00000  Uiso   1.00
C463   C     0.74631   0.06668   0.48493   0.00000  Uiso   1.00
C464   C     0.58885   0.14685   0.44584   0.00000  Uiso   1.00
C465   C     0.88402   0.16756   0.49907   0.00000  Uiso   1.00
C466   C     0.61597   0.16545   0.50113   0.00000  Uiso   1.00
C467   C     0.90322   0.14913   0.44401   0.00000  Uiso   1.00
C468   C     0.59679   0.18374   0.55630   0.00000  Uiso   1.00
C469   C     0.94950   0.14819   0.44417   0.00000  Uiso   1.00
C470   C     0.55047   0.18426   0.55632   0.00000  Uiso   1.00
C471   C     0.97669   0.16646   0.50002   0.00000  Uiso   1.00
C472   C     0.52326   0.16578   0.50051   0.00000  Uiso   1.00
C473   C     0.95737   0.18554   0.55533   0.00000  Uiso   1.00
C474   C     0.75315   0.26653   0.51487   0.00000  Uiso   1.00
C475   C     0.54257   0.14678   0.44514   0.00000  Uiso   1.00
C476   C     0.96902   0.12912   0.38954   0.00000  Uiso   1.00
C477   C     0.53093   0.20331   0.61100   0.00000  Uiso   1.00
C478   C     0.70582   0.31316   0.37865   0.00000  Uiso   1.00
C479   C     0.66673   0.00538   0.35055   0.00000  Uiso   1.00
C480   C     0.66948   0.00197   0.61517   0.00000  Uiso   1.00
C481   C     0.83670   0.00711   0.53498   0.00000  Uiso   1.00
C482   C     0.87405   0.04290   0.57574   0.00000  Uiso   1.00
C483   C     0.91840   0.03723   0.54672   0.00000  Uiso   1.00
C484   C     0.51534   0.12830   0.39000   0.00000  Uiso   1.00
C485   C     0.98457   0.20397   0.61050   0.00000  Uiso   1.00
C486   C     0.73891   0.01089   0.47870   0.00000  Uiso   1.00
C487   C     0.76144   0.32177   0.51974   0.00000  Uiso   1.00
C488   C     0.66435   0.16625   0.50052   0.00000  Uiso   1.00
C489   C     0.83565   0.16703   0.49951   0.00000  Uiso   1.00
C490   C     0.91110   0.18582   0.55448   0.00000  Uiso   1.00
Cu491  Cu    0.75500   0.17246   0.56146   0.00000  Uiso   1.00
Cu492  Cu    0.74499   0.16087   0.43854   0.00000  Uiso   1.00
H493   H     0.89620   0.20039   0.59705   0.00000  Uiso   1.00
H494   H     0.78486   0.20752   0.35053   0.00000  Uiso   1.00
H495   H     0.70365   0.27054   0.35640   0.00000  Uiso   1.00
H496   H     0.73837   0.32972   0.36777   0.00000  Uiso   1.00
H497   H     0.63472   0.31846   0.35728   0.00000  Uiso   1.00
H498   H     0.66671   0.04748   0.37431   0.00000  Uiso   1.00
H499   H     0.70042   0.02380   0.60775   0.00000  Uiso   1.00
H500   H     0.64025   0.01999   0.59617   0.00000  Uiso   1.00
H501   H     0.66933   0.29351   0.59022   0.00000  Uiso   1.00
H502   H     0.83495   0.01656   0.48830   0.00000  Uiso   1.00
H503   H     0.84509   0.29863   0.53106   0.00000  Uiso   1.00
H504   H     0.60373   0.13230   0.40324   0.00000  Uiso   1.00
H505   H     0.86515   0.08460   0.58225   0.00000  Uiso   1.00
H506   H     0.87789   0.03258   0.62171   0.00000  Uiso   1.00
H507   H     0.92851   0.32938   0.54118   0.00000  Uiso   1.00
H508   H     0.94490   0.06395   0.57663   0.00000  Uiso   1.00
H509   H     0.91536   0.04792   0.50095   0.00000  Uiso   1.00
H510   H     0.88219   0.13479   0.40131   0.00000  Uiso   1.00
H511   H     0.61786   0.19830   0.59892   0.00000  Uiso   1.00
H512   H     0.94842   0.11513   0.34653   0.00000  Uiso   1.00
H513   H     0.55146   0.21764   0.65408   0.00000  Uiso   1.00
H514   H     0.52988   0.11351   0.34724   0.00000  Uiso   1.00
H515   H     0.96999   0.21881   0.65321   0.00000  Uiso   1.00
H516   H     0.71504   0.12592   0.64950   0.00000  Uiso   1.00
N517   N     0.73744   0.15214   0.34617   0.00000  Uiso   1.00
N518   N     0.76255   0.18119   0.65383   0.00000  Uiso   1.00
O519   O     0.75325   0.09538   0.53992   0.00000  Uiso   1.00
O520   O     0.79576   0.01553   0.56157   0.00000  Uiso   1.00
O521   O     0.74674   0.23796   0.46008   0.00000  Uiso   1.00
O522   O     0.74480   0.08559   0.43612   0.00000  Uiso   1.00
O523   O     0.75520   0.24774   0.56388   0.00000  Uiso   1.00
O524   O     0.68935   0.17155   0.55191   0.00000  Uiso   1.00
O525   O     0.81064   0.16179   0.44809   0.00000  Uiso   1.00
O526   O     0.68090   0.16176   0.44810   0.00000  Uiso   1.00
O527   O     0.81910   0.17157   0.55190   0.00000  Uiso   1.00
O528   O     0.70157   0.31754   0.44232   0.00000  Uiso   1.00
C529   C     0.24631   0.40001   0.48493   0.00000  Uiso   1.00
C530   C     0.08885   0.48019   0.44584   0.00000  Uiso   1.00
C531   C     0.38402   0.50089   0.49907   0.00000  Uiso   1.00
C532   C     0.11597   0.49879   0.50113   0.00000  Uiso   1.00
C533   C     0.40322   0.48247   0.44401   0.00000  Uiso   1.00
C534   C     0.09679   0.51707   0.55630   0.00000  Uiso   1.00
C535   C     0.44950   0.48153   0.44417   0.00000  Uiso   1.00
C536   C     0.05047   0.51760   0.55632   0.00000  Uiso   1.00
C537   C     0.47669   0.49979   0.50002   0.00000  Uiso   1.00
C538   C     0.02326   0.49911   0.50051   0.00000  Uiso   1.00
C539   C     0.45737   0.51887   0.55533   0.00000  Uiso   1.00
C540   C     0.25315   0.59987   0.51487   0.00000  Uiso   1.00
C541   C     0.04257   0.48011   0.44514   0.00000  Uiso   1.00
C542   C     0.46902   0.46245   0.38954   0.00000  Uiso   1.00
C543   C     0.03093   0.53665   0.61100   0.00000  Uiso   1.00
C544   C     0.20582   0.64649   0.37865   0.00000  Uiso   1.00
C545   C     0.16673   0.33871   0.35055   0.00000  Uiso   1.00
C546   C     0.16948   0.33530   0.61517   0.00000  Uiso   1.00
C547   C     0.33670   0.34044   0.53498   0.00000  Uiso   1.00
C548   C     0.37405   0.37624   0.57574   0.00000  Uiso   1.00
C549   C     0.41840   0.37057   0.54672   0.00000  Uiso   1.00
C550   C     0.01534   0.46163   0.39000   0.00000  Uiso   1.00
C551   C     0.48457   0.53730   0.61050   0.00000  Uiso   1.00
C552   C     0.23891   0.34422   0.47870   0.00000  Uiso   1.00
C553   C     0.26144   0.65510   0.51974   0.00000  Uiso   1.00
C554   C     0.16435   0.49959   0.50052   0.00000  Uiso   1.00
C555   C     0.33565   0.50037   0.49951   0.00000  Uiso   1.00
C556   C     0.41110   0.51915   0.55448   0.00000  Uiso   1.00
Cu557  Cu    0.25500   0.50579   0.56146   0.00000  Uiso   1.00
Cu558  Cu    0.24499   0.49421   0.43854   0.00000  Uiso   1.00
H559   H     0.39620   0.53373   0.59705   0.00000  Uiso   1.00
H560   H     0.28486   0.54086   0.35053   0.00000  Uiso   1.00
H561   H     0.20365   0.60387   0.35640   0.00000  Uiso   1.00
H562   H     0.23837   0.66305   0.36777   0.00000  Uiso   1.00
H563   H     0.13472   0.65179   0.35728   0.00000  Uiso   1.00
H564   H     0.16671   0.38082   0.37431   0.00000  Uiso   1.00
H565   H     0.20042   0.35713   0.60775   0.00000  Uiso   1.00
H566   H     0.14025   0.35332   0.59617   0.00000  Uiso   1.00
H567   H     0.16933   0.62684   0.59022   0.00000  Uiso   1.00
H568   H     0.33495   0.34990   0.48830   0.00000  Uiso   1.00
H569   H     0.34509   0.63196   0.53106   0.00000  Uiso   1.00
H570   H     0.10373   0.46563   0.40324   0.00000  Uiso   1.00
H571   H     0.36515   0.41793   0.58225   0.00000  Uiso   1.00
H572   H     0.37789   0.36592   0.62171   0.00000  Uiso   1.00
H573   H     0.42851   0.66272   0.54118   0.00000  Uiso   1.00
H574   H     0.44490   0.39729   0.57663   0.00000  Uiso   1.00
H575   H     0.41536   0.38126   0.50095   0.00000  Uiso   1.00
H576   H     0.38219   0.46813   0.40131   0.00000  Uiso   1.00
H577   H     0.11786   0.53164   0.59892   0.00000  Uiso   1.00
H578   H     0.44842   0.44846   0.34653   0.00000  Uiso   1.00
H579   H     0.05146   0.55098   0.65408   0.00000  Uiso   1.00
H580   H     0.02988   0.44684   0.34724   0.00000  Uiso   1.00
H581   H     0.46999   0.55214   0.65321   0.00000  Uiso   1.00
H582   H     0.21504   0.45926   0.64950   0.00000  Uiso   1.00
N583   N     0.23744   0.48547   0.34617   0.00000  Uiso   1.00
N584   N     0.26255   0.51453   0.65383   0.00000  Uiso   1.00
O585   O     0.25325   0.42871   0.53992   0.00000  Uiso   1.00
O586   O     0.29576   0.34886   0.56157   0.00000  Uiso   1.00
O587   O     0.24674   0.57129   0.46008   0.00000  Uiso   1.00
O588   O     0.24480   0.41892   0.43612   0.00000  Uiso   1.00
O589   O     0.25520   0.58108   0.56388   0.00000  Uiso   1.00
O590   O     0.18935   0.50488   0.55191   0.00000  Uiso   1.00
O591   O     0.31064   0.49512   0.44809   0.00000  Uiso   1.00
O592   O     0.18090   0.49510   0.44810   0.00000  Uiso   1.00
O593   O     0.31910   0.50490   0.55190   0.00000  Uiso   1.00
O594   O     0.20157   0.65088   0.44232   0.00000  Uiso   1.00
C595   C     0.74631   0.40001   0.48493   0.00000  Uiso   1.00
C596   C     0.58885   0.48019   0.44584   0.00000  Uiso   1.00
C597   C     0.88402   0.50089   0.49907   0.00000  Uiso   1.00
C598   C     0.61597   0.49879   0.50113   0.00000  Uiso   1.00
C599   C     0.90322   0.48247   0.44401   0.00000  Uiso   1.00
C600   C     0.59679   0.51707   0.55630   0.00000  Uiso   1.00
C601   C     0.94950   0.48153   0.44417   0.00000  Uiso   1.00
C602   C     0.55047   0.51760   0.55632   0.00000  Uiso   1.00
C603   C     0.97669   0.49979   0.50002   0.00000  Uiso   1.00
C604   C     0.52326   0.49911   0.50051   0.00000  Uiso   1.00
C605   C     0.95737   0.51887   0.55533   0.00000  Uiso   1.00
C606   C     0.75315   0.59987   0.51487   0.00000  Uiso   1.00
C607   C     0.54257   0.48011   0.44514   0.00000  Uiso   1.00
C608   C     0.96902   0.46245   0.38954   0.00000  Uiso   1.00
C609   C     0.53093   0.53665   0.61100   0.00000  Uiso   1.00
C610   C     0.70582   0.64649   0.37865   0.00000  Uiso   1.00
C611   C     0.66673   0.33871   0.35055   0.00000  Uiso   1.00
C612   C     0.66948   0.33530   0.61517   0.00000  Uiso   1.00
C613   C     0.83670   0.34044   0.53498   0.00000  Uiso   1.00
C614   C     0.87405   0.37624   0.57574   0.00000  Uiso   1.00
C615   C     0.91840   0.37057   0.54672   0.00000  Uiso   1.00
C616   C     0.51534   0.46163   0.39000   0.00000  Uiso   1.00
C617   C     0.98457   0.53730   0.61050   0.00000  Uiso   1.00
C618   C     0.73891   0.34422   0.47870   0.00000  Uiso   1.00
C619   C     0.76144   0.65510   0.51974   0.00000  Uiso   1.00
C620   C     0.66435   0.49959   0.50052   0.00000  Uiso   1.00
C621   C     0.83565   0.50037   0.49951   0.00000  Uiso   1.00
C622   C     0.91110   0.51915   0.55448   0.00000  Uiso   1.00
Cu623  Cu    0.75500   0.50579   0.56146   0.00000  Uiso   1.00
Cu624  Cu    0.74499   0.49421   0.43854   0.00000  Uiso   1.00
H625   H     0.89620   0.53373   0.59705   0.00000  Uiso   1.00
H626   H     0.78486   0.54086   0.35053   0.00000  Uiso   1.00
H627   H     0.70365   0.60387   0.35640   0.00000  Uiso   1.00
H628   H     0.73837   0.66305   0.36777   0.00000  Uiso   1.00
H629   H     0.63472   0.65179   0.35728   0.00000  Uiso   1.00
H630   H     0.66671   0.38082   0.37431   0.00000  Uiso   1.00
H631   H     0.70042   0.35713   0.60775   0.00000  Uiso   1.00
H632   H     0.64025   0.35332   0.59617   0.00000  Uiso   1.00
H633   H     0.66933   0.62684   0.59022   0.00000  Uiso   1.00
H634   H     0.83495   0.34990   0.48830   0.00000  Uiso   1.00
H635   H     0.84509   0.63196   0.53106   0.00000  Uiso   1.00
H636   H     0.60373   0.46563   0.40324   0.00000  Uiso   1.00
H637   H     0.86515   0.41793   0.58225   0.00000  Uiso   1.00
H638   H     0.87789   0.36592   0.62171   0.00000  Uiso   1.00
H639   H     0.92851   0.66272   0.54118   0.00000  Uiso   1.00
H640   H     0.94490   0.39729   0.57663   0.00000  Uiso   1.00
H641   H     0.91536   0.38126   0.50095   0.00000  Uiso   1.00
H642   H     0.88219   0.46813   0.40131   0.00000  Uiso   1.00
H643   H     0.61786   0.53164   0.59892   0.00000  Uiso   1.00
H644   H     0.94842   0.44846   0.34653   0.00000  Uiso   1.00
H645   H     0.55146   0.55098   0.65408   0.00000  Uiso   1.00
H646   H     0.52988   0.44684   0.34724   0.00000  Uiso   1.00
H647   H     0.96999   0.55214   0.65321   0.00000  Uiso   1.00
H648   H     0.71504   0.45926   0.64950   0.00000  Uiso   1.00
N649   N     0.73744   0.48547   0.34617   0.00000  Uiso   1.00
N650   N     0.76255   0.51453   0.65383   0.00000  Uiso   1.00
O651   O     0.75325   0.42871   0.53992   0.00000  Uiso   1.00
O652   O     0.79576   0.34886   0.56157   0.00000  Uiso   1.00
O653   O     0.74674   0.57129   0.46008   0.00000  Uiso   1.00
O654   O     0.74480   0.41892   0.43612   0.00000  Uiso   1.00
O655   O     0.75520   0.58108   0.56388   0.00000  Uiso   1.00
O656   O     0.68935   0.50488   0.55191   0.00000  Uiso   1.00
O657   O     0.81064   0.49512   0.44809   0.00000  Uiso   1.00
O658   O     0.68090   0.49510   0.44810   0.00000  Uiso   1.00
O659   O     0.81910   0.50490   0.55190   0.00000  Uiso   1.00
O660   O     0.70157   0.65088   0.44232   0.00000  Uiso   1.00
C661   C     0.24631   0.73334   0.48493   0.00000  Uiso   1.00
C662   C     0.08885   0.81352   0.44584   0.00000  Uiso   1.00
C663   C     0.38402   0.83423   0.49907   0.00000  Uiso   1.00
C664   C     0.11597   0.83212   0.50113   0.00000  Uiso   1.00
C665   C     0.40322   0.81580   0.44401   0.00000  Uiso   1.00
C666   C     0.09679   0.85040   0.55630   0.00000  Uiso   1.00
C667   C     0.44950   0.81486   0.44417   0.00000  Uiso   1.00
C668   C     0.05047   0.85093   0.55632   0.00000  Uiso   1.00
C669   C     0.47669   0.83313   0.50002   0.00000  Uiso   1.00
C670   C     0.02326   0.83244   0.50051   0.00000  Uiso   1.00
C671   C     0.45737   0.85221   0.55533   0.00000  Uiso   1.00
C672   C     0.25315   0.93320   0.51487   0.00000  Uiso   1.00
C673   C     0.04257   0.81345   0.44514   0.00000  Uiso   1.00
C674   C     0.46902   0.79579   0.38954   0.00000  Uiso   1.00
C675   C     0.03093   0.86998   0.61100   0.00000  Uiso   1.00
C676   C     0.20582   0.97983   0.37865   0.00000  Uiso   1.00
C677   C     0.16673   0.67205   0.35055   0.00000  Uiso   1.00
C678   C     0.16948   0.66864   0.61517   0.00000  Uiso   1.00
C679   C     0.33670   0.67377   0.53498   0.00000  Uiso   1.00
C680   C     0.37405   0.70957   0.57574   0.00000  Uiso   1.00
C681   C     0.41840   0.70390   0.54672   0.00000  Uiso   1.00
C682   C     0.01534   0.79496   0.39000   0.00000  Uiso   1.00
C683   C     0.48457   0.87063   0.61050   0.00000  Uiso   1.00
C684   C     0.23891   0.67755   0.47870   0.00000  Uiso   1.00
C685   C     0.26144   0.98844   0.51974   0.00000  Uiso   1.00
C686   C     0.16435   0.83292   0.50052   0.00000  Uiso   1.00
C687   C     0.33565   0.83370   0.49951   0.00000  Uiso   1.00
C688   C     0.41110   0.85248   0.55448   0.00000  Uiso   1.00
Cu689  Cu    0.25500   0.83913   0.56146   0.00000  Uiso   1.00
Cu690  Cu    0.24499   0.82754   0.43854   0.00000  Uiso   1.00
H691   H     0.39620   0.86706   0.59705   0.00000  Uiso   1.00
H692   H     0.28486   0.87419   0.35053   0.00000  Uiso   1.00
H693   H     0.20365   0.93720   0.35640   0.00000  Uiso   1.00
H694   H     0.23837   0.99639   0.36777   0.00000  Uiso   1.00
H695   H     0.13472   0.98512   0.35728   0.00000  Uiso   1.00
H696   H     0.16671   0.71415   0.37431   0.00000  Uiso   1.00
H697   H     0.20042   0.69047   0.60775   0.00000  Uiso   1.00
H698   H     0.14025   0.68665   0.59617   0.00000  Uiso   1.00
H699   H     0.16933   0.96017   0.59022   0.00000  Uiso   1.00
H700   H     0.33495   0.68323   0.48830   0.00000  Uiso   1.00
H701   H     0.34509   0.96529   0.53106   0.00000  Uiso   1.00
H702   H     0.10373   0.79896   0.40324   0.00000  Uiso   1.00
H703   H     0.36515   0.75126   0.58225   0.00000  Uiso   1.00
H704   H     0.37789   0.69925   0.62171   0.00000  Uiso   1.00
H705   H     0.42851   0.99605   0.54118   0.00000  Uiso   1.00
H706   H     0.44490   0.73062   0.57663   0.00000  Uiso   1.00
H707   H     0.41536   0.71459   0.50095   0.00000  Uiso   1.00
H708   H     0.38219   0.80146   0.40131   0.00000  Uiso   1.00
H709   H     0.11786   0.86497   0.59892   0.00000  Uiso   1.00
H710   H     0.44842   0.78179   0.34653   0.00000  Uiso   1.00
H711   H     0.05146   0.88431   0.65408   0.00000  Uiso   1.00
H712   H     0.02988   0.78017   0.34724   0.00000  Uiso   1.00
H713   H     0.46999   0.88547   0.65321   0.00000  Uiso   1.00
H714   H     0.21504   0.79259   0.64950   0.00000  Uiso   1.00
N715   N     0.23744   0.81881   0.34617   0.00000  Uiso   1.00
N716   N     0.26255   0.84786   0.65383   0.00000  Uiso   1.00
O717   O     0.25325   0.76204   0.53992   0.00000  Uiso   1.00
O718   O     0.29576   0.68219   0.56157   0.00000  Uiso   1.00
O719   O     0.24674   0.90462   0.46008   0.00000  Uiso   1.00
O720   O     0.24480   0.75226   0.43612   0.00000  Uiso   1.00
O721   O     0.25520   0.91441   0.56388   0.00000  Uiso   1.00
O722   O     0.18935   0.83821   0.55191   0.00000  Uiso   1.00
O723   O     0.31064   0.82845   0.44809   0.00000  Uiso   1.00
O724   O     0.18090   0.82843   0.44810   0.00000  Uiso   1.00
O725   O     0.31910   0.83824   0.55190   0.00000  Uiso   1.00
O726   O     0.20157   0.98421   0.44232   0.00000  Uiso   1.00
C727   C     0.74631   0.73334   0.48493   0.00000  Uiso   1.00
C728   C     0.58885   0.81352   0.44584   0.00000  Uiso   1.00
C729   C     0.88402   0.83423   0.49907   0.00000  Uiso   1.00
C730   C     0.61597   0.83212   0.50113   0.00000  Uiso   1.00
C731   C     0.90322   0.81580   0.44401   0.00000  Uiso   1.00
C732   C     0.59679   0.85040   0.55630   0.00000  Uiso   1.00
C733   C     0.94950   0.81486   0.44417   0.00000  Uiso   1.00
C734   C     0.55047   0.85093   0.55632   0.00000  Uiso   1.00
C735   C     0.97669   0.83313   0.50002   0.00000  Uiso   1.00
C736   C     0.52326   0.83244   0.50051   0.00000  Uiso   1.00
C737   C     0.95737   0.85221   0.55533   0.00000  Uiso   1.00
C738   C     0.75315   0.93320   0.51487   0.00000  Uiso   1.00
C739   C     0.54257   0.81345   0.44514   0.00000  Uiso   1.00
C740   C     0.96902   0.79579   0.38954   0.00000  Uiso   1.00
C741   C     0.53093   0.86998   0.61100   0.00000  Uiso   1.00
C742   C     0.70582   0.97983   0.37865   0.00000  Uiso   1.00
C743   C     0.66673   0.67205   0.35055   0.00000  Uiso   1.00
C744   C     0.66948   0.66864   0.61517   0.00000  Uiso   1.00
C745   C     0.83670   0.67377   0.53498   0.00000  Uiso   1.00
C746   C     0.87405   0.70957   0.57574   0.00000  Uiso   1.00
C747   C     0.91840   0.70390   0.54672   0.00000  Uiso   1.00
C748   C     0.51534   0.79496   0.39000   0.00000  Uiso   1.00
C749   C     0.98457   0.87063   0.61050   0.00000  Uiso   1.00
C750   C     0.73891   0.67755   0.47870   0.00000  Uiso   1.00
C751   C     0.76144   0.98844   0.51974   0.00000  Uiso   1.00
C752   C     0.66435   0.83292   0.50052   0.00000  Uiso   1.00
C753   C     0.83565   0.83370   0.49951   0.00000  Uiso   1.00
C754   C     0.91110   0.85248   0.55448   0.00000  Uiso   1.00
Cu755  Cu    0.75500   0.83913   0.56146   0.00000  Uiso   1.00
Cu756  Cu    0.74499   0.82754   0.43854   0.00000  Uiso   1.00
H757   H     0.89620   0.86706   0.59705   0.00000  Uiso   1.00
H758   H     0.78486   0.87419   0.35053   0.00000  Uiso   1.00
H759   H     0.70365   0.93720   0.35640   0.00000  Uiso   1.00
H760   H     0.73837   0.99639   0.36777   0.00000  Uiso   1.00
H761   H     0.63472   0.98512   0.35728   0.00000  Uiso   1.00
H762   H     0.66671   0.71415   0.37431   0.00000  Uiso   1.00
H763   H     0.70042   0.69047   0.60775   0.00000  Uiso   1.00
H764   H     0.64025   0.68665   0.59617   0.00000  Uiso   1.00
H765   H     0.66933   0.96017   0.59022   0.00000  Uiso   1.00
H766   H     0.83495   0.68323   0.48830   0.00000  Uiso   1.00
H767   H     0.84509   0.96529   0.53106   0.00000  Uiso   1.00
H768   H     0.60373   0.79896   0.40324   0.00000  Uiso   1.00
H769   H     0.86515   0.75126   0.58225   0.00000  Uiso   1.00
H770   H     0.87789   0.69925   0.62171   0.00000  Uiso   1.00
H771   H     0.92851   0.99605   0.54118   0.00000  Uiso   1.00
H772   H     0.94490   0.73062   0.57663   0.00000  Uiso   1.00
H773   H     0.91536   0.71459   0.50095   0.00000  Uiso   1.00
H774   H     0.88219   0.80146   0.40131   0.00000  Uiso   1.00
H775   H     0.61786   0.86497   0.59892   0.00000  Uiso   1.00
H776   H     0.94842   0.78179   0.34653   0.00000  Uiso   1.00
H777   H     0.55146   0.88431   0.65408   0.00000  Uiso   1.00
H778   H     0.52988   0.78017   0.34724   0.00000  Uiso   1.00
H779   H     0.96999   0.88547   0.65321   0.00000  Uiso   1.00
H780   H     0.71504   0.79259   0.64950   0.00000  Uiso   1.00
N781   N     0.73744   0.81881   0.34617   0.00000  Uiso   1.00
N782   N     0.76255   0.84786   0.65383   0.00000  Uiso   1.00
O783   O     0.75325   0.76204   0.53992   0.00000  Uiso   1.00
O784   O     0.79576   0.68219   0.56157   0.00000  Uiso   1.00
O785   O     0.74674   0.90462   0.46008   0.00000  Uiso   1.00
O786   O     0.74480   0.75226   0.43612   0.00000  Uiso   1.00
O787   O     0.75520   0.91441   0.56388   0.00000  Uiso   1.00
O788   O     0.68935   0.83821   0.55191   0.00000  Uiso   1.00
O789   O     0.81064   0.82845   0.44809   0.00000  Uiso   1.00
O790   O     0.68090   0.82843   0.44810   0.00000  Uiso   1.00
O791   O     0.81910   0.83824   0.55190   0.00000  Uiso   1.00
O792   O     0.70157   0.98421   0.44232   0.00000  Uiso   1.00
C793   C     0.24631   0.06668   0.81826   0.00000  Uiso   1.00
C794   C     0.08885   0.14685   0.77917   0.00000  Uiso   1.00
C795   C     0.38402   0.16756   0.83240   0.00000  Uiso   1.00
C796   C     0.11597   0.16545   0.83447   0.00000  Uiso   1.00
C797   C     0.40322   0.14913   0.77734   0.00000  Uiso   1.00
C798   C     0.09679   0.18374   0.88963   0.00000  Uiso   1.00
C799   C     0.44950   0.14819   0.77751   0.00000  Uiso   1.00
C800   C     0.05047   0.18426   0.88965   0.00000  Uiso   1.00
C801   C     0.47669   0.16646   0.83335   0.00000  Uiso   1.00
C802   C     0.02326   0.16578   0.83385   0.00000  Uiso   1.00
C803   C     0.45737   0.18554   0.88866   0.00000  Uiso   1.00
C804   C     0.25315   0.26653   0.84821   0.00000  Uiso   1.00
C805   C     0.04257   0.14678   0.77848   0.00000  Uiso   1.00
C806   C     0.46902   0.12912   0.72287   0.00000  Uiso   1.00
C807   C     0.03093   0.20331   0.94434   0.00000  Uiso   1.00
C808   C     0.20582   0.31316   0.71199   0.00000  Uiso   1.00
C809   C     0.16673   0.00538   0.68388   0.00000  Uiso   1.00
C810   C     0.16948   0.00197   0.94850   0.00000  Uiso   1.00
C811   C     0.33670   0.00711   0.86831   0.00000  Uiso   1.00
C812   C     0.37405   0.04290   0.90908   0.00000  Uiso   1.00
C813   C     0.41840   0.03723   0.88005   0.00000  Uiso   1.00
C814   C     0.01534   0.12830   0.72333   0.00000  Uiso   1.00
C815   C     0.48457   0.20397   0.94383   0.00000  Uiso   1.00
C816   C     0.23891   0.01089   0.81203   0.00000  Uiso   1.00
C817   C     0.26144   0.32177   0.85307   0.00000  Uiso   1.00
C818   C     0.16435   0.16625   0.83385   0.00000  Uiso   1.00
C819   C     0.33565   0.16703   0.83284   0.00000  Uiso   1.00
C820   C     0.41110   0.18582   0.88782   0.00000  Uiso   1.00
Cu821  Cu    0.25500   0.17246   0.89479   0.00000  Uiso   1.00
Cu822  Cu    0.24499   0.16087   0.77187   0.00000  Uiso   1.00
H823   H     0.39620   0.20039   0.93038   0.00000  Uiso   1.00
H824   H     0.28486   0.20752   0.68386   0.00000  Uiso   1.00
H825   H     0.20365   0.27054   0.68973   0.00000  Uiso   1.00
H826   H     0.23837   0.32972   0.70110   0.00000  Uiso   1.00
H827   H     0.13472   0.31846   0.69061   0.00000  Uiso   1.00
H828   H     0.16671   0.04748   0.70764   0.00000  Uiso   1.00
H829   H     0.20042   0.02380   0.94108   0.00000  Uiso   1.00
H830   H     0.14025   0.01999   0.92950   0.00000  Uiso   1.00
H831   H     0.16933   0.29351   0.92356   0.00000  Uiso   1.00
H832   H     0.33495   0.01656   0.82164   0.00000  Uiso   1.00
H833   H     0.34509   0.29863   0.86440   0.00000  Uiso   1.00
H834   H     0.10373   0.13230   0.73657   0.00000  Uiso   1.00
H835   H     0.36515   0.08460   0.91559   0.00000  Uiso   1.00
H836   H     0.37789   0.03258   0.95504   0.00000  Uiso   1.00
H837   H     0.42851   0.32938   0.87451   0.00000  Uiso   1.00
H838   H     0.44490   0.06395   0.90996   0.00000  Uiso   1.00
H839   H     0.41536   0.04792   0.83429   0.00000  Uiso   1.00
H840   H     0.38219   0.13479   0.73464   0.00000  Uiso   1.00
H841   H     0.11786   0.19830   0.93225   0.00000  Uiso   1.00
H842   H     0.44842   0.11513   0.67987   0.00000  Uiso   1.00
H843   H     0.05146   0.21764   0.98742   0.00000  Uiso   1.00
H844   H     0.02988   0.11351   0.68057   0.00000  Uiso   1.00
H845   H     0.46999   0.21881   0.98654   0.00000  Uiso   1.00
H846   H     0.21504   0.12592   0.98283   0.00000  Uiso   1.00
N847   N     0.23744   0.15214   0.67951   0.00000  Uiso   1.00
N848   N     0.26255   0.18119   0.98716   0.00000  Uiso   1.00
O849   O     0.25325   0.09538   0.87326   0.00000  Uiso   1.00
O850   O     0.29576   0.01553   0.89490   0.00000  Uiso   1.00
O851   O     0.24674   0.23796   0.79341   0.00000  Uiso   1.00
O852   O     0.24480   0.08559   0.76945   0.00000  Uiso   1.00
O853   O     0.25520   0.24774   0.89721   0.00000  Uiso   1.00
O854   O     0.18935   0.17155   0.88524   0.00000  Uiso   1.00
O855   O     0.31064   0.16179   0.78143   0.00000  Uiso   1.00
O856   O     0.18090   0.16176   0.78143   0.00000  Uiso   1.00
O857   O     0.31910   0.17157   0.88523   0.00000  Uiso   1.00
O858   O     0.20157   0.31754   0.77565   0.00000  Uiso   1.00
C859   C     0.74631   0.06668   0.81826   0.00000  Uiso   1.00
C860   C     0.58885   0.14685   0.77917   0.00000  Uiso   1.00
C861   C     0.88402   0.16756   0.83240   0.00000  Uiso   1.00
C862   C     0.61597   0.16545   0.83447   0.00000  Uiso   1.00
C863   C     0.90322   0.14913   0.77734   0.00000  Uiso   1.00
C864   C     0.59679   0.18374   0.88963   0.00000  Uiso   1.00
C865   C     0.94950   0.14819   0.77751   0.00000  Uiso   1.00
C866   C     0.55047   0.18426   0.88965   0.00000  Uiso   1.00
C867   C     0.97669   0.16646   0.83335   0.00000  Uiso   1.00
C868   C     0.52326   0.16578   0.83385   0.00000  Uiso   1.00
C869   C     0.95737   0.18554   0.88866   0.00000  Uiso   1.00
C870   C     0.75315   0.26653   0.84821   0.00000  Uiso   1.00
C871   C     0.54257   0.14678   0.77848   0.00000  Uiso   1.00
C872   C     0.96902   0.12912   0.72287   0.00000  Uiso   1.00
C873   C     0.53093   0.20331   0.94434   0.00000  Uiso   1.00
C874   C     0.70582   0.31316   0.71199   0.00000  Uiso   1.00
C875   C     0.66673   0.00538   0.68388   0.00000  Uiso   1.00
C876   C     0.66948   0.00197   0.94850   0.00000  Uiso   1.00
C877   C     0.83670   0.00711   0.86831   0.00000  Uiso   1.00
C878   C     0.87405   0.04290   0.90908   0.00000  Uiso   1.00
C879   C     0.91840   0.03723   0.88005   0.00000  Uiso   1.00
C880   C     0.51534   0.12830   0.72333   0.00000  Uiso   1.00
C881   C     0.98457   0.20397   0.94383   0.00000  Uiso   1.00
C882   C     0.73891   0.01089   0.81203   0.00000  Uiso   1.00
C883   C     0.76144   0.32177   0.85307   0.00000  Uiso   1.00
C884   C     0.66435   0.16625   0.83385   0.00000  Uiso   1.00
C885   C     0.83565   0.16703   0.83284   0.00000  Uiso   1.00
C886   C     0.91110   0.18582   0.88782   0.00000  Uiso   1.00
Cu887  Cu    0.75500   0.17246   0.89479   0.00000  Uiso   1.00
Cu888  Cu    0.74499   0.16087   0.77187   0.00000  Uiso   1.00
H889   H     0.89620   0.20039   0.93038   0.00000  Uiso   1.00
H890   H     0.78486   0.20752   0.68386   0.00000  Uiso   1.00
H891   H     0.70365   0.27054   0.68973   0.00000  Uiso   1.00
H892   H     0.73837   0.32972   0.70110   0.00000  Uiso   1.00
H893   H     0.63472   0.31846   0.69061   0.00000  Uiso   1.00
H894   H     0.66671   0.04748   0.70764   0.00000  Uiso   1.00
H895   H     0.70042   0.02380   0.94108   0.00000  Uiso   1.00
H896   H     0.64025   0.01999   0.92950   0.00000  Uiso   1.00
H897   H     0.66933   0.29351   0.92356   0.00000  Uiso   1.00
H898   H     0.83495   0.01656   0.82164   0.00000  Uiso   1.00
H899   H     0.84509   0.29863   0.86440   0.00000  Uiso   1.00
H900   H     0.60373   0.13230   0.73657   0.00000  Uiso   1.00
H901   H     0.86515   0.08460   0.91559   0.00000  Uiso   1.00
H902   H     0.87789   0.03258   0.95504   0.00000  Uiso   1.00
H903   H     0.92851   0.32938   0.87451   0.00000  Uiso   1.00
H904   H     0.94490   0.06395   0.90996   0.00000  Uiso   1.00
H905   H     0.91536   0.04792   0.83429   0.00000  Uiso   1.00
H906   H     0.88219   0.13479   0.73464   0.00000  Uiso   1.00
H907   H     0.61786   0.19830   0.93225   0.00000  Uiso   1.00
H908   H     0.94842   0.11513   0.67987   0.00000  Uiso   1.00
H909   H     0.55146   0.21764   0.98742   0.00000  Uiso   1.00
H910   H     0.52988   0.11351   0.68057   0.00000  Uiso   1.00
H911   H     0.96999   0.21881   0.98654   0.00000  Uiso   1.00
H912   H     0.71504   0.12592   0.98283   0.00000  Uiso   1.00
N913   N     0.73744   0.15214   0.67951   0.00000  Uiso   1.00
N914   N     0.76255   0.18119   0.98716   0.00000  Uiso   1.00
O915   O     0.75325   0.09538   0.87326   0.00000  Uiso   1.00
O916   O     0.79576   0.01553   0.89490   0.00000  Uiso   1.00
O917   O     0.74674   0.23796   0.79341   0.00000  Uiso   1.00
O918   O     0.74480   0.08559   0.76945   0.00000  Uiso   1.00
O919   O     0.75520   0.24774   0.89721   0.00000  Uiso   1.00
O920   O     0.68935   0.17155   0.88524   0.00000  Uiso   1.00
O921   O     0.81064   0.16179   0.78143   0.00000  Uiso   1.00
O922   O     0.68090   0.16176   0.78143   0.00000  Uiso   1.00
O923   O     0.81910   0.17157   0.88523   0.00000  Uiso   1.00
O924   O     0.70157   0.31754   0.77565   0.00000  Uiso   1.00
C925   C     0.24631   0.40001   0.81826   0.00000  Uiso   1.00
C926   C     0.08885   0.48019   0.77917   0.00000  Uiso   1.00
C927   C     0.38402   0.50089   0.83240   0.00000  Uiso   1.00
C928   C     0.11597   0.49879   0.83447   0.00000  Uiso   1.00
C929   C     0.40322   0.48247   0.77734   0.00000  Uiso   1.00
C930   C     0.09679   0.51707   0.88963   0.00000  Uiso   1.00
C931   C     0.44950   0.48153   0.77751   0.00000  Uiso   1.00
C932   C     0.05047   0.51760   0.88965   0.00000  Uiso   1.00
C933   C     0.47669   0.49979   0.83335   0.00000  Uiso   1.00
C934   C     0.02326   0.49911   0.83385   0.00000  Uiso   1.00
C935   C     0.45737   0.51887   0.88866   0.00000  Uiso   1.00
C936   C     0.25315   0.59987   0.84821   0.00000  Uiso   1.00
C937   C     0.04257   0.48011   0.77848   0.00000  Uiso   1.00
C938   C     0.46902   0.46245   0.72287   0.00000  Uiso   1.00
C939   C     0.03093   0.53665   0.94434   0.00000  Uiso   1.00
C940   C     0.20582   0.64649   0.71199   0.00000  Uiso   1.00
C941   C     0.16673   0.33871   0.68388   0.00000  Uiso   1.00
C942   C     0.16948   0.33530   0.94850   0.00000  Uiso   1.00
C943   C     0.33670   0.34044   0.86831   0.00000  Uiso   1.00
C944   C     0.37405   0.37624   0.90908   0.00000  Uiso   1.00
C945   C     0.41840   0.37057   0.88005   0.00000  Uiso   1.00
C946   C     0.01534   0.46163   0.72333   0.00000  Uiso   1.00
C947   C     0.48457   0.53730   0.94383   0.00000  Uiso   1.00
C948   C     0.23891   0.34422   0.81203   0.00000  Uiso   1.00
C949   C     0.26144   0.65510   0.85307   0.00000  Uiso   1.00
C950   C     0.16435   0.49959   0.83385   0.00000  Uiso   1.00
C951   C     0.33565   0.50037   0.83284   0.00000  Uiso   1.00
C952   C     0.41110   0.51915   0.88782   0.00000  Uiso   1.00
Cu953  Cu    0.25500   0.50579   0.89479   0.00000  Uiso   1.00
Cu954  Cu    0.24499   0.49421   0.77187   0.00000  Uiso   1.00
H955   H     0.39620   0.53373   0.93038   0.00000  Uiso   1.00
H956   H     0.28486   0.54086   0.68386   0.00000  Uiso   1.00
H957   H     0.20365   0.60387   0.68973   0.00000  Uiso   1.00
H958   H     0.23837   0.66305   0.70110   0.00000  Uiso   1.00
H959   H     0.13472   0.65179   0.69061   0.00000  Uiso   1.00
H960   H     0.16671   0.38082   0.70764   0.00000  Uiso   1.00
H961   H     0.20042   0.35713   0.94108   0.00000  Uiso   1.00
H962   H     0.14025   0.35332   0.92950   0.00000  Uiso   1.00
H963   H     0.16933   0.62684   0.92356   0.00000  Uiso   1.00
H964   H     0.33495   0.34990   0.82164   0.00000  Uiso   1.00
H965   H     0.34509   0.63196   0.86440   0.00000  Uiso   1.00
H966   H     0.10373   0.46563   0.73657   0.00000  Uiso   1.00
H967   H     0.36515   0.41793   0.91559   0.00000  Uiso   1.00
H968   H     0.37789   0.36592   0.95504   0.00000  Uiso   1.00
H969   H     0.42851   0.66272   0.87451   0.00000  Uiso   1.00
H970   H     0.44490   0.39729   0.90996   0.00000  Uiso   1.00
H971   H     0.41536   0.38126   0.83429   0.00000  Uiso   1.00
H972   H     0.38219   0.46813   0.73464   0.00000  Uiso   1.00
H973   H     0.11786   0.53164   0.93225   0.00000  Uiso   1.00
H974   H     0.44842   0.44846   0.67987   0.00000  Uiso   1.00
H975   H     0.05146   0.55098   0.98742   0.00000  Uiso   1.00
H976   H     0.02988   0.44684   0.68057   0.00000  Uiso   1.00
H977   H     0.46999   0.55214   0.98654   0.00000  Uiso   1.00
H978   H     0.21504   0.45926   0.98283   0.00000  Uiso   1.00
N979   N     0.23744   0.48547   0.67951   0.00000  Uiso   1.00
N980   N     0.26255   0.51453   0.98716   0.00000  Uiso   1.00
O981   O     0.25325   0.42871   0.87326   0.00000  Uiso   1.00
O982   O     0.29576   0.34886   0.89490   0.00000  Uiso   1.00
O983   O     0.24674   0.57129   0.79341   0.00000  Uiso   1.00
O984   O     0.24480   0.41892   0.76945   0.00000  Uiso   1.00
O985   O     0.25520   0.58108   0.89721   0.00000  Uiso   1.00
O986   O     0.18935   0.50488   0.88524   0.00000  Uiso   1.00
O987   O     0.31064   0.49512   0.78143   0.00000  Uiso   1.00
O988   O     0.18090   0.49510   0.78143   0.00000  Uiso   1.00
O989   O     0.31910   0.50490   0.88523   0.00000  Uiso   1.00
O990   O     0.20157   0.65088   0.77565   0.00000  Uiso   1.00
C991   C     0.74631   0.40001   0.81826   0.00000  Uiso   1.00
C992   C     0.58885   0.48019   0.77917   0.00000  Uiso   1.00
C993   C     0.88402   0.50089   0.83240   0.00000  Uiso   1.00
C994   C     0.61597   0.49879   0.83447   0.00000  Uiso   1.00
C995   C     0.90322   0.48247   0.77734   0.00000  Uiso   1.00
C996   C     0.59679   0.51707   0.88963   0.00000  Uiso   1.00
C997   C     0.94950   0.48153   0.77751   0.00000  Uiso   1.00
C998   C     0.55047   0.51760   0.88965   0.00000  Uiso   1.00
C999   C     0.97669   0.49979   0.83335   0.00000  Uiso   1.00
C1000  C     0.52326   0.49911   0.83385   0.00000  Uiso   1.00
C1001  C     0.95737   0.51887   0.88866   0.00000  Uiso   1.00
C1002  C     0.75315   0.59987   0.84821   0.00000  Uiso   1.00
C1003  C     0.54257   0.48011   0.77848   0.00000  Uiso   1.00
C1004  C     0.96902   0.46245   0.72287   0.00000  Uiso   1.00
C1005  C     0.53093   0.53665   0.94434   0.00000  Uiso   1.00
C1006  C     0.70582   0.64649   0.71199   0.00000  Uiso   1.00
C1007  C     0.66673   0.33871   0.68388   0.00000  Uiso   1.00
C1008  C     0.66948   0.33530   0.94850   0.00000  Uiso   1.00
C1009  C     0.83670   0.34044   0.86831   0.00000  Uiso   1.00
C1010  C     0.87405   0.37624   0.90908   0.00000  Uiso   1.00
C1011  C     0.91840   0.37057   0.88005   0.00000  Uiso   1.00
C1012  C     0.51534   0.46163   0.72333   0.00000  Uiso   1.00
C1013  C     0.98457   0.53730   0.94383   0.00000  Uiso   1.00
C1014  C     0.73891   0.34422   0.81203   0.00000  Uiso   1.00
C1015  C     0.76144   0.65510   0.85307   0.00000  Uiso   1.00
C1016  C     0.66435   0.49959   0.83385   0.00000  Uiso   1.00
C1017  C     0.83565   0.50037   0.83284   0.00000  Uiso   1.00
C1018  C     0.91110   0.51915   0.88782   0.00000  Uiso   1.00
Cu1019 Cu    0.75500   0.50579   0.89479   0.00000  Uiso   1.00
Cu1020 Cu    0.74499   0.49421   0.77187   0.00000  Uiso   1.00
H1021  H     0.89620   0.53373   0.93038   0.00000  Uiso   1.00
H1022  H     0.78486   0.54086   0.68386   0.00000  Uiso   1.00
H1023  H     0.70365   0.60387   0.68973   0.00000  Uiso   1.00
H1024  H     0.73837   0.66305   0.70110   0.00000  Uiso   1.00
H1025  H     0.63472   0.65179   0.69061   0.00000  Uiso   1.00
H1026  H     0.66671   0.38082   0.70764   0.00000  Uiso   1.00
H1027  H     0.70042   0.35713   0.94108   0.00000  Uiso   1.00
H1028  H     0.64025   0.35332   0.92950   0.00000  Uiso   1.00
H1029  H     0.66933   0.62684   0.92356   0.00000  Uiso   1.00
H1030  H     0.83495   0.34990   0.82164   0.00000  Uiso   1.00
H1031  H     0.84509   0.63196   0.86440   0.00000  Uiso   1.00
H1032  H     0.60373   0.46563   0.73657   0.00000  Uiso   1.00
H1033  H     0.86515   0.41793   0.91559   0.00000  Uiso   1.00
H1034  H     0.87789   0.36592   0.95504   0.00000  Uiso   1.00
H1035  H     0.92851   0.66272   0.87451   0.00000  Uiso   1.00
H1036  H     0.94490   0.39729   0.90996   0.00000  Uiso   1.00
H1037  H     0.91536   0.38126   0.83429   0.00000  Uiso   1.00
H1038  H     0.88219   0.46813   0.73464   0.00000  Uiso   1.00
H1039  H     0.61786   0.53164   0.93225   0.00000  Uiso   1.00
H1040  H     0.94842   0.44846   0.67987   0.00000  Uiso   1.00
H1041  H     0.55146   0.55098   0.98742   0.00000  Uiso   1.00
H1042  H     0.52988   0.44684   0.68057   0.00000  Uiso   1.00
H1043  H     0.96999   0.55214   0.98654   0.00000  Uiso   1.00
H1044  H     0.71504   0.45926   0.98283   0.00000  Uiso   1.00
N1045  N     0.73744   0.48547   0.67951   0.00000  Uiso   1.00
N1046  N     0.76255   0.51453   0.98716   0.00000  Uiso   1.00
O1047  O     0.75325   0.42871   0.87326   0.00000  Uiso   1.00
O1048  O     0.79576   0.34886   0.89490   0.00000  Uiso   1.00
O1049  O     0.74674   0.57129   0.79341   0.00000  Uiso   1.00
O1050  O     0.74480   0.41892   0.76945   0.00000  Uiso   1.00
O1051  O     0.75520   0.58108   0.89721   0.00000  Uiso   1.00
O1052  O     0.68935   0.50488   0.88524   0.00000  Uiso   1.00
O1053  O     0.81064   0.49512   0.78143   0.00000  Uiso   1.00
O1054  O     0.68090   0.49510   0.78143   0.00000  Uiso   1.00
O1055  O     0.81910   0.50490   0.88523   0.00000  Uiso   1.00
O1056  O     0.70157   0.65088   0.77565   0.00000  Uiso   1.00
C1057  C     0.24631   0.73334   0.81826   0.00000  Uiso   1.00
C1058  C     0.08885   0.81352   0.77917   0.00000  Uiso   1.00
C1059  C     0.38402   0.83423   0.83240   0.00000  Uiso   1.00
C1060  C     0.11597   0.83212   0.83447   0.00000  Uiso   1.00
C1061  C     0.40322   0.81580   0.77734   0.00000  Uiso   1.00
C1062  C     0.09679   0.85040   0.88963   0.00000  Uiso   1.00
C1063  C     0.44950   0.81486   0.77751   0.00000  Uiso   1.00
C1064  C     0.05047   0.85093   0.88965   0.00000  Uiso   1.00
C1065  C     0.47669   0.83313   0.83335   0.00000  Uiso   1.00
C1066  C     0.02326   0.83244   0.83385   0.00000  Uiso   1.00
C1067  C     0.45737   0.85221   0.88866   0.00000  Uiso   1.00
C1068  C     0.25315   0.93320   0.84821   0.00000  Uiso   1.00
C1069  C     0.04257   0.81345   0.77848   0.00000  Uiso   1.00
C1070  C     0.46902   0.79579   0.72287   0.00000  Uiso   1.00
C1071  C     0.03093   0.86998   0.94434   0.00000  Uiso   1.00
C1072  C     0.20582   0.97983   0.71199   0.00000  Uiso   1.00
C1073  C     0.16673   0.67205   0.68388   0.00000  Uiso   1.00
C1074  C     0.16948   0.66864   0.94850   0.00000  Uiso   1.00
C1075  C     0.33670   0.67377   0.86831   0.00000  Uiso   1.00
C1076  C     0.37405   0.70957   0.90908   0.00000  Uiso   1.00
C1077  C     0.41840   0.70390   0.88005   0.00000  Uiso   1.00
C1078  C     0.01534   0.79496   0.72333   0.00000  Uiso   1.00
C1079  C     0.48457   0.87063   0.94383   0.00000  Uiso   1.00
C1080  C     0.23891   0.67755   0.81203   0.00000  Uiso   1.00
C1081  C     0.26144   0.98844   0.85307   0.00000  Uiso   1.00
C1082  C     0.16435   0.83292   0.83385   0.00000  Uiso   1.00
C1083  C     0.33565   0.83370   0.83284   0.00000  Uiso   1.00
C1084  C     0.41110   0.85248   0.88782   0.00000  Uiso   1.00
Cu1085 Cu    0.25500   0.83913   0.89479   0.00000  Uiso   1.00
Cu1086 Cu    0.24499   0.82754   0.77187   0.00000  Uiso   1.00
H1087  H     0.39620   0.86706   0.93038   0.00000  Uiso   1.00
H1088  H     0.28486   0.87419   0.68386   0.00000  Uiso   1.00
H1089  H     0.20365   0.93720   0.68973   0.00000  Uiso   1.00
H1090  H     0.23837   0.99639   0.70110   0.00000  Uiso   1.00
H1091  H     0.13472   0.98512   0.69061   0.00000  Uiso   1.00
H1092  H     0.16671   0.71415   0.70764   0.00000  Uiso   1.00
H1093  H     0.20042   0.69047   0.94108   0.00000  Uiso   1.00
H1094  H     0.14025   0.68665   0.92950   0.00000  Uiso   1.00
H1095  H     0.16933   0.96017   0.92356   0.00000  Uiso   1.00
H1096  H     0.33495   0.68323   0.82164   0.00000  Uiso   1.00
H1097  H     0.34509   0.96529   0.86440   0.00000  Uiso   1.00
H1098  H     0.10373   0.79896   0.73657   0.00000  Uiso   1.00
H1099  H     0.36515   0.75126   0.91559   0.00000  Uiso   1.00
H1100  H     0.37789   0.69925   0.95504   0.00000  Uiso   1.00
H1101  H     0.42851   0.99605   0.87451   0.00000  Uiso   1.00
H1102  H     0.44490   0.73062   0.90996   0.00000  Uiso   1.00
H1103  H     0.41536   0.71459   0.83429   0.00000  Uiso   1.00
H1104  H     0.38219   0.80146   0.73464   0.00000  Uiso   1.00
H1105  H     0.11786   0.86497   0.93225   0.00000  Uiso   1.00
H1106  H     0.44842   0.78179   0.67987   0.00000  Uiso   1.00
H1107  H     0.05146   0.88431   0.98742   0.00000  Uiso   1.00
H1108  H     0.02988   0.78017   0.68057   0.00000  Uiso   1.00
H1109  H     0.46999   0.88547   0.98654   0.00000  Uiso   1.00
H1110  H     0.21504   0.79259   0.98283   0.00000  Uiso   1.00
N1111  N     0.23744   0.81881   0.67951   0.00000  Uiso   1.00
N1112  N     0.26255   0.84786   0.98716   0.00000  Uiso   1.00
O1113  O     0.25325   0.76204   0.87326   0.00000  Uiso   1.00
O1114  O     0.29576   0.68219   0.89490   0.00000  Uiso   1.00
O1115  O     0.24674   0.90462   0.79341   0.00000  Uiso   1.00
O1116  O     0.24480   0.75226   0.76945   0.00000  Uiso   1.00
O1117  O     0.25520   0.91441   0.89721   0.00000  Uiso   1.00
O1118  O     0.18935   0.83821   0.88524   0.00000  Uiso   1.00
O1119  O     0.31064   0.82845   0.78143   0.00000  Uiso   1.00
O1120  O     0.18090   0.82843   0.78143   0.00000  Uiso   1.00
O1121  O     0.31910   0.83824   0.88523   0.00000  Uiso   1.00
O1122  O     0.20157   0.98421   0.77565   0.00000  Uiso   1.00
C1123  C     0.74631   0.73334   0.81826   0.00000  Uiso   1.00
C1124  C     0.58885   0.81352   0.77917   0.00000  Uiso   1.00
C1125  C     0.88402   0.83423   0.83240   0.00000  Uiso   1.00
C1126  C     0.61597   0.83212   0.83447   0.00000  Uiso   1.00
C1127  C     0.90322   0.81580   0.77734   0.00000  Uiso   1.00
C1128  C     0.59679   0.85040   0.88963   0.00000  Uiso   1.00
C1129  C     0.94950   0.81486   0.77751   0.00000  Uiso   1.00
C1130  C     0.55047   0.85093   0.88965   0.00000  Uiso   1.00
C1131  C     0.97669   0.83313   0.83335   0.00000  Uiso   1.00
C1132  C     0.52326   0.83244   0.83385   0.00000  Uiso   1.00
C1133  C     0.95737   0.85221   0.88866   0.00000  Uiso   1.00
C1134  C     0.75315   0.93320   0.84821   0.00000  Uiso   1.00
C1135  C     0.54257   0.81345   0.77848   0.00000  Uiso   1.00
C1136  C     0.96902   0.79579   0.72287   0.00000  Uiso   1.00
C1137  C     0.53093   0.86998   0.94434   0.00000  Uiso   1.00
C1138  C     0.70582   0.97983   0.71199   0.00000  Uiso   1.00
C1139  C     0.66673   0.67205   0.68388   0.00000  Uiso   1.00
C1140  C     0.66948   0.66864   0.94850   0.00000  Uiso   1.00
C1141  C     0.83670   0.67377   0.86831   0.00000  Uiso   1.00
C1142  C     0.87405   0.70957   0.90908   0.00000  Uiso   1.00
C1143  C     0.91840   0.70390   0.88005   0.00000  Uiso   1.00
C1144  C     0.51534   0.79496   0.72333   0.00000  Uiso   1.00
C1145  C     0.98457   0.87063   0.94383   0.00000  Uiso   1.00
C1146  C     0.73891   0.67755   0.81203   0.00000  Uiso   1.00
C1147  C     0.76144   0.98844   0.85307   0.00000  Uiso   1.00
C1148  C     0.66435   0.83292   0.83385   0.00000  Uiso   1.00
C1149  C     0.83565   0.83370   0.83284   0.00000  Uiso   1.00
C1150  C     0.91110   0.85248   0.88782   0.00000  Uiso   1.00
Cu1151 Cu    0.75500   0.83913   0.89479   0.00000  Uiso   1.00
Cu1152 Cu    0.74499   0.82754   0.77187   0.00000  Uiso   1.00
H1153  H     0.89620   0.86706   0.93038   0.00000  Uiso   1.00
H1154  H     0.78486   0.87419   0.68386   0.00000  Uiso   1.00
H1155  H     0.70365   0.93720   0.68973   0.00000  Uiso   1.00
H1156  H     0.73837   0.99639   0.70110   0.00000  Uiso   1.00
H1157  H     0.63472   0.98512   0.69061   0.00000  Uiso   1.00
H1158  H     0.66671   0.71415   0.70764   0.00000  Uiso   1.00
H1159  H     0.70042   0.69047   0.94108   0.00000  Uiso   1.00
H1160  H     0.64025   0.68665   0.92950   0.00000  Uiso   1.00
H1161  H     0.66933   0.96017   0.92356   0.00000  Uiso   1.00
H1162  H     0.83495   0.68323   0.82164   0.00000  Uiso   1.00
H1163  H     0.84509   0.96529   0.86440   0.00000  Uiso   1.00
H1164  H     0.60373   0.79896   0.73657   0.00000  Uiso   1.00
H1165  H     0.86515   0.75126   0.91559   0.00000  Uiso   1.00
H1166  H     0.87789   0.69925   0.95504   0.00000  Uiso   1.00
H1167  H     0.92851   0.99605   0.87451   0.00000  Uiso   1.00
H1168  H     0.94490   0.73062   0.90996   0.00000  Uiso   1.00
H1169  H     0.91536   0.71459   0.83429   0.00000  Uiso   1.00
H1170  H     0.88219   0.80146   0.73464   0.00000  Uiso   1.00
H1171  H     0.61786   0.86497   0.93225   0.00000  Uiso   1.00
H1172  H     0.94842   0.78179   0.67987   0.00000  Uiso   1.00
H1173  H     0.55146   0.88431   0.98742   0.00000  Uiso   1.00
H1174  H     0.52988   0.78017   0.68057   0.00000  Uiso   1.00
H1175  H     0.96999   0.88547   0.98654   0.00000  Uiso   1.00
H1176  H     0.71504   0.79259   0.98283   0.00000  Uiso   1.00
N1177  N     0.73744   0.81881   0.67951   0.00000  Uiso   1.00
N1178  N     0.76255   0.84786   0.98716   0.00000  Uiso   1.00
O1179  O     0.75325   0.76204   0.87326   0.00000  Uiso   1.00
O1180  O     0.79576   0.68219   0.89490   0.00000  Uiso   1.00
O1181  O     0.74674   0.90462   0.79341   0.00000  Uiso   1.00
O1182  O     0.74480   0.75226   0.76945   0.00000  Uiso   1.00
O1183  O     0.75520   0.91441   0.89721   0.00000  Uiso   1.00
O1184  O     0.68935   0.83821   0.88524   0.00000  Uiso   1.00
O1185  O     0.81064   0.82845   0.78143   0.00000  Uiso   1.00
O1186  O     0.68090   0.82843   0.78143   0.00000  Uiso   1.00
O1187  O     0.81910   0.83824   0.88523   0.00000  Uiso   1.00
O1188  O     0.70157   0.98421   0.77565   0.00000  Uiso   1.00
loop_
_geom_bond_atom_site_label_1
_geom_bond_atom_site_label_2
_geom_bond_distance
_geom_bond_site_symmetry_2
_ccdc_geom_bond_type
C1     O57     1.289   .     A
C1     C24     1.433   .     S
C1     O60     1.284   .     A
C2     C4      1.403   .     A
C2     H42     1.085   .     S
C2     C13     1.390   .     A
C3     C5      1.400   .     A
C3     C28     1.403   .     A
C3     C27     1.454   .     S
C4     C26     1.455   .     S
C4     C6      1.401   .     A
C5     H48     1.085   .     S
C5     C7      1.392   .     A
C6     H49     1.085   .     S
C6     C8      1.393   .     A
C7     C14     1.400   .     A
C7     C9      1.412   .     A
C8     C15     1.401   .     A
C8     C10     1.413   .     A
C9     C11     1.409   .     A
C9     C76     1.400   .     S
C10    C13     1.410   .     A
C10    C75     1.400   1_455 S
C11    C28     1.390   .     A
C11    C23     1.402   .     A
C12    C25     1.427   .     S
C12    O61     1.286   .     A
C12    O59     1.283   .     A
C13    C22     1.402   .     A
C14    H50     1.082   .     S
C14    C88     1.393   .     S
C15    H51     1.084   .     S
C15    C89     1.394   1_455 S
C16    H33     1.111   .     S
C16    H34     1.116   .     S
C16    O66     1.416   .     S
C16    C149    1.531   .     S
C17    H36     1.111   .     S
C17    C280    1.531   1_545 S
C17    C810    1.525   1_554 S
C17    H299    1.112   1_545 S
C18    H37     1.110   .     S
C18    H38     1.110   .     S
C18    C413    1.525   .     S
C18    H303    1.111   1_545 S
C19    C20     1.529   .     S
C19    O58     1.414   .     S
C19    H40     1.117   .     S
C19    H305    1.115   1_545 S
C20    H43     1.111   .     S
C20    C21     1.528   .     S
C20    H44     1.112   .     S
C21    H46     1.109   .     S
C21    H47     1.111   .     S
C21    H309    1.111   1_545 S
C22    H52     1.084   .     S
C22    C80     1.393   1_455 S
C23    H53     1.084   .     S
C23    C81     1.394   .     S
C24    C289    1.341   1_545 S
C24    O330    1.394   1_545 S
C25    C156    1.341   .     S
C25    O190    1.390   .     S
C26    O62     1.297   .     A
C26    O64     1.291   .     A
C27    O65     1.291   .     A
C27    O63     1.298   .     A
C28    H31     1.085   .     S
Cu29   Cu30    2.683   .     S
Cu29   O61     1.947   .     S
Cu29   O65     1.956   .     S
Cu29   N56     2.016   .     S
Cu29   O57     1.957   .     S
Cu29   O62     1.966   .     S
Cu30   O64     1.956   .     S
Cu30   O59     1.957   .     S
Cu30   O63     1.966   .     S
Cu30   N55     2.016   .     S
Cu30   O60     1.947   .     S
H32    N848    1.029   1_554 S
H35    C149    1.112   .     S
H39    C150    1.111   .     S
H41    C151    1.115   .     S
H45    C153    1.111   .     S
H54    N451    1.029   .     S
N55    H846    1.029   1_554 S
N55    N848    1.292   1_554 S
N56    N451    1.292   .     S
N56    H428    1.029   .     S
O58    C289    1.390   1_545 S
O66    C156    1.394   .     S
C67    O123    1.289   .     A
C67    C90     1.433   .     S
C67    O126    1.284   .     A
C68    C70     1.403   .     A
C68    H108    1.085   .     S
C68    C79     1.390   .     A
C69    C71     1.400   .     A
C69    C94     1.403   .     A
C69    C93     1.454   .     S
C70    C92     1.455   .     S
C70    C72     1.401   .     A
C71    H114    1.085   .     S
C71    C73     1.392   .     A
C72    H115    1.085   .     S
C72    C74     1.393   .     A
C73    C80     1.400   .     A
C73    C75     1.412   .     A
C74    C81     1.401   .     A
C74    C76     1.413   .     A
C75    C77     1.409   .     A
C75    C10     1.400   1_655 S
C76    C79     1.410   .     A
C77    C94     1.390   .     A
C77    C89     1.402   .     A
C78    C91     1.427   .     S
C78    O127    1.286   .     A
C78    O125    1.283   .     A
C79    C88     1.402   .     A
C80    H116    1.082   .     S
C80    C22     1.393   1_655 S
C81    H117    1.084   .     S
C82    H99     1.111   .     S
C82    H100    1.116   .     S
C82    O132    1.416   .     S
C82    C215    1.531   .     S
C83    H102    1.111   .     S
C83    C346    1.531   1_545 S
C83    C876    1.525   1_554 S
C83    H365    1.112   1_545 S
C84    H103    1.110   .     S
C84    H104    1.110   .     S
C84    C479    1.525   .     S
C84    H369    1.111   1_545 S
C85    C86     1.529   .     S
C85    O124    1.414   .     S
C85    H106    1.117   .     S
C85    H371    1.115   1_545 S
C86    H109    1.111   .     S
C86    C87     1.528   .     S
C86    H110    1.112   .     S
C87    H112    1.109   .     S
C87    H113    1.111   .     S
C87    H375    1.111   1_545 S
C88    H118    1.084   .     S
C89    H119    1.084   .     S
C89    C15     1.394   1_655 S
C90    C355    1.341   1_545 S
C90    O396    1.394   1_545 S
C91    C222    1.341   .     S
C91    O256    1.390   .     S
C92    O128    1.297   .     A
C92    O130    1.291   .     A
C93    O131    1.291   .     A
C93    O129    1.298   .     A
C94    H97     1.085   .     S
Cu95   Cu96    2.683   .     S
Cu95   O127    1.947   .     S
Cu95   O131    1.956   .     S
Cu95   N122    2.016   .     S
Cu95   O123    1.957   .     S
Cu95   O128    1.966   .     S
Cu96   O130    1.956   .     S
Cu96   O125    1.957   .     S
Cu96   O129    1.966   .     S
Cu96   N121    2.016   .     S
Cu96   O126    1.947   .     S
H98    N914    1.029   1_554 S
H101   C215    1.112   .     S
H105   C216    1.111   .     S
H107   C217    1.115   .     S
H111   C219    1.111   .     S
H120   N517    1.029   .     S
N121   H912    1.029   1_554 S
N121   N914    1.292   1_554 S
N122   N517    1.292   .     S
N122   H494    1.029   .     S
O124   C355    1.390   1_545 S
O132   C222    1.394   .     S
C133   O189    1.289   .     A
C133   C156    1.433   .     S
C133   O192    1.284   .     A
C134   C136    1.403   .     A
C134   H174    1.085   .     S
C134   C145    1.390   .     A
C135   C137    1.400   .     A
C135   C160    1.403   .     A
C135   C159    1.454   .     S
C136   C158    1.455   .     S
C136   C138    1.401   .     A
C137   H180    1.085   .     S
C137   C139    1.392   .     A
C138   H181    1.085   .     S
C138   C140    1.393   .     A
C139   C146    1.400   .     A
C139   C141    1.412   .     A
C140   C147    1.401   .     A
C140   C142    1.413   .     A
C141   C143    1.409   .     A
C141   C208    1.400   .     S
C142   C145    1.410   .     A
C142   C207    1.400   1_455 S
C143   C160    1.390   .     A
C143   C155    1.402   .     A
C144   C157    1.427   .     S
C144   O193    1.286   .     A
C144   O191    1.283   .     A
C145   C154    1.402   .     A
C146   H182    1.082   .     S
C146   C220    1.393   .     S
C147   H183    1.084   .     S
C147   C221    1.394   1_455 S
C148   H165    1.111   .     S
C148   H166    1.116   .     S
C148   O198    1.416   .     S
C148   C281    1.531   .     S
C149   H168    1.111   .     S
C149   C942    1.525   1_554 S
C150   H169    1.110   .     S
C150   H170    1.110   .     S
C150   C545    1.525   .     S
C151   C152    1.529   .     S
C151   O190    1.414   .     S
C151   H172    1.117   .     S
C152   H175    1.111   .     S
C152   C153    1.528   .     S
C152   H176    1.112   .     S
C153   H178    1.109   .     S
C153   H179    1.111   .     S
C154   H184    1.084   .     S
C154   C212    1.393   1_455 S
C155   H185    1.084   .     S
C155   C213    1.394   .     S
C157   C288    1.341   .     S
C157   O322    1.390   .     S
C158   O194    1.297   .     A
C158   O196    1.291   .     A
C159   O197    1.291   .     A
C159   O195    1.298   .     A
C160   H163    1.085   .     S
Cu161  Cu162   2.683   .     S
Cu161  O193    1.947   .     S
Cu161  O197    1.956   .     S
Cu161  N188    2.016   .     S
Cu161  O189    1.957   .     S
Cu161  O194    1.966   .     S
Cu162  O196    1.956   .     S
Cu162  O191    1.957   .     S
Cu162  O195    1.966   .     S
Cu162  N187    2.016   .     S
Cu162  O192    1.947   .     S
H164   N980    1.029   1_554 S
H167   C281    1.112   .     S
H171   C282    1.111   .     S
H173   C283    1.115   .     S
H177   C285    1.111   .     S
H186   N583    1.029   .     S
N187   H978    1.029   1_554 S
N187   N980    1.292   1_554 S
N188   N583    1.292   .     S
N188   H560    1.029   .     S
O198   C288    1.394   .     S
C199   O255    1.289   .     A
C199   C222    1.433   .     S
C199   O258    1.284   .     A
C200   C202    1.403   .     A
C200   H240    1.085   .     S
C200   C211    1.390   .     A
C201   C203    1.400   .     A
C201   C226    1.403   .     A
C201   C225    1.454   .     S
C202   C224    1.455   .     S
C202   C204    1.401   .     A
C203   H246    1.085   .     S
C203   C205    1.392   .     A
C204   H247    1.085   .     S
C204   C206    1.393   .     A
C205   C212    1.400   .     A
C205   C207    1.412   .     A
C206   C213    1.401   .     A
C206   C208    1.413   .     A
C207   C209    1.409   .     A
C207   C142    1.400   1_655 S
C208   C211    1.410   .     A
C209   C226    1.390   .     A
C209   C221    1.402   .     A
C210   C223    1.427   .     S
C210   O259    1.286   .     A
C210   O257    1.283   .     A
C211   C220    1.402   .     A
C212   H248    1.082   .     S
C212   C154    1.393   1_655 S
C213   H249    1.084   .     S
C214   H231    1.111   .     S
C214   H232    1.116   .     S
C214   O264    1.416   .     S
C214   C347    1.531   .     S
C215   H234    1.111   .     S
C215   C1008   1.525   1_554 S
C216   H235    1.110   .     S
C216   H236    1.110   .     S
C216   C611    1.525   .     S
C217   C218    1.529   .     S
C217   O256    1.414   .     S
C217   H238    1.117   .     S
C218   H241    1.111   .     S
C218   C219    1.528   .     S
C218   H242    1.112   .     S
C219   H244    1.109   .     S
C219   H245    1.111   .     S
C220   H250    1.084   .     S
C221   H251    1.084   .     S
C221   C147    1.394   1_655 S
C223   C354    1.341   .     S
C223   O388    1.390   .     S
C224   O260    1.297   .     A
C224   O262    1.291   .     A
C225   O263    1.291   .     A
C225   O261    1.298   .     A
C226   H229    1.085   .     S
Cu227  Cu228   2.683   .     S
Cu227  O259    1.947   .     S
Cu227  O263    1.956   .     S
Cu227  N254    2.016   .     S
Cu227  O255    1.957   .     S
Cu227  O260    1.966   .     S
Cu228  O262    1.956   .     S
Cu228  O257    1.957   .     S
Cu228  O261    1.966   .     S
Cu228  N253    2.016   .     S
Cu228  O258    1.947   .     S
H230   N1046   1.029   1_554 S
H233   C347    1.112   .     S
H237   C348    1.111   .     S
H239   C349    1.115   .     S
H243   C351    1.111   .     S
H252   N649    1.029   .     S
N253   H1044   1.029   1_554 S
N253   N1046   1.292   1_554 S
N254   N649    1.292   .     S
N254   H626    1.029   .     S
O264   C354    1.394   .     S
C265   O321    1.289   .     A
C265   C288    1.433   .     S
C265   O324    1.284   .     A
C266   C268    1.403   .     A
C266   H306    1.085   .     S
C266   C277    1.390   .     A
C267   C269    1.400   .     A
C267   C292    1.403   .     A
C267   C291    1.454   .     S
C268   C290    1.455   .     S
C268   C270    1.401   .     A
C269   H312    1.085   .     S
C269   C271    1.392   .     A
C270   H313    1.085   .     S
C270   C272    1.393   .     A
C271   C278    1.400   .     A
C271   C273    1.412   .     A
C272   C279    1.401   .     A
C272   C274    1.413   .     A
C273   C275    1.409   .     A
C273   C340    1.400   .     S
C274   C277    1.410   .     A
C274   C339    1.400   1_455 S
C275   C292    1.390   .     A
C275   C287    1.402   .     A
C276   C289    1.427   .     S
C276   O325    1.286   .     A
C276   O323    1.283   .     A
C277   C286    1.402   .     A
C278   H314    1.082   .     S
C278   C352    1.393   .     S
C279   H315    1.084   .     S
C279   C353    1.394   1_455 S
C280   H297    1.111   .     S
C280   H298    1.116   .     S
C280   O330    1.416   .     S
C280   C17     1.531   1_565 S
C281   H300    1.111   .     S
C281   C1074   1.525   1_554 S
C282   H301    1.110   .     S
C282   H302    1.110   .     S
C282   C677    1.525   .     S
C283   C284    1.529   .     S
C283   O322    1.414   .     S
C283   H304    1.117   .     S
C284   H307    1.111   .     S
C284   C285    1.528   .     S
C284   H308    1.112   .     S
C285   H310    1.109   .     S
C285   H311    1.111   .     S
C286   H316    1.084   .     S
C286   C344    1.393   1_455 S
C287   H317    1.084   .     S
C287   C345    1.394   .     S
C289   C24     1.341   1_565 S
C289   O58     1.390   1_565 S
C290   O326    1.297   .     A
C290   O328    1.291   .     A
C291   O329    1.291   .     A
C291   O327    1.298   .     A
C292   H295    1.085   .     S
Cu293  Cu294   2.683   .     S
Cu293  O325    1.947   .     S
Cu293  O329    1.956   .     S
Cu293  N320    2.016   .     S
Cu293  O321    1.957   .     S
Cu293  O326    1.966   .     S
Cu294  O328    1.956   .     S
Cu294  O323    1.957   .     S
Cu294  O327    1.966   .     S
Cu294  N319    2.016   .     S
Cu294  O324    1.947   .     S
H296   N1112   1.029   1_554 S
H299   C17     1.112   1_565 S
H303   C18     1.111   1_565 S
H305   C19     1.115   1_565 S
H309   C21     1.111   1_565 S
H318   N715    1.029   .     S
N319   H1110   1.029   1_554 S
N319   N1112   1.292   1_554 S
N320   N715    1.292   .     S
N320   H692    1.029   .     S
O330   C24     1.394   1_565 S
C331   O387    1.289   .     A
C331   C354    1.433   .     S
C331   O390    1.284   .     A
C332   C334    1.403   .     A
C332   H372    1.085   .     S
C332   C343    1.390   .     A
C333   C335    1.400   .     A
C333   C358    1.403   .     A
C333   C357    1.454   .     S
C334   C356    1.455   .     S
C334   C336    1.401   .     A
C335   H378    1.085   .     S
C335   C337    1.392   .     A
C336   H379    1.085   .     S
C336   C338    1.393   .     A
C337   C344    1.400   .     A
C337   C339    1.412   .     A
C338   C345    1.401   .     A
C338   C340    1.413   .     A
C339   C341    1.409   .     A
C339   C274    1.400   1_655 S
C340   C343    1.410   .     A
C341   C358    1.390   .     A
C341   C353    1.402   .     A
C342   C355    1.427   .     S
C342   O391    1.286   .     A
C342   O389    1.283   .     A
C343   C352    1.402   .     A
C344   H380    1.082   .     S
C344   C286    1.393   1_655 S
C345   H381    1.084   .     S
C346   H363    1.111   .     S
C346   H364    1.116   .     S
C346   O396    1.416   .     S
C346   C83     1.531   1_565 S
C347   H366    1.111   .     S
C347   C1140   1.525   1_554 S
C348   H367    1.110   .     S
C348   H368    1.110   .     S
C348   C743    1.525   .     S
C349   C350    1.529   .     S
C349   O388    1.414   .     S
C349   H370    1.117   .     S
C350   H373    1.111   .     S
C350   C351    1.528   .     S
C350   H374    1.112   .     S
C351   H376    1.109   .     S
C351   H377    1.111   .     S
C352   H382    1.084   .     S
C353   H383    1.084   .     S
C353   C279    1.394   1_655 S
C355   C90     1.341   1_565 S
C355   O124    1.390   1_565 S
C356   O392    1.297   .     A
C356   O394    1.291   .     A
C357   O395    1.291   .     A
C357   O393    1.298   .     A
C358   H361    1.085   .     S
Cu359  Cu360   2.683   .     S
Cu359  O391    1.947   .     S
Cu359  O395    1.956   .     S
Cu359  N386    2.016   .     S
Cu359  O387    1.957   .     S
Cu359  O392    1.966   .     S
Cu360  O394    1.956   .     S
Cu360  O389    1.957   .     S
Cu360  O393    1.966   .     S
Cu360  N385    2.016   .     S
Cu360  O390    1.947   .     S
H362   N1178   1.029   1_554 S
H365   C83     1.112   1_565 S
H369   C84     1.111   1_565 S
H371   C85     1.115   1_565 S
H375   C87     1.111   1_565 S
H384   N781    1.029   .     S
N385   H1176   1.029   1_554 S
N385   N1178   1.292   1_554 S
N386   N781    1.292   .     S
N386   H758    1.029   .     S
O396   C90     1.394   1_565 S
C397   O453    1.289   .     A
C397   C420    1.433   .     S
C397   O456    1.284   .     A
C398   C400    1.403   .     A
C398   H438    1.085   .     S
C398   C409    1.390   .     A
C399   C401    1.400   .     A
C399   C424    1.403   .     A
C399   C423    1.454   .     S
C400   C422    1.455   .     S
C400   C402    1.401   .     A
C401   H444    1.085   .     S
C401   C403    1.392   .     A
C402   H445    1.085   .     S
C402   C404    1.393   .     A
C403   C410    1.400   .     A
C403   C405    1.412   .     A
C404   C411    1.401   .     A
C404   C406    1.413   .     A
C405   C407    1.409   .     A
C405   C472    1.400   .     S
C406   C409    1.410   .     A
C406   C471    1.400   1_455 S
C407   C424    1.390   .     A
C407   C419    1.402   .     A
C408   C421    1.427   .     S
C408   O457    1.286   .     A
C408   O455    1.283   .     A
C409   C418    1.402   .     A
C410   H446    1.082   .     S
C410   C484    1.393   .     S
C411   H447    1.084   .     S
C411   C485    1.394   1_455 S
C412   H429    1.111   .     S
C412   H430    1.116   .     S
C412   O462    1.416   .     S
C412   C545    1.531   .     S
C413   H432    1.111   .     S
C413   C676    1.531   1_545 S
C413   H695    1.112   1_545 S
C414   H433    1.110   .     S
C414   H434    1.110   .     S
C414   C809    1.525   .     S
C414   H699    1.111   1_545 S
C415   C416    1.529   .     S
C415   O454    1.414   .     S
C415   H436    1.117   .     S
C415   H701    1.115   1_545 S
C416   H439    1.111   .     S
C416   C417    1.528   .     S
C416   H440    1.112   .     S
C417   H442    1.109   .     S
C417   H443    1.111   .     S
C417   H705    1.111   1_545 S
C418   H448    1.084   .     S
C418   C476    1.393   1_455 S
C419   H449    1.084   .     S
C419   C477    1.394   .     S
C420   C685    1.341   1_545 S
C420   O726    1.394   1_545 S
C421   C552    1.341   .     S
C421   O586    1.390   .     S
C422   O458    1.297   .     A
C422   O460    1.291   .     A
C423   O461    1.291   .     A
C423   O459    1.298   .     A
C424   H427    1.085   .     S
Cu425  Cu426   2.683   .     S
Cu425  O457    1.947   .     S
Cu425  O461    1.956   .     S
Cu425  N452    2.016   .     S
Cu425  O453    1.957   .     S
Cu425  O458    1.966   .     S
Cu426  O460    1.956   .     S
Cu426  O455    1.957   .     S
Cu426  O459    1.966   .     S
Cu426  N451    2.016   .     S
Cu426  O456    1.947   .     S
H431   C545    1.112   .     S
H435   C546    1.111   .     S
H437   C547    1.115   .     S
H441   C549    1.111   .     S
H450   N847    1.029   .     S
N452   N847    1.292   .     S
N452   H824    1.029   .     S
O454   C685    1.390   1_545 S
O462   C552    1.394   .     S
C463   O519    1.289   .     A
C463   C486    1.433   .     S
C463   O522    1.284   .     A
C464   C466    1.403   .     A
C464   H504    1.085   .     S
C464   C475    1.390   .     A
C465   C467    1.400   .     A
C465   C490    1.403   .     A
C465   C489    1.454   .     S
C466   C488    1.455   .     S
C466   C468    1.401   .     A
C467   H510    1.085   .     S
C467   C469    1.392   .     A
C468   H511    1.085   .     S
C468   C470    1.393   .     A
C469   C476    1.400   .     A
C469   C471    1.412   .     A
C470   C477    1.401   .     A
C470   C472    1.413   .     A
C471   C473    1.409   .     A
C471   C406    1.400   1_655 S
C472   C475    1.410   .     A
C473   C490    1.390   .     A
C473   C485    1.402   .     A
C474   C487    1.427   .     S
C474   O523    1.286   .     A
C474   O521    1.283   .     A
C475   C484    1.402   .     A
C476   H512    1.082   .     S
C476   C418    1.393   1_655 S
C477   H513    1.084   .     S
C478   H495    1.111   .     S
C478   H496    1.116   .     S
C478   O528    1.416   .     S
C478   C611    1.531   .     S
C479   H498    1.111   .     S
C479   C742    1.531   1_545 S
C479   H761    1.112   1_545 S
C480   H499    1.110   .     S
C480   H500    1.110   .     S
C480   C875    1.525   .     S
C480   H765    1.111   1_545 S
C481   C482    1.529   .     S
C481   O520    1.414   .     S
C481   H502    1.117   .     S
C481   H767    1.115   1_545 S
C482   H505    1.111   .     S
C482   C483    1.528   .     S
C482   H506    1.112   .     S
C483   H508    1.109   .     S
C483   H509    1.111   .     S
C483   H771    1.111   1_545 S
C484   H514    1.084   .     S
C485   H515    1.084   .     S
C485   C411    1.394   1_655 S
C486   C751    1.341   1_545 S
C486   O792    1.394   1_545 S
C487   C618    1.341   .     S
C487   O652    1.390   .     S
C488   O524    1.297   .     A
C488   O526    1.291   .     A
C489   O527    1.291   .     A
C489   O525    1.298   .     A
C490   H493    1.085   .     S
Cu491  Cu492   2.683   .     S
Cu491  O523    1.947   .     S
Cu491  O527    1.956   .     S
Cu491  N518    2.016   .     S
Cu491  O519    1.957   .     S
Cu491  O524    1.966   .     S
Cu492  O526    1.956   .     S
Cu492  O521    1.957   .     S
Cu492  O525    1.966   .     S
Cu492  N517    2.016   .     S
Cu492  O522    1.947   .     S
H497   C611    1.112   .     S
H501   C612    1.111   .     S
H503   C613    1.115   .     S
H507   C615    1.111   .     S
H516   N913    1.029   .     S
N518   N913    1.292   .     S
N518   H890    1.029   .     S
O520   C751    1.390   1_545 S
O528   C618    1.394   .     S
C529   O585    1.289   .     A
C529   C552    1.433   .     S
C529   O588    1.284   .     A
C530   C532    1.403   .     A
C530   H570    1.085   .     S
C530   C541    1.390   .     A
C531   C533    1.400   .     A
C531   C556    1.403   .     A
C531   C555    1.454   .     S
C532   C554    1.455   .     S
C532   C534    1.401   .     A
C533   H576    1.085   .     S
C533   C535    1.392   .     A
C534   H577    1.085   .     S
C534   C536    1.393   .     A
C535   C542    1.400   .     A
C535   C537    1.412   .     A
C536   C543    1.401   .     A
C536   C538    1.413   .     A
C537   C539    1.409   .     A
C537   C604    1.400   .     S
C538   C541    1.410   .     A
C538   C603    1.400   1_455 S
C539   C556    1.390   .     A
C539   C551    1.402   .     A
C540   C553    1.427   .     S
C540   O589    1.286   .     A
C540   O587    1.283   .     A
C541   C550    1.402   .     A
C542   H578    1.082   .     S
C542   C616    1.393   .     S
C543   H579    1.084   .     S
C543   C617    1.394   1_455 S
C544   H561    1.111   .     S
C544   H562    1.116   .     S
C544   O594    1.416   .     S
C544   C677    1.531   .     S
C545   H564    1.111   .     S
C546   H565    1.110   .     S
C546   H566    1.110   .     S
C546   C941    1.525   .     S
C547   C548    1.529   .     S
C547   O586    1.414   .     S
C547   H568    1.117   .     S
C548   H571    1.111   .     S
C548   C549    1.528   .     S
C548   H572    1.112   .     S
C549   H574    1.109   .     S
C549   H575    1.111   .     S
C550   H580    1.084   .     S
C550   C608    1.393   1_455 S
C551   H581    1.084   .     S
C551   C609    1.394   .     S
C553   C684    1.341   .     S
C553   O718    1.390   .     S
C554   O590    1.297   .     A
C554   O592    1.291   .     A
C555   O593    1.291   .     A
C555   O591    1.298   .     A
C556   H559    1.085   .     S
Cu557  Cu558   2.683   .     S
Cu557  O589    1.947   .     S
Cu557  O593    1.956   .     S
Cu557  N584    2.016   .     S
Cu557  O585    1.957   .     S
Cu557  O590    1.966   .     S
Cu558  O592    1.956   .     S
Cu558  O587    1.957   .     S
Cu558  O591    1.966   .     S
Cu558  N583    2.016   .     S
Cu558  O588    1.947   .     S
H563   C677    1.112   .     S
H567   C678    1.111   .     S
H569   C679    1.115   .     S
H573   C681    1.111   .     S
H582   N979    1.029   .     S
N584   N979    1.292   .     S
N584   H956    1.029   .     S
O594   C684    1.394   .     S
C595   O651    1.289   .     A
C595   C618    1.433   .     S
C595   O654    1.284   .     A
C596   C598    1.403   .     A
C596   H636    1.085   .     S
C596   C607    1.390   .     A
C597   C599    1.400   .     A
C597   C622    1.403   .     A
C597   C621    1.454   .     S
C598   C620    1.455   .     S
C598   C600    1.401   .     A
C599   H642    1.085   .     S
C599   C601    1.392   .     A
C600   H643    1.085   .     S
C600   C602    1.393   .     A
C601   C608    1.400   .     A
C601   C603    1.412   .     A
C602   C609    1.401   .     A
C602   C604    1.413   .     A
C603   C605    1.409   .     A
C603   C538    1.400   1_655 S
C604   C607    1.410   .     A
C605   C622    1.390   .     A
C605   C617    1.402   .     A
C606   C619    1.427   .     S
C606   O655    1.286   .     A
C606   O653    1.283   .     A
C607   C616    1.402   .     A
C608   H644    1.082   .     S
C608   C550    1.393   1_655 S
C609   H645    1.084   .     S
C610   H627    1.111   .     S
C610   H628    1.116   .     S
C610   O660    1.416   .     S
C610   C743    1.531   .     S
C611   H630    1.111   .     S
C612   H631    1.110   .     S
C612   H632    1.110   .     S
C612   C1007   1.525   .     S
C613   C614    1.529   .     S
C613   O652    1.414   .     S
C613   H634    1.117   .     S
C614   H637    1.111   .     S
C614   C615    1.528   .     S
C614   H638    1.112   .     S
C615   H640    1.109   .     S
C615   H641    1.111   .     S
C616   H646    1.084   .     S
C617   H647    1.084   .     S
C617   C543    1.394   1_655 S
C619   C750    1.341   .     S
C619   O784    1.390   .     S
C620   O656    1.297   .     A
C620   O658    1.291   .     A
C621   O659    1.291   .     A
C621   O657    1.298   .     A
C622   H625    1.085   .     S
Cu623  Cu624   2.683   .     S
Cu623  O655    1.947   .     S
Cu623  O659    1.956   .     S
Cu623  N650    2.016   .     S
Cu623  O651    1.957   .     S
Cu623  O656    1.966   .     S
Cu624  O658    1.956   .     S
Cu624  O653    1.957   .     S
Cu624  O657    1.966   .     S
Cu624  N649    2.016   .     S
Cu624  O654    1.947   .     S
H629   C743    1.112   .     S
H633   C744    1.111   .     S
H635   C745    1.115   .     S
H639   C747    1.111   .     S
H648   N1045   1.029   .     S
N650   N1045   1.292   .     S
N650   H1022   1.029   .     S
O660   C750    1.394   .     S
C661   O717    1.289   .     A
C661   C684    1.433   .     S
C661   O720    1.284   .     A
C662   C664    1.403   .     A
C662   H702    1.085   .     S
C662   C673    1.390   .     A
C663   C665    1.400   .     A
C663   C688    1.403   .     A
C663   C687    1.454   .     S
C664   C686    1.455   .     S
C664   C666    1.401   .     A
C665   H708    1.085   .     S
C665   C667    1.392   .     A
C666   H709    1.085   .     S
C666   C668    1.393   .     A
C667   C674    1.400   .     A
C667   C669    1.412   .     A
C668   C675    1.401   .     A
C668   C670    1.413   .     A
C669   C671    1.409   .     A
C669   C736    1.400   .     S
C670   C673    1.410   .     A
C670   C735    1.400   1_455 S
C671   C688    1.390   .     A
C671   C683    1.402   .     A
C672   C685    1.427   .     S
C672   O721    1.286   .     A
C672   O719    1.283   .     A
C673   C682    1.402   .     A
C674   H710    1.082   .     S
C674   C748    1.393   .     S
C675   H711    1.084   .     S
C675   C749    1.394   1_455 S
C676   H693    1.111   .     S
C676   H694    1.116   .     S
C676   O726    1.416   .     S
C676   C413    1.531   1_565 S
C677   H696    1.111   .     S
C678   H697    1.110   .     S
C678   H698    1.110   .     S
C678   C1073   1.525   .     S
C679   C680    1.529   .     S
C679   O718    1.414   .     S
C679   H700    1.117   .     S
C680   H703    1.111   .     S
C680   C681    1.528   .     S
C680   H704    1.112   .     S
C681   H706    1.109   .     S
C681   H707    1.111   .     S
C682   H712    1.084   .     S
C682   C740    1.393   1_455 S
C683   H713    1.084   .     S
C683   C741    1.394   .     S
C685   C420    1.341   1_565 S
C685   O454    1.390   1_565 S
C686   O722    1.297   .     A
C686   O724    1.291   .     A
C687   O725    1.291   .     A
C687   O723    1.298   .     A
C688   H691    1.085   .     S
Cu689  Cu690   2.683   .     S
Cu689  O721    1.947   .     S
Cu689  O725    1.956   .     S
Cu689  N716    2.016   .     S
Cu689  O717    1.957   .     S
Cu689  O722    1.966   .     S
Cu690  O724    1.956   .     S
Cu690  O719    1.957   .     S
Cu690  O723    1.966   .     S
Cu690  N715    2.016   .     S
Cu690  O720    1.947   .     S
H695   C413    1.112   1_565 S
H699   C414    1.111   1_565 S
H701   C415    1.115   1_565 S
H705   C417    1.111   1_565 S
H714   N1111   1.029   .     S
N716   N1111   1.292   .     S
N716   H1088   1.029   .     S
O726   C420    1.394   1_565 S
C727   O783    1.289   .     A
C727   C750    1.433   .     S
C727   O786    1.284   .     A
C728   C730    1.403   .     A
C728   H768    1.085   .     S
C728   C739    1.390   .     A
C729   C731    1.400   .     A
C729   C754    1.403   .     A
C729   C753    1.454   .     S
C730   C752    1.455   .     S
C730   C732    1.401   .     A
C731   H774    1.085   .     S
C731   C733    1.392   .     A
C732   H775    1.085   .     S
C732   C734    1.393   .     A
C733   C740    1.400   .     A
C733   C735    1.412   .     A
C734   C741    1.401   .     A
C734   C736    1.413   .     A
C735   C737    1.409   .     A
C735   C670    1.400   1_655 S
C736   C739    1.410   .     A
C737   C754    1.390   .     A
C737   C749    1.402   .     A
C738   C751    1.427   .     S
C738   O787    1.286   .     A
C738   O785    1.283   .     A
C739   C748    1.402   .     A
C740   H776    1.082   .     S
C740   C682    1.393   1_655 S
C741   H777    1.084   .     S
C742   H759    1.111   .     S
C742   H760    1.116   .     S
C742   O792    1.416   .     S
C742   C479    1.531   1_565 S
C743   H762    1.111   .     S
C744   H763    1.110   .     S
C744   H764    1.110   .     S
C744   C1139   1.525   .     S
C745   C746    1.529   .     S
C745   O784    1.414   .     S
C745   H766    1.117   .     S
C746   H769    1.111   .     S
C746   C747    1.528   .     S
C746   H770    1.112   .     S
C747   H772    1.109   .     S
C747   H773    1.111   .     S
C748   H778    1.084   .     S
C749   H779    1.084   .     S
C749   C675    1.394   1_655 S
C751   C486    1.341   1_565 S
C751   O520    1.390   1_565 S
C752   O788    1.297   .     A
C752   O790    1.291   .     A
C753   O791    1.291   .     A
C753   O789    1.298   .     A
C754   H757    1.085   .     S
Cu755  Cu756   2.683   .     S
Cu755  O787    1.947   .     S
Cu755  O791    1.956   .     S
Cu755  N782    2.016   .     S
Cu755  O783    1.957   .     S
Cu755  O788    1.966   .     S
Cu756  O790    1.956   .     S
Cu756  O785    1.957   .     S
Cu756  O789    1.966   .     S
Cu756  N781    2.016   .     S
Cu756  O786    1.947   .     S
H761   C479    1.112   1_565 S
H765   C480    1.111   1_565 S
H767   C481    1.115   1_565 S
H771   C483    1.111   1_565 S
H780   N1177   1.029   .     S
N782   N1177   1.292   .     S
N782   H1154   1.029   .     S
O792   C486    1.394   1_565 S
C793   O849    1.289   .     A
C793   C816    1.433   .     S
C793   O852    1.284   .     A
C794   C796    1.403   .     A
C794   H834    1.085   .     S
C794   C805    1.390   .     A
C795   C797    1.400   .     A
C795   C820    1.403   .     A
C795   C819    1.454   .     S
C796   C818    1.455   .     S
C796   C798    1.401   .     A
C797   H840    1.085   .     S
C797   C799    1.392   .     A
C798   H841    1.085   .     S
C798   C800    1.393   .     A
C799   C806    1.400   .     A
C799   C801    1.412   .     A
C800   C807    1.401   .     A
C800   C802    1.413   .     A
C801   C803    1.409   .     A
C801   C868    1.400   .     S
C802   C805    1.410   .     A
C802   C867    1.400   1_455 S
C803   C820    1.390   .     A
C803   C815    1.402   .     A
C804   C817    1.427   .     S
C804   O853    1.286   .     A
C804   O851    1.283   .     A
C805   C814    1.402   .     A
C806   H842    1.082   .     S
C806   C880    1.393   .     S
C807   H843    1.084   .     S
C807   C881    1.394   1_455 S
C808   H825    1.111   .     S
C808   H826    1.116   .     S
C808   O858    1.416   .     S
C808   C941    1.531   .     S
C809   H828    1.111   .     S
C809   C1072   1.531   1_545 S
C809   H1091   1.112   1_545 S
C810   H829    1.110   .     S
C810   H830    1.110   .     S
C810   C17     1.525   1_556 S
C810   H1095   1.111   1_545 S
C811   C812    1.529   .     S
C811   O850    1.414   .     S
C811   H832    1.117   .     S
C811   H1097   1.115   1_545 S
C812   H835    1.111   .     S
C812   C813    1.528   .     S
C812   H836    1.112   .     S
C813   H838    1.109   .     S
C813   H839    1.111   .     S
C813   H1101   1.111   1_545 S
C814   H844    1.084   .     S
C814   C872    1.393   1_455 S
C815   H845    1.084   .     S
C815   C873    1.394   .     S
C816   C1081   1.341   1_545 S
C816   O1122   1.394   1_545 S
C817   C948    1.341   .     S
C817   O982    1.390   .     S
C818   O854    1.297   .     A
C818   O856    1.291   .     A
C819   O857    1.291   .     A
C819   O855    1.298   .     A
C820   H823    1.085   .     S
Cu821  Cu822   2.683   .     S
Cu821  O853    1.947   .     S
Cu821  O857    1.956   .     S
Cu821  N848    2.016   .     S
Cu821  O849    1.957   .     S
Cu821  O854    1.966   .     S
Cu822  O856    1.956   .     S
Cu822  O851    1.957   .     S
Cu822  O855    1.966   .     S
Cu822  N847    2.016   .     S
Cu822  O852    1.947   .     S
H827   C941    1.112   .     S
H831   C942    1.111   .     S
H833   C943    1.115   .     S
H837   C945    1.111   .     S
H846   N55     1.029   1_556 S
N848   N55     1.292   1_556 S
N848   H32     1.029   1_556 S
O850   C1081   1.390   1_545 S
O858   C948    1.394   .     S
C859   O915    1.289   .     A
C859   C882    1.433   .     S
C859   O918    1.284   .     A
C860   C862    1.403   .     A
C860   H900    1.085   .     S
C860   C871    1.390   .     A
C861   C863    1.400   .     A
C861   C886    1.403   .     A
C861   C885    1.454   .     S
C862   C884    1.455   .     S
C862   C864    1.401   .     A
C863   H906    1.085   .     S
C863   C865    1.392   .     A
C864   H907    1.085   .     S
C864   C866    1.393   .     A
C865   C872    1.400   .     A
C865   C867    1.412   .     A
C866   C873    1.401   .     A
C866   C868    1.413   .     A
C867   C869    1.409   .     A
C867   C802    1.400   1_655 S
C868   C871    1.410   .     A
C869   C886    1.390   .     A
C869   C881    1.402   .     A
C870   C883    1.427   .     S
C870   O919    1.286   .     A
C870   O917    1.283   .     A
C871   C880    1.402   .     A
C872   H908    1.082   .     S
C872   C814    1.393   1_655 S
C873   H909    1.084   .     S
C874   H891    1.111   .     S
C874   H892    1.116   .     S
C874   O924    1.416   .     S
C874   C1007   1.531   .     S
C875   H894    1.111   .     S
C875   C1138   1.531   1_545 S
C875   H1157   1.112   1_545 S
C876   H895    1.110   .     S
C876   H896    1.110   .     S
C876   C83     1.525   1_556 S
C876   H1161   1.111   1_545 S
C877   C878    1.529   .     S
C877   O916    1.414   .     S
C877   H898    1.117   .     S
C877   H1163   1.115   1_545 S
C878   H901    1.111   .     S
C878   C879    1.528   .     S
C878   H902    1.112   .     S
C879   H904    1.109   .     S
C879   H905    1.111   .     S
C879   H1167   1.111   1_545 S
C880   H910    1.084   .     S
C881   H911    1.084   .     S
C881   C807    1.394   1_655 S
C882   C1147   1.341   1_545 S
C882   O1188   1.394   1_545 S
C883   C1014   1.341   .     S
C883   O1048   1.390   .     S
C884   O920    1.297   .     A
C884   O922    1.291   .     A
C885   O923    1.291   .     A
C885   O921    1.298   .     A
C886   H889    1.085   .     S
Cu887  Cu888   2.683   .     S
Cu887  O919    1.947   .     S
Cu887  O923    1.956   .     S
Cu887  N914    2.016   .     S
Cu887  O915    1.957   .     S
Cu887  O920    1.966   .     S
Cu888  O922    1.956   .     S
Cu888  O917    1.957   .     S
Cu888  O921    1.966   .     S
Cu888  N913    2.016   .     S
Cu888  O918    1.947   .     S
H893   C1007   1.112   .     S
H897   C1008   1.111   .     S
H899   C1009   1.115   .     S
H903   C1011   1.111   .     S
H912   N121    1.029   1_556 S
N914   N121    1.292   1_556 S
N914   H98     1.029   1_556 S
O916   C1147   1.390   1_545 S
O924   C1014   1.394   .     S
C925   O981    1.289   .     A
C925   C948    1.433   .     S
C925   O984    1.284   .     A
C926   C928    1.403   .     A
C926   H966    1.085   .     S
C926   C937    1.390   .     A
C927   C929    1.400   .     A
C927   C952    1.403   .     A
C927   C951    1.454   .     S
C928   C950    1.455   .     S
C928   C930    1.401   .     A
C929   H972    1.085   .     S
C929   C931    1.392   .     A
C930   H973    1.085   .     S
C930   C932    1.393   .     A
C931   C938    1.400   .     A
C931   C933    1.412   .     A
C932   C939    1.401   .     A
C932   C934    1.413   .     A
C933   C935    1.409   .     A
C933   C1000   1.400   .     S
C934   C937    1.410   .     A
C934   C999    1.400   1_455 S
C935   C952    1.390   .     A
C935   C947    1.402   .     A
C936   C949    1.427   .     S
C936   O985    1.286   .     A
C936   O983    1.283   .     A
C937   C946    1.402   .     A
C938   H974    1.082   .     S
C938   C1012   1.393   .     S
C939   H975    1.084   .     S
C939   C1013   1.394   1_455 S
C940   H957    1.111   .     S
C940   H958    1.116   .     S
C940   O990    1.416   .     S
C940   C1073   1.531   .     S
C941   H960    1.111   .     S
C942   H961    1.110   .     S
C942   H962    1.110   .     S
C942   C149    1.525   1_556 S
C943   C944    1.529   .     S
C943   O982    1.414   .     S
C943   H964    1.117   .     S
C944   H967    1.111   .     S
C944   C945    1.528   .     S
C944   H968    1.112   .     S
C945   H970    1.109   .     S
C945   H971    1.111   .     S
C946   H976    1.084   .     S
C946   C1004   1.393   1_455 S
C947   H977    1.084   .     S
C947   C1005   1.394   .     S
C949   C1080   1.341   .     S
C949   O1114   1.390   .     S
C950   O986    1.297   .     A
C950   O988    1.291   .     A
C951   O989    1.291   .     A
C951   O987    1.298   .     A
C952   H955    1.085   .     S
Cu953  Cu954   2.683   .     S
Cu953  O985    1.947   .     S
Cu953  O989    1.956   .     S
Cu953  N980    2.016   .     S
Cu953  O981    1.957   .     S
Cu953  O986    1.966   .     S
Cu954  O988    1.956   .     S
Cu954  O983    1.957   .     S
Cu954  O987    1.966   .     S
Cu954  N979    2.016   .     S
Cu954  O984    1.947   .     S
H959   C1073   1.112   .     S
H963   C1074   1.111   .     S
H965   C1075   1.115   .     S
H969   C1077   1.111   .     S
H978   N187    1.029   1_556 S
N980   N187    1.292   1_556 S
N980   H164    1.029   1_556 S
O990   C1080   1.394   .     S
C991   O1047   1.289   .     A
C991   C1014   1.433   .     S
C991   O1050   1.284   .     A
C992   C994    1.403   .     A
C992   H1032   1.085   .     S
C992   C1003   1.390   .     A
C993   C995    1.400   .     A
C993   C1018   1.403   .     A
C993   C1017   1.454   .     S
C994   C1016   1.455   .     S
C994   C996    1.401   .     A
C995   H1038   1.085   .     S
C995   C997    1.392   .     A
C996   H1039   1.085   .     S
C996   C998    1.393   .     A
C997   C1004   1.400   .     A
C997   C999    1.412   .     A
C998   C1005   1.401   .     A
C998   C1000   1.413   .     A
C999   C1001   1.409   .     A
C999   C934    1.400   1_655 S
C1000  C1003   1.410   .     A
C1001  C1018   1.390   .     A
C1001  C1013   1.402   .     A
C1002  C1015   1.427   .     S
C1002  O1051   1.286   .     A
C1002  O1049   1.283   .     A
C1003  C1012   1.402   .     A
C1004  H1040   1.082   .     S
C1004  C946    1.393   1_655 S
C1005  H1041   1.084   .     S
C1006  H1023   1.111   .     S
C1006  H1024   1.116   .     S
C1006  O1056   1.416   .     S
C1006  C1139   1.531   .     S
C1007  H1026   1.111   .     S
C1008  H1027   1.110   .     S
C1008  H1028   1.110   .     S
C1008  C215    1.525   1_556 S
C1009  C1010   1.529   .     S
C1009  O1048   1.414   .     S
C1009  H1030   1.117   .     S
C1010  H1033   1.111   .     S
C1010  C1011   1.528   .     S
C1010  H1034   1.112   .     S
C1011  H1036   1.109   .     S
C1011  H1037   1.111   .     S
C1012  H1042   1.084   .     S
C1013  H1043   1.084   .     S
C1013  C939    1.394   1_655 S
C1015  C1146   1.341   .     S
C1015  O1180   1.390   .     S
C1016  O1052   1.297   .     A
C1016  O1054   1.291   .     A
C1017  O1055   1.291   .     A
C1017  O1053   1.298   .     A
C1018  H1021   1.085   .     S
Cu1019 Cu1020  2.683   .     S
Cu1019 O1051   1.947   .     S
Cu1019 O1055   1.956   .     S
Cu1019 N1046   2.016   .     S
Cu1019 O1047   1.957   .     S
Cu1019 O1052   1.966   .     S
Cu1020 O1054   1.956   .     S
Cu1020 O1049   1.957   .     S
Cu1020 O1053   1.966   .     S
Cu1020 N1045   2.016   .     S
Cu1020 O1050   1.947   .     S
H1025  C1139   1.112   .     S
H1029  C1140   1.111   .     S
H1031  C1141   1.115   .     S
H1035  C1143   1.111   .     S
H1044  N253    1.029   1_556 S
N1046  N253    1.292   1_556 S
N1046  H230    1.029   1_556 S
O1056  C1146   1.394   .     S
C1057  O1113   1.289   .     A
C1057  C1080   1.433   .     S
C1057  O1116   1.284   .     A
C1058  C1060   1.403   .     A
C1058  H1098   1.085   .     S
C1058  C1069   1.390   .     A
C1059  C1061   1.400   .     A
C1059  C1084   1.403   .     A
C1059  C1083   1.454   .     S
C1060  C1082   1.455   .     S
C1060  C1062   1.401   .     A
C1061  H1104   1.085   .     S
C1061  C1063   1.392   .     A
C1062  H1105   1.085   .     S
C1062  C1064   1.393   .     A
C1063  C1070   1.400   .     A
C1063  C1065   1.412   .     A
C1064  C1071   1.401   .     A
C1064  C1066   1.413   .     A
C1065  C1067   1.409   .     A
C1065  C1132   1.400   .     S
C1066  C1069   1.410   .     A
C1066  C1131   1.400   1_455 S
C1067  C1084   1.390   .     A
C1067  C1079   1.402   .     A
C1068  C1081   1.427   .     S
C1068  O1117   1.286   .     A
C1068  O1115   1.283   .     A
C1069  C1078   1.402   .     A
C1070  H1106   1.082   .     S
C1070  C1144   1.393   .     S
C1071  H1107   1.084   .     S
C1071  C1145   1.394   1_455 S
C1072  H1089   1.111   .     S
C1072  H1090   1.116   .     S
C1072  O1122   1.416   .     S
C1072  C809    1.531   1_565 S
C1073  H1092   1.111   .     S
C1074  H1093   1.110   .     S
C1074  H1094   1.110   .     S
C1074  C281    1.525   1_556 S
C1075  C1076   1.529   .     S
C1075  O1114   1.414   .     S
C1075  H1096   1.117   .     S
C1076  H1099   1.111   .     S
C1076  C1077   1.528   .     S
C1076  H1100   1.112   .     S
C1077  H1102   1.109   .     S
C1077  H1103   1.111   .     S
C1078  H1108   1.084   .     S
C1078  C1136   1.393   1_455 S
C1079  H1109   1.084   .     S
C1079  C1137   1.394   .     S
C1081  C816    1.341   1_565 S
C1081  O850    1.390   1_565 S
C1082  O1118   1.297   .     A
C1082  O1120   1.291   .     A
C1083  O1121   1.291   .     A
C1083  O1119   1.298   .     A
C1084  H1087   1.085   .     S
Cu1085 Cu1086  2.683   .     S
Cu1085 O1117   1.947   .     S
Cu1085 O1121   1.956   .     S
Cu1085 N1112   2.016   .     S
Cu1085 O1113   1.957   .     S
Cu1085 O1118   1.966   .     S
Cu1086 O1120   1.956   .     S
Cu1086 O1115   1.957   .     S
Cu1086 O1119   1.966   .     S
Cu1086 N1111   2.016   .     S
Cu1086 O1116   1.947   .     S
H1091  C809    1.112   1_565 S
H1095  C810    1.111   1_565 S
H1097  C811    1.115   1_565 S
H1101  C813    1.111   1_565 S
H1110  N319    1.029   1_556 S
N1112  N319    1.292   1_556 S
N1112  H296    1.029   1_556 S
O1122  C816    1.394   1_565 S
C1123  O1179   1.289   .     A
C1123  C1146   1.433   .     S
C1123  O1182   1.284   .     A
C1124  C1126   1.403   .     A
C1124  H1164   1.085   .     S
C1124  C1135   1.390   .     A
C1125  C1127   1.400   .     A
C1125  C1150   1.403   .     A
C1125  C1149   1.454   .     S
C1126  C1148   1.455   .     S
C1126  C1128   1.401   .     A
C1127  H1170   1.085   .     S
C1127  C1129   1.392   .     A
C1128  H1171   1.085   .     S
C1128  C1130   1.393   .     A
C1129  C1136   1.400   .     A
C1129  C1131   1.412   .     A
C1130  C1137   1.401   .     A
C1130  C1132   1.413   .     A
C1131  C1133   1.409   .     A
C1131  C1066   1.400   1_655 S
C1132  C1135   1.410   .     A
C1133  C1150   1.390   .     A
C1133  C1145   1.402   .     A
C1134  C1147   1.427   .     S
C1134  O1183   1.286   .     A
C1134  O1181   1.283   .     A
C1135  C1144   1.402   .     A
C1136  H1172   1.082   .     S
C1136  C1078   1.393   1_655 S
C1137  H1173   1.084   .     S
C1138  H1155   1.111   .     S
C1138  H1156   1.116   .     S
C1138  O1188   1.416   .     S
C1138  C875    1.531   1_565 S
C1139  H1158   1.111   .     S
C1140  H1159   1.110   .     S
C1140  H1160   1.110   .     S
C1140  C347    1.525   1_556 S
C1141  C1142   1.529   .     S
C1141  O1180   1.414   .     S
C1141  H1162   1.117   .     S
C1142  H1165   1.111   .     S
C1142  C1143   1.528   .     S
C1142  H1166   1.112   .     S
C1143  H1168   1.109   .     S
C1143  H1169   1.111   .     S
C1144  H1174   1.084   .     S
C1145  H1175   1.084   .     S
C1145  C1071   1.394   1_655 S
C1147  C882    1.341   1_565 S
C1147  O916    1.390   1_565 S
C1148  O1184   1.297   .     A
C1148  O1186   1.291   .     A
C1149  O1187   1.291   .     A
C1149  O1185   1.298   .     A
C1150  H1153   1.085   .     S
Cu1151 Cu1152  2.683   .     S
Cu1151 O1183   1.947   .     S
Cu1151 O1187   1.956   .     S
Cu1151 N1178   2.016   .     S
Cu1151 O1179   1.957   .     S
Cu1151 O1184   1.966   .     S
Cu1152 O1186   1.956   .     S
Cu1152 O1181   1.957   .     S
Cu1152 O1185   1.966   .     S
Cu1152 N1177   2.016   .     S
Cu1152 O1182   1.947   .     S
H1157  C875    1.112   1_565 S
H1161  C876    1.111   1_565 S
H1163  C877    1.115   1_565 S
H1167  C879    1.111   1_565 S
H1176  N385    1.029   1_556 S
N1178  N385    1.292   1_556 S
N1178  H362    1.029   1_556 S
O1188  C882    1.394   1_565 S
