data_str_m2_o1_o17_pcu_sym.12
_audit_creation_date              2020-01-03
_audit_creation_method            'Materials Studio'
_symmetry_space_group_name_H-M    'P1'
_symmetry_Int_Tables_number       1
_symmetry_cell_setting            triclinic
loop_
_symmetry_equiv_pos_as_xyz
  x,y,z
_cell_length_a                    32.3656
_cell_length_b                    28.5653
_cell_length_c                    30.1059
_cell_angle_alpha                 90.0818
_cell_angle_beta                  90.0373
_cell_angle_gamma                 90.2364
loop_
_atom_site_label
_atom_site_type_symbol
_atom_site_fract_x
_atom_site_fract_y
_atom_site_fract_z
_atom_site_U_iso_or_equiv
_atom_site_adp_type
_atom_site_occupancy
C1     C     0.08747   0.16653   0.25042   0.00000  Uiso   1.00
C2     C     0.04283   0.16602   0.25117   0.00000  Uiso   1.00
C3     C     0.14208   0.02465   0.22129   0.00000  Uiso   1.00
C4     C     0.19124   0.30868   0.27873   0.00000  Uiso   1.00
C5     C     0.19124   0.02495   0.27872   0.00000  Uiso   1.00
C6     C     0.14208   0.30838   0.22130   0.00000  Uiso   1.00
C7     C     0.16680   0.16659   0.16433   0.00000  Uiso   1.00
C8     C     0.16674   0.16668   0.33564   0.00000  Uiso   1.00
C9     C     0.18762   0.20249   0.40684   0.00000  Uiso   1.00
C10    C     0.15242   0.12749   0.09306   0.00000  Uiso   1.00
C11    C     0.16798   0.16633   0.38397   0.00000  Uiso   1.00
C12    C     0.24586   0.16680   0.24955   0.00000  Uiso   1.00
C13    C     0.16820   0.16599   0.11597   0.00000  Uiso   1.00
C14    C     0.15070   0.12879   0.40684   0.00000  Uiso   1.00
C15    C     0.18655   0.20288   0.09307   0.00000  Uiso   1.00
C16    C     0.15334   0.12615   0.45314   0.00000  Uiso   1.00
C17    C     0.19042   0.20129   0.04677   0.00000  Uiso   1.00
C18    C     0.17247   0.16350   0.47663   0.00000  Uiso   1.00
C19    C     0.17246   0.16324   0.02326   0.00000  Uiso   1.00
C20    C     0.19063   0.20169   0.45333   0.00000  Uiso   1.00
C21    C     0.15367   0.12551   0.04656   0.00000  Uiso   1.00
C22    C     0.13632   0.08751   0.47632   0.00000  Uiso   1.00
C23    C     0.13649   0.08696   0.02301   0.00000  Uiso   1.00
C24    C     0.21126   0.23743   0.02365   0.00000  Uiso   1.00
C25    C     0.11874   0.04427   0.04675   0.00000  Uiso   1.00
C26    C     0.07405   0.05251   0.06089   0.00000  Uiso   1.00
C27    C     0.23509   0.27672   0.45329   0.00000  Uiso   1.00
C28    C     0.20661   0.31709   0.44105   0.00000  Uiso   1.00
C29    C     0.21138   0.23789   0.47694   0.00000  Uiso   1.00
C30    C     0.02209   0.13998   0.21834   0.00000  Uiso   1.00
C31    C     0.31124   0.19335   0.28161   0.00000  Uiso   1.00
C32    C     0.31217   0.14110   0.21652   0.00000  Uiso   1.00
C33    C     0.02116   0.19224   0.28342   0.00000  Uiso   1.00
C34    C     0.29050   0.16731   0.24879   0.00000  Uiso   1.00
Cu35   Cu    0.16667   0.21355   0.25000   0.00000  Uiso   1.00
Cu36   Cu    0.16667   0.11978   0.25000   0.00000  Uiso   1.00
H37    H     0.20040   0.23093   0.38759   0.00000  Uiso   1.00
H38    H     0.24704   0.25939   0.07076   0.00000  Uiso   1.00
H39    H     0.07166   0.08324   0.08332   0.00000  Uiso   1.00
H40    H     0.05442   0.05857   0.03119   0.00000  Uiso   1.00
H41    H     0.06223   0.02119   0.07869   0.00000  Uiso   1.00
H42    H     0.11951   0.01275   0.02512   0.00000  Uiso   1.00
H43    H     0.13805   0.03440   0.07570   0.00000  Uiso   1.00
H44    H     0.18121   0.30486   0.41907   0.00000  Uiso   1.00
H45    H     0.19317   0.33259   0.47163   0.00000  Uiso   1.00
H46    H     0.22446   0.01128   0.42337   0.00000  Uiso   1.00
H47    H     0.26039   0.29072   0.47448   0.00000  Uiso   1.00
H48    H     0.13809   0.09999   0.11227   0.00000  Uiso   1.00
H49    H     0.25128   0.26327   0.42343   0.00000  Uiso   1.00
H50    H     0.02703   0.09797   0.16691   0.00000  Uiso   1.00
H51    H     0.30630   0.23533   0.33306   0.00000  Uiso   1.00
H52    H     0.26473   0.13095   0.17728   0.00000  Uiso   1.00
H53    H     0.06859   0.20239   0.32267   0.00000  Uiso   1.00
H54    H     0.13435   0.10246   0.38780   0.00000  Uiso   1.00
H55    H     0.19790   0.23253   0.11193   0.00000  Uiso   1.00
H56    H     0.12238   0.04322   0.19829   0.00000  Uiso   1.00
H57    H     0.21093   0.29012   0.30174   0.00000  Uiso   1.00
H58    H     0.21093   0.04375   0.30173   0.00000  Uiso   1.00
H59    H     0.12236   0.28958   0.19831   0.00000  Uiso   1.00
H60    H     0.13532   0.04208   0.42852   0.00000  Uiso   1.00
N61    N     0.16667   0.28402   0.25000   0.00000  Uiso   1.00
N62    N     0.16667   0.04931   0.25000   0.00000  Uiso   1.00
O63    O     0.10655   0.20625   0.25000   0.00000  Uiso   1.00
O64    O     0.23129   0.27328   0.04586   0.00000  Uiso   1.00
O65    O     0.04530   0.11552   0.18743   0.00000  Uiso   1.00
O66    O     0.28802   0.21780   0.31252   0.00000  Uiso   1.00
O67    O     0.29234   0.11727   0.18252   0.00000  Uiso   1.00
O68    O     0.04099   0.21608   0.31742   0.00000  Uiso   1.00
O69    O     0.22679   0.12709   0.25001   0.00000  Uiso   1.00
O70    O     0.22679   0.20625   0.25001   0.00000  Uiso   1.00
O71    O     0.10655   0.12709   0.25000   0.00000  Uiso   1.00
O72    O     0.16666   0.20627   0.18513   0.00000  Uiso   1.00
O73    O     0.16668   0.12707   0.31487   0.00000  Uiso   1.00
O74    O     0.16668   0.20627   0.31487   0.00000  Uiso   1.00
O75    O     0.16666   0.12707   0.18513   0.00000  Uiso   1.00
O76    O     0.11793   0.05039   0.45432   0.00000  Uiso   1.00
C77    C     0.42081   0.16653   0.25042   0.00000  Uiso   1.00
C78    C     0.37616   0.16602   0.25117   0.00000  Uiso   1.00
C79    C     0.47542   0.02465   0.22129   0.00000  Uiso   1.00
C80    C     0.52457   0.30868   0.27873   0.00000  Uiso   1.00
C81    C     0.52457   0.02495   0.27872   0.00000  Uiso   1.00
C82    C     0.47541   0.30838   0.22130   0.00000  Uiso   1.00
C83    C     0.50013   0.16659   0.16433   0.00000  Uiso   1.00
C84    C     0.50007   0.16668   0.33564   0.00000  Uiso   1.00
C85    C     0.52095   0.20249   0.40684   0.00000  Uiso   1.00
C86    C     0.48575   0.12749   0.09306   0.00000  Uiso   1.00
C87    C     0.50132   0.16633   0.38397   0.00000  Uiso   1.00
C88    C     0.57919   0.16680   0.24955   0.00000  Uiso   1.00
C89    C     0.50154   0.16599   0.11597   0.00000  Uiso   1.00
C90    C     0.48404   0.12879   0.40684   0.00000  Uiso   1.00
C91    C     0.51988   0.20288   0.09307   0.00000  Uiso   1.00
C92    C     0.48667   0.12615   0.45314   0.00000  Uiso   1.00
C93    C     0.52375   0.20129   0.04677   0.00000  Uiso   1.00
C94    C     0.50580   0.16350   0.47663   0.00000  Uiso   1.00
C95    C     0.50580   0.16324   0.02326   0.00000  Uiso   1.00
C96    C     0.52396   0.20169   0.45333   0.00000  Uiso   1.00
C97    C     0.48700   0.12551   0.04656   0.00000  Uiso   1.00
C98    C     0.46965   0.08751   0.47632   0.00000  Uiso   1.00
C99    C     0.46982   0.08696   0.02301   0.00000  Uiso   1.00
C100   C     0.54460   0.23743   0.02365   0.00000  Uiso   1.00
C101   C     0.45208   0.04427   0.04675   0.00000  Uiso   1.00
C102   C     0.40738   0.05251   0.06089   0.00000  Uiso   1.00
C103   C     0.56842   0.27672   0.45329   0.00000  Uiso   1.00
C104   C     0.53994   0.31709   0.44105   0.00000  Uiso   1.00
C105   C     0.54471   0.23789   0.47694   0.00000  Uiso   1.00
C106   C     0.35542   0.13998   0.21834   0.00000  Uiso   1.00
C107   C     0.64457   0.19335   0.28161   0.00000  Uiso   1.00
C108   C     0.64550   0.14110   0.21652   0.00000  Uiso   1.00
C109   C     0.35449   0.19224   0.28342   0.00000  Uiso   1.00
C110   C     0.62384   0.16731   0.24879   0.00000  Uiso   1.00
Cu111  Cu    0.50000   0.21355   0.25000   0.00000  Uiso   1.00
Cu112  Cu    0.50000   0.11978   0.25000   0.00000  Uiso   1.00
H113   H     0.53373   0.23093   0.38759   0.00000  Uiso   1.00
H114   H     0.58037   0.25939   0.07076   0.00000  Uiso   1.00
H115   H     0.40499   0.08324   0.08332   0.00000  Uiso   1.00
H116   H     0.38775   0.05857   0.03119   0.00000  Uiso   1.00
H117   H     0.39556   0.02119   0.07869   0.00000  Uiso   1.00
H118   H     0.45284   0.01275   0.02512   0.00000  Uiso   1.00
H119   H     0.47138   0.03440   0.07570   0.00000  Uiso   1.00
H120   H     0.51454   0.30486   0.41907   0.00000  Uiso   1.00
H121   H     0.52650   0.33259   0.47163   0.00000  Uiso   1.00
H122   H     0.55779   0.01128   0.42337   0.00000  Uiso   1.00
H123   H     0.59372   0.29072   0.47448   0.00000  Uiso   1.00
H124   H     0.47143   0.09999   0.11227   0.00000  Uiso   1.00
H125   H     0.58461   0.26327   0.42343   0.00000  Uiso   1.00
H126   H     0.36036   0.09797   0.16691   0.00000  Uiso   1.00
H127   H     0.63963   0.23533   0.33306   0.00000  Uiso   1.00
H128   H     0.59806   0.13095   0.17728   0.00000  Uiso   1.00
H129   H     0.40192   0.20239   0.32267   0.00000  Uiso   1.00
H130   H     0.46768   0.10246   0.38780   0.00000  Uiso   1.00
H131   H     0.53124   0.23253   0.11193   0.00000  Uiso   1.00
H132   H     0.45571   0.04322   0.19829   0.00000  Uiso   1.00
H133   H     0.54426   0.29012   0.30174   0.00000  Uiso   1.00
H134   H     0.54427   0.04375   0.30173   0.00000  Uiso   1.00
H135   H     0.45570   0.28958   0.19831   0.00000  Uiso   1.00
H136   H     0.46865   0.04208   0.42852   0.00000  Uiso   1.00
N137   N     0.50000   0.28402   0.25000   0.00000  Uiso   1.00
N138   N     0.50000   0.04931   0.25000   0.00000  Uiso   1.00
O139   O     0.43988   0.20625   0.25000   0.00000  Uiso   1.00
O140   O     0.56462   0.27328   0.04586   0.00000  Uiso   1.00
O141   O     0.37864   0.11552   0.18743   0.00000  Uiso   1.00
O142   O     0.62136   0.21780   0.31252   0.00000  Uiso   1.00
O143   O     0.62567   0.11727   0.18252   0.00000  Uiso   1.00
O144   O     0.37432   0.21608   0.31742   0.00000  Uiso   1.00
O145   O     0.56012   0.12709   0.25001   0.00000  Uiso   1.00
O146   O     0.56012   0.20625   0.25001   0.00000  Uiso   1.00
O147   O     0.43988   0.12709   0.25000   0.00000  Uiso   1.00
O148   O     0.49999   0.20627   0.18513   0.00000  Uiso   1.00
O149   O     0.50001   0.12707   0.31487   0.00000  Uiso   1.00
O150   O     0.50001   0.20627   0.31487   0.00000  Uiso   1.00
O151   O     0.49999   0.12707   0.18513   0.00000  Uiso   1.00
O152   O     0.45126   0.05039   0.45432   0.00000  Uiso   1.00
C153   C     0.75414   0.16653   0.25042   0.00000  Uiso   1.00
C154   C     0.70949   0.16602   0.25117   0.00000  Uiso   1.00
C155   C     0.80875   0.02465   0.22129   0.00000  Uiso   1.00
C156   C     0.85790   0.30868   0.27873   0.00000  Uiso   1.00
C157   C     0.85790   0.02495   0.27872   0.00000  Uiso   1.00
C158   C     0.80875   0.30838   0.22130   0.00000  Uiso   1.00
C159   C     0.83346   0.16659   0.16433   0.00000  Uiso   1.00
C160   C     0.83341   0.16668   0.33564   0.00000  Uiso   1.00
C161   C     0.85429   0.20249   0.40684   0.00000  Uiso   1.00
C162   C     0.81908   0.12749   0.09306   0.00000  Uiso   1.00
C163   C     0.83465   0.16633   0.38397   0.00000  Uiso   1.00
C164   C     0.91252   0.16680   0.24955   0.00000  Uiso   1.00
C165   C     0.83487   0.16599   0.11597   0.00000  Uiso   1.00
C166   C     0.81737   0.12879   0.40684   0.00000  Uiso   1.00
C167   C     0.85321   0.20288   0.09307   0.00000  Uiso   1.00
C168   C     0.82001   0.12615   0.45314   0.00000  Uiso   1.00
C169   C     0.85709   0.20129   0.04677   0.00000  Uiso   1.00
C170   C     0.83914   0.16350   0.47663   0.00000  Uiso   1.00
C171   C     0.83913   0.16324   0.02326   0.00000  Uiso   1.00
C172   C     0.85729   0.20169   0.45333   0.00000  Uiso   1.00
C173   C     0.82033   0.12551   0.04656   0.00000  Uiso   1.00
C174   C     0.80299   0.08751   0.47632   0.00000  Uiso   1.00
C175   C     0.80316   0.08696   0.02301   0.00000  Uiso   1.00
C176   C     0.87793   0.23743   0.02365   0.00000  Uiso   1.00
C177   C     0.78541   0.04427   0.04675   0.00000  Uiso   1.00
C178   C     0.74072   0.05251   0.06089   0.00000  Uiso   1.00
C179   C     0.90176   0.27672   0.45329   0.00000  Uiso   1.00
C180   C     0.87327   0.31709   0.44105   0.00000  Uiso   1.00
C181   C     0.87805   0.23789   0.47694   0.00000  Uiso   1.00
C182   C     0.68875   0.13998   0.21834   0.00000  Uiso   1.00
C183   C     0.97791   0.19335   0.28161   0.00000  Uiso   1.00
C184   C     0.97884   0.14110   0.21652   0.00000  Uiso   1.00
C185   C     0.68782   0.19224   0.28342   0.00000  Uiso   1.00
C186   C     0.95717   0.16731   0.24879   0.00000  Uiso   1.00
Cu187  Cu    0.83333   0.21355   0.25000   0.00000  Uiso   1.00
Cu188  Cu    0.83333   0.11978   0.25000   0.00000  Uiso   1.00
H189   H     0.86707   0.23093   0.38759   0.00000  Uiso   1.00
H190   H     0.91370   0.25939   0.07076   0.00000  Uiso   1.00
H191   H     0.73832   0.08324   0.08332   0.00000  Uiso   1.00
H192   H     0.72108   0.05857   0.03119   0.00000  Uiso   1.00
H193   H     0.72889   0.02119   0.07869   0.00000  Uiso   1.00
H194   H     0.78617   0.01275   0.02512   0.00000  Uiso   1.00
H195   H     0.80471   0.03440   0.07570   0.00000  Uiso   1.00
H196   H     0.84788   0.30486   0.41907   0.00000  Uiso   1.00
H197   H     0.85984   0.33259   0.47163   0.00000  Uiso   1.00
H198   H     0.89113   0.01128   0.42337   0.00000  Uiso   1.00
H199   H     0.92705   0.29072   0.47448   0.00000  Uiso   1.00
H200   H     0.80476   0.09999   0.11227   0.00000  Uiso   1.00
H201   H     0.91794   0.26327   0.42343   0.00000  Uiso   1.00
H202   H     0.69370   0.09797   0.16691   0.00000  Uiso   1.00
H203   H     0.97296   0.23533   0.33306   0.00000  Uiso   1.00
H204   H     0.93140   0.13095   0.17728   0.00000  Uiso   1.00
H205   H     0.73525   0.20239   0.32267   0.00000  Uiso   1.00
H206   H     0.80102   0.10246   0.38780   0.00000  Uiso   1.00
H207   H     0.86457   0.23253   0.11193   0.00000  Uiso   1.00
H208   H     0.78904   0.04322   0.19829   0.00000  Uiso   1.00
H209   H     0.87760   0.29012   0.30174   0.00000  Uiso   1.00
H210   H     0.87760   0.04375   0.30173   0.00000  Uiso   1.00
H211   H     0.78903   0.28958   0.19831   0.00000  Uiso   1.00
H212   H     0.80199   0.04208   0.42852   0.00000  Uiso   1.00
N213   N     0.83333   0.28402   0.25000   0.00000  Uiso   1.00
N214   N     0.83333   0.04931   0.25000   0.00000  Uiso   1.00
O215   O     0.77321   0.20625   0.25000   0.00000  Uiso   1.00
O216   O     0.89795   0.27328   0.04586   0.00000  Uiso   1.00
O217   O     0.71197   0.11552   0.18743   0.00000  Uiso   1.00
O218   O     0.95469   0.21780   0.31252   0.00000  Uiso   1.00
O219   O     0.95900   0.11727   0.18252   0.00000  Uiso   1.00
O220   O     0.70765   0.21608   0.31742   0.00000  Uiso   1.00
O221   O     0.89345   0.12709   0.25001   0.00000  Uiso   1.00
O222   O     0.89345   0.20625   0.25001   0.00000  Uiso   1.00
O223   O     0.77321   0.12709   0.25000   0.00000  Uiso   1.00
O224   O     0.83332   0.20627   0.18513   0.00000  Uiso   1.00
O225   O     0.83334   0.12707   0.31487   0.00000  Uiso   1.00
O226   O     0.83334   0.20627   0.31487   0.00000  Uiso   1.00
O227   O     0.83332   0.12707   0.18513   0.00000  Uiso   1.00
O228   O     0.78459   0.05039   0.45432   0.00000  Uiso   1.00
C229   C     0.08747   0.49986   0.25042   0.00000  Uiso   1.00
C230   C     0.04283   0.49936   0.25117   0.00000  Uiso   1.00
C231   C     0.14208   0.35799   0.22129   0.00000  Uiso   1.00
C232   C     0.19124   0.64201   0.27873   0.00000  Uiso   1.00
C233   C     0.19124   0.35828   0.27872   0.00000  Uiso   1.00
C234   C     0.14208   0.64172   0.22130   0.00000  Uiso   1.00
C235   C     0.16680   0.49992   0.16433   0.00000  Uiso   1.00
C236   C     0.16674   0.50001   0.33564   0.00000  Uiso   1.00
C237   C     0.18762   0.53582   0.40684   0.00000  Uiso   1.00
C238   C     0.15242   0.46082   0.09306   0.00000  Uiso   1.00
C239   C     0.16798   0.49966   0.38397   0.00000  Uiso   1.00
C240   C     0.24586   0.50013   0.24955   0.00000  Uiso   1.00
C241   C     0.16820   0.49932   0.11597   0.00000  Uiso   1.00
C242   C     0.15070   0.46213   0.40684   0.00000  Uiso   1.00
C243   C     0.18655   0.53621   0.09307   0.00000  Uiso   1.00
C244   C     0.15334   0.45949   0.45314   0.00000  Uiso   1.00
C245   C     0.19042   0.53462   0.04677   0.00000  Uiso   1.00
C246   C     0.17247   0.49683   0.47663   0.00000  Uiso   1.00
C247   C     0.17246   0.49657   0.02326   0.00000  Uiso   1.00
C248   C     0.19063   0.53502   0.45333   0.00000  Uiso   1.00
C249   C     0.15367   0.45884   0.04656   0.00000  Uiso   1.00
C250   C     0.13632   0.42084   0.47632   0.00000  Uiso   1.00
C251   C     0.13649   0.42030   0.02301   0.00000  Uiso   1.00
C252   C     0.21126   0.57076   0.02365   0.00000  Uiso   1.00
C253   C     0.11874   0.37761   0.04675   0.00000  Uiso   1.00
C254   C     0.07405   0.38584   0.06089   0.00000  Uiso   1.00
C255   C     0.23509   0.61005   0.45329   0.00000  Uiso   1.00
C256   C     0.20661   0.65042   0.44105   0.00000  Uiso   1.00
C257   C     0.21138   0.57122   0.47694   0.00000  Uiso   1.00
C258   C     0.02209   0.47331   0.21834   0.00000  Uiso   1.00
C259   C     0.31124   0.52668   0.28161   0.00000  Uiso   1.00
C260   C     0.31217   0.47443   0.21652   0.00000  Uiso   1.00
C261   C     0.02116   0.52557   0.28342   0.00000  Uiso   1.00
C262   C     0.29050   0.50064   0.24879   0.00000  Uiso   1.00
Cu263  Cu    0.16667   0.54689   0.25000   0.00000  Uiso   1.00
Cu264  Cu    0.16667   0.45311   0.25000   0.00000  Uiso   1.00
H265   H     0.20040   0.56426   0.38759   0.00000  Uiso   1.00
H266   H     0.24704   0.59272   0.07076   0.00000  Uiso   1.00
H267   H     0.07166   0.41657   0.08332   0.00000  Uiso   1.00
H268   H     0.05442   0.39191   0.03119   0.00000  Uiso   1.00
H269   H     0.06223   0.35453   0.07869   0.00000  Uiso   1.00
H270   H     0.11951   0.34609   0.02512   0.00000  Uiso   1.00
H271   H     0.13805   0.36773   0.07570   0.00000  Uiso   1.00
H272   H     0.18121   0.63819   0.41907   0.00000  Uiso   1.00
H273   H     0.19317   0.66593   0.47163   0.00000  Uiso   1.00
H274   H     0.22446   0.34461   0.42337   0.00000  Uiso   1.00
H275   H     0.26039   0.62405   0.47448   0.00000  Uiso   1.00
H276   H     0.13809   0.43332   0.11227   0.00000  Uiso   1.00
H277   H     0.25128   0.59661   0.42343   0.00000  Uiso   1.00
H278   H     0.02703   0.43130   0.16691   0.00000  Uiso   1.00
H279   H     0.30630   0.56866   0.33306   0.00000  Uiso   1.00
H280   H     0.26473   0.46428   0.17728   0.00000  Uiso   1.00
H281   H     0.06859   0.53573   0.32267   0.00000  Uiso   1.00
H282   H     0.13435   0.43580   0.38780   0.00000  Uiso   1.00
H283   H     0.19790   0.56586   0.11193   0.00000  Uiso   1.00
H284   H     0.12238   0.37655   0.19829   0.00000  Uiso   1.00
H285   H     0.21093   0.62345   0.30174   0.00000  Uiso   1.00
H286   H     0.21093   0.37709   0.30173   0.00000  Uiso   1.00
H287   H     0.12236   0.62291   0.19831   0.00000  Uiso   1.00
H288   H     0.13532   0.37541   0.42852   0.00000  Uiso   1.00
N289   N     0.16667   0.61736   0.25000   0.00000  Uiso   1.00
N290   N     0.16667   0.38264   0.25000   0.00000  Uiso   1.00
O291   O     0.10655   0.53958   0.25000   0.00000  Uiso   1.00
O292   O     0.23129   0.60661   0.04586   0.00000  Uiso   1.00
O293   O     0.04530   0.44885   0.18743   0.00000  Uiso   1.00
O294   O     0.28802   0.55113   0.31252   0.00000  Uiso   1.00
O295   O     0.29234   0.45061   0.18252   0.00000  Uiso   1.00
O296   O     0.04099   0.54941   0.31742   0.00000  Uiso   1.00
O297   O     0.22679   0.46042   0.25001   0.00000  Uiso   1.00
O298   O     0.22679   0.53958   0.25001   0.00000  Uiso   1.00
O299   O     0.10655   0.46042   0.25000   0.00000  Uiso   1.00
O300   O     0.16666   0.53960   0.18513   0.00000  Uiso   1.00
O301   O     0.16668   0.46040   0.31487   0.00000  Uiso   1.00
O302   O     0.16668   0.53960   0.31487   0.00000  Uiso   1.00
O303   O     0.16666   0.46040   0.18513   0.00000  Uiso   1.00
O304   O     0.11793   0.38372   0.45432   0.00000  Uiso   1.00
C305   C     0.42081   0.49986   0.25042   0.00000  Uiso   1.00
C306   C     0.37616   0.49936   0.25117   0.00000  Uiso   1.00
C307   C     0.47542   0.35799   0.22129   0.00000  Uiso   1.00
C308   C     0.52457   0.64201   0.27873   0.00000  Uiso   1.00
C309   C     0.52457   0.35828   0.27872   0.00000  Uiso   1.00
C310   C     0.47541   0.64172   0.22130   0.00000  Uiso   1.00
C311   C     0.50013   0.49992   0.16433   0.00000  Uiso   1.00
C312   C     0.50007   0.50001   0.33564   0.00000  Uiso   1.00
C313   C     0.52095   0.53582   0.40684   0.00000  Uiso   1.00
C314   C     0.48575   0.46082   0.09306   0.00000  Uiso   1.00
C315   C     0.50132   0.49966   0.38397   0.00000  Uiso   1.00
C316   C     0.57919   0.50013   0.24955   0.00000  Uiso   1.00
C317   C     0.50154   0.49932   0.11597   0.00000  Uiso   1.00
C318   C     0.48404   0.46213   0.40684   0.00000  Uiso   1.00
C319   C     0.51988   0.53621   0.09307   0.00000  Uiso   1.00
C320   C     0.48667   0.45949   0.45314   0.00000  Uiso   1.00
C321   C     0.52375   0.53462   0.04677   0.00000  Uiso   1.00
C322   C     0.50580   0.49683   0.47663   0.00000  Uiso   1.00
C323   C     0.50580   0.49657   0.02326   0.00000  Uiso   1.00
C324   C     0.52396   0.53502   0.45333   0.00000  Uiso   1.00
C325   C     0.48700   0.45884   0.04656   0.00000  Uiso   1.00
C326   C     0.46965   0.42084   0.47632   0.00000  Uiso   1.00
C327   C     0.46982   0.42030   0.02301   0.00000  Uiso   1.00
C328   C     0.54460   0.57076   0.02365   0.00000  Uiso   1.00
C329   C     0.45208   0.37761   0.04675   0.00000  Uiso   1.00
C330   C     0.40738   0.38584   0.06089   0.00000  Uiso   1.00
C331   C     0.56842   0.61005   0.45329   0.00000  Uiso   1.00
C332   C     0.53994   0.65042   0.44105   0.00000  Uiso   1.00
C333   C     0.54471   0.57122   0.47694   0.00000  Uiso   1.00
C334   C     0.35542   0.47331   0.21834   0.00000  Uiso   1.00
C335   C     0.64457   0.52668   0.28161   0.00000  Uiso   1.00
C336   C     0.64550   0.47443   0.21652   0.00000  Uiso   1.00
C337   C     0.35449   0.52557   0.28342   0.00000  Uiso   1.00
C338   C     0.62384   0.50064   0.24879   0.00000  Uiso   1.00
Cu339  Cu    0.50000   0.54689   0.25000   0.00000  Uiso   1.00
Cu340  Cu    0.50000   0.45311   0.25000   0.00000  Uiso   1.00
H341   H     0.53373   0.56426   0.38759   0.00000  Uiso   1.00
H342   H     0.58037   0.59272   0.07076   0.00000  Uiso   1.00
H343   H     0.40499   0.41657   0.08332   0.00000  Uiso   1.00
H344   H     0.38775   0.39191   0.03119   0.00000  Uiso   1.00
H345   H     0.39556   0.35453   0.07869   0.00000  Uiso   1.00
H346   H     0.45284   0.34609   0.02512   0.00000  Uiso   1.00
H347   H     0.47138   0.36773   0.07570   0.00000  Uiso   1.00
H348   H     0.51454   0.63819   0.41907   0.00000  Uiso   1.00
H349   H     0.52650   0.66593   0.47163   0.00000  Uiso   1.00
H350   H     0.55779   0.34461   0.42337   0.00000  Uiso   1.00
H351   H     0.59372   0.62405   0.47448   0.00000  Uiso   1.00
H352   H     0.47143   0.43332   0.11227   0.00000  Uiso   1.00
H353   H     0.58461   0.59661   0.42343   0.00000  Uiso   1.00
H354   H     0.36036   0.43130   0.16691   0.00000  Uiso   1.00
H355   H     0.63963   0.56866   0.33306   0.00000  Uiso   1.00
H356   H     0.59806   0.46428   0.17728   0.00000  Uiso   1.00
H357   H     0.40192   0.53573   0.32267   0.00000  Uiso   1.00
H358   H     0.46768   0.43580   0.38780   0.00000  Uiso   1.00
H359   H     0.53124   0.56586   0.11193   0.00000  Uiso   1.00
H360   H     0.45571   0.37655   0.19829   0.00000  Uiso   1.00
H361   H     0.54426   0.62345   0.30174   0.00000  Uiso   1.00
H362   H     0.54427   0.37709   0.30173   0.00000  Uiso   1.00
H363   H     0.45570   0.62291   0.19831   0.00000  Uiso   1.00
H364   H     0.46865   0.37541   0.42852   0.00000  Uiso   1.00
N365   N     0.50000   0.61736   0.25000   0.00000  Uiso   1.00
N366   N     0.50000   0.38264   0.25000   0.00000  Uiso   1.00
O367   O     0.43988   0.53958   0.25000   0.00000  Uiso   1.00
O368   O     0.56462   0.60661   0.04586   0.00000  Uiso   1.00
O369   O     0.37864   0.44885   0.18743   0.00000  Uiso   1.00
O370   O     0.62136   0.55113   0.31252   0.00000  Uiso   1.00
O371   O     0.62567   0.45061   0.18252   0.00000  Uiso   1.00
O372   O     0.37432   0.54941   0.31742   0.00000  Uiso   1.00
O373   O     0.56012   0.46042   0.25001   0.00000  Uiso   1.00
O374   O     0.56012   0.53958   0.25001   0.00000  Uiso   1.00
O375   O     0.43988   0.46042   0.25000   0.00000  Uiso   1.00
O376   O     0.49999   0.53960   0.18513   0.00000  Uiso   1.00
O377   O     0.50001   0.46040   0.31487   0.00000  Uiso   1.00
O378   O     0.50001   0.53960   0.31487   0.00000  Uiso   1.00
O379   O     0.49999   0.46040   0.18513   0.00000  Uiso   1.00
O380   O     0.45126   0.38372   0.45432   0.00000  Uiso   1.00
C381   C     0.75414   0.49986   0.25042   0.00000  Uiso   1.00
C382   C     0.70949   0.49936   0.25117   0.00000  Uiso   1.00
C383   C     0.80875   0.35799   0.22129   0.00000  Uiso   1.00
C384   C     0.85790   0.64201   0.27873   0.00000  Uiso   1.00
C385   C     0.85790   0.35828   0.27872   0.00000  Uiso   1.00
C386   C     0.80875   0.64172   0.22130   0.00000  Uiso   1.00
C387   C     0.83346   0.49992   0.16433   0.00000  Uiso   1.00
C388   C     0.83341   0.50001   0.33564   0.00000  Uiso   1.00
C389   C     0.85429   0.53582   0.40684   0.00000  Uiso   1.00
C390   C     0.81908   0.46082   0.09306   0.00000  Uiso   1.00
C391   C     0.83465   0.49966   0.38397   0.00000  Uiso   1.00
C392   C     0.91252   0.50013   0.24955   0.00000  Uiso   1.00
C393   C     0.83487   0.49932   0.11597   0.00000  Uiso   1.00
C394   C     0.81737   0.46213   0.40684   0.00000  Uiso   1.00
C395   C     0.85321   0.53621   0.09307   0.00000  Uiso   1.00
C396   C     0.82001   0.45949   0.45314   0.00000  Uiso   1.00
C397   C     0.85709   0.53462   0.04677   0.00000  Uiso   1.00
C398   C     0.83914   0.49683   0.47663   0.00000  Uiso   1.00
C399   C     0.83913   0.49657   0.02326   0.00000  Uiso   1.00
C400   C     0.85729   0.53502   0.45333   0.00000  Uiso   1.00
C401   C     0.82033   0.45884   0.04656   0.00000  Uiso   1.00
C402   C     0.80299   0.42084   0.47632   0.00000  Uiso   1.00
C403   C     0.80316   0.42030   0.02301   0.00000  Uiso   1.00
C404   C     0.87793   0.57076   0.02365   0.00000  Uiso   1.00
C405   C     0.78541   0.37761   0.04675   0.00000  Uiso   1.00
C406   C     0.74072   0.38584   0.06089   0.00000  Uiso   1.00
C407   C     0.90176   0.61005   0.45329   0.00000  Uiso   1.00
C408   C     0.87327   0.65042   0.44105   0.00000  Uiso   1.00
C409   C     0.87805   0.57122   0.47694   0.00000  Uiso   1.00
C410   C     0.68875   0.47331   0.21834   0.00000  Uiso   1.00
C411   C     0.97791   0.52668   0.28161   0.00000  Uiso   1.00
C412   C     0.97884   0.47443   0.21652   0.00000  Uiso   1.00
C413   C     0.68782   0.52557   0.28342   0.00000  Uiso   1.00
C414   C     0.95717   0.50064   0.24879   0.00000  Uiso   1.00
Cu415  Cu    0.83333   0.54689   0.25000   0.00000  Uiso   1.00
Cu416  Cu    0.83333   0.45311   0.25000   0.00000  Uiso   1.00
H417   H     0.86707   0.56426   0.38759   0.00000  Uiso   1.00
H418   H     0.91370   0.59272   0.07076   0.00000  Uiso   1.00
H419   H     0.73832   0.41657   0.08332   0.00000  Uiso   1.00
H420   H     0.72108   0.39191   0.03119   0.00000  Uiso   1.00
H421   H     0.72889   0.35453   0.07869   0.00000  Uiso   1.00
H422   H     0.78617   0.34609   0.02512   0.00000  Uiso   1.00
H423   H     0.80471   0.36773   0.07570   0.00000  Uiso   1.00
H424   H     0.84788   0.63819   0.41907   0.00000  Uiso   1.00
H425   H     0.85984   0.66593   0.47163   0.00000  Uiso   1.00
H426   H     0.89113   0.34461   0.42337   0.00000  Uiso   1.00
H427   H     0.92705   0.62405   0.47448   0.00000  Uiso   1.00
H428   H     0.80476   0.43332   0.11227   0.00000  Uiso   1.00
H429   H     0.91794   0.59661   0.42343   0.00000  Uiso   1.00
H430   H     0.69370   0.43130   0.16691   0.00000  Uiso   1.00
H431   H     0.97296   0.56866   0.33306   0.00000  Uiso   1.00
H432   H     0.93140   0.46428   0.17728   0.00000  Uiso   1.00
H433   H     0.73525   0.53573   0.32267   0.00000  Uiso   1.00
H434   H     0.80102   0.43580   0.38780   0.00000  Uiso   1.00
H435   H     0.86457   0.56586   0.11193   0.00000  Uiso   1.00
H436   H     0.78904   0.37655   0.19829   0.00000  Uiso   1.00
H437   H     0.87760   0.62345   0.30174   0.00000  Uiso   1.00
H438   H     0.87760   0.37709   0.30173   0.00000  Uiso   1.00
H439   H     0.78903   0.62291   0.19831   0.00000  Uiso   1.00
H440   H     0.80199   0.37541   0.42852   0.00000  Uiso   1.00
N441   N     0.83333   0.61736   0.25000   0.00000  Uiso   1.00
N442   N     0.83333   0.38264   0.25000   0.00000  Uiso   1.00
O443   O     0.77321   0.53958   0.25000   0.00000  Uiso   1.00
O444   O     0.89795   0.60661   0.04586   0.00000  Uiso   1.00
O445   O     0.71197   0.44885   0.18743   0.00000  Uiso   1.00
O446   O     0.95469   0.55113   0.31252   0.00000  Uiso   1.00
O447   O     0.95900   0.45061   0.18252   0.00000  Uiso   1.00
O448   O     0.70765   0.54941   0.31742   0.00000  Uiso   1.00
O449   O     0.89345   0.46042   0.25001   0.00000  Uiso   1.00
O450   O     0.89345   0.53958   0.25001   0.00000  Uiso   1.00
O451   O     0.77321   0.46042   0.25000   0.00000  Uiso   1.00
O452   O     0.83332   0.53960   0.18513   0.00000  Uiso   1.00
O453   O     0.83334   0.46040   0.31487   0.00000  Uiso   1.00
O454   O     0.83334   0.53960   0.31487   0.00000  Uiso   1.00
O455   O     0.83332   0.46040   0.18513   0.00000  Uiso   1.00
O456   O     0.78459   0.38372   0.45432   0.00000  Uiso   1.00
C457   C     0.08747   0.83320   0.25042   0.00000  Uiso   1.00
C458   C     0.04283   0.83269   0.25117   0.00000  Uiso   1.00
C459   C     0.14208   0.69132   0.22129   0.00000  Uiso   1.00
C460   C     0.19124   0.97535   0.27873   0.00000  Uiso   1.00
C461   C     0.19124   0.69162   0.27872   0.00000  Uiso   1.00
C462   C     0.14208   0.97505   0.22130   0.00000  Uiso   1.00
C463   C     0.16680   0.83326   0.16433   0.00000  Uiso   1.00
C464   C     0.16674   0.83334   0.33564   0.00000  Uiso   1.00
C465   C     0.18762   0.86915   0.40684   0.00000  Uiso   1.00
C466   C     0.15242   0.79416   0.09306   0.00000  Uiso   1.00
C467   C     0.16798   0.83299   0.38397   0.00000  Uiso   1.00
C468   C     0.24586   0.83347   0.24955   0.00000  Uiso   1.00
C469   C     0.16820   0.83265   0.11597   0.00000  Uiso   1.00
C470   C     0.15070   0.79546   0.40684   0.00000  Uiso   1.00
C471   C     0.18655   0.86954   0.09307   0.00000  Uiso   1.00
C472   C     0.15334   0.79282   0.45314   0.00000  Uiso   1.00
C473   C     0.19042   0.86796   0.04677   0.00000  Uiso   1.00
C474   C     0.17247   0.83017   0.47663   0.00000  Uiso   1.00
C475   C     0.17246   0.82990   0.02326   0.00000  Uiso   1.00
C476   C     0.19063   0.86836   0.45333   0.00000  Uiso   1.00
C477   C     0.15367   0.79218   0.04656   0.00000  Uiso   1.00
C478   C     0.13632   0.75418   0.47632   0.00000  Uiso   1.00
C479   C     0.13649   0.75363   0.02301   0.00000  Uiso   1.00
C480   C     0.21126   0.90409   0.02365   0.00000  Uiso   1.00
C481   C     0.11874   0.71094   0.04675   0.00000  Uiso   1.00
C482   C     0.07405   0.71918   0.06089   0.00000  Uiso   1.00
C483   C     0.23509   0.94338   0.45329   0.00000  Uiso   1.00
C484   C     0.20661   0.98376   0.44105   0.00000  Uiso   1.00
C485   C     0.21138   0.90456   0.47694   0.00000  Uiso   1.00
C486   C     0.02209   0.80665   0.21834   0.00000  Uiso   1.00
C487   C     0.31124   0.86001   0.28161   0.00000  Uiso   1.00
C488   C     0.31217   0.80777   0.21652   0.00000  Uiso   1.00
C489   C     0.02116   0.85890   0.28342   0.00000  Uiso   1.00
C490   C     0.29050   0.83397   0.24879   0.00000  Uiso   1.00
Cu491  Cu    0.16667   0.88022   0.25000   0.00000  Uiso   1.00
Cu492  Cu    0.16667   0.78645   0.25000   0.00000  Uiso   1.00
H493   H     0.20040   0.89760   0.38759   0.00000  Uiso   1.00
H494   H     0.24704   0.92605   0.07076   0.00000  Uiso   1.00
H495   H     0.07166   0.74990   0.08332   0.00000  Uiso   1.00
H496   H     0.05442   0.72524   0.03119   0.00000  Uiso   1.00
H497   H     0.06223   0.68786   0.07869   0.00000  Uiso   1.00
H498   H     0.11951   0.67942   0.02512   0.00000  Uiso   1.00
H499   H     0.13805   0.70107   0.07570   0.00000  Uiso   1.00
H500   H     0.18121   0.97152   0.41907   0.00000  Uiso   1.00
H501   H     0.19317   0.99926   0.47163   0.00000  Uiso   1.00
H502   H     0.22446   0.67794   0.42337   0.00000  Uiso   1.00
H503   H     0.26039   0.95739   0.47448   0.00000  Uiso   1.00
H504   H     0.13809   0.76665   0.11227   0.00000  Uiso   1.00
H505   H     0.25128   0.92994   0.42343   0.00000  Uiso   1.00
H506   H     0.02703   0.76464   0.16691   0.00000  Uiso   1.00
H507   H     0.30630   0.90199   0.33306   0.00000  Uiso   1.00
H508   H     0.26473   0.79761   0.17728   0.00000  Uiso   1.00
H509   H     0.06859   0.86906   0.32267   0.00000  Uiso   1.00
H510   H     0.13435   0.76913   0.38780   0.00000  Uiso   1.00
H511   H     0.19790   0.89919   0.11193   0.00000  Uiso   1.00
H512   H     0.12238   0.70988   0.19829   0.00000  Uiso   1.00
H513   H     0.21093   0.95678   0.30174   0.00000  Uiso   1.00
H514   H     0.21093   0.71042   0.30173   0.00000  Uiso   1.00
H515   H     0.12236   0.95625   0.19831   0.00000  Uiso   1.00
H516   H     0.13532   0.70875   0.42852   0.00000  Uiso   1.00
N517   N     0.16667   0.95069   0.25000   0.00000  Uiso   1.00
N518   N     0.16667   0.71598   0.25000   0.00000  Uiso   1.00
O519   O     0.10655   0.87291   0.25000   0.00000  Uiso   1.00
O520   O     0.23129   0.93995   0.04586   0.00000  Uiso   1.00
O521   O     0.04530   0.78218   0.18743   0.00000  Uiso   1.00
O522   O     0.28802   0.88447   0.31252   0.00000  Uiso   1.00
O523   O     0.29234   0.78394   0.18252   0.00000  Uiso   1.00
O524   O     0.04099   0.88275   0.31742   0.00000  Uiso   1.00
O525   O     0.22679   0.79375   0.25001   0.00000  Uiso   1.00
O526   O     0.22679   0.87291   0.25001   0.00000  Uiso   1.00
O527   O     0.10655   0.79375   0.25000   0.00000  Uiso   1.00
O528   O     0.16666   0.87293   0.18513   0.00000  Uiso   1.00
O529   O     0.16668   0.79373   0.31487   0.00000  Uiso   1.00
O530   O     0.16668   0.87293   0.31487   0.00000  Uiso   1.00
O531   O     0.16666   0.79373   0.18513   0.00000  Uiso   1.00
O532   O     0.11793   0.71706   0.45432   0.00000  Uiso   1.00
C533   C     0.42081   0.83320   0.25042   0.00000  Uiso   1.00
C534   C     0.37616   0.83269   0.25117   0.00000  Uiso   1.00
C535   C     0.47542   0.69132   0.22129   0.00000  Uiso   1.00
C536   C     0.52457   0.97535   0.27873   0.00000  Uiso   1.00
C537   C     0.52457   0.69162   0.27872   0.00000  Uiso   1.00
C538   C     0.47541   0.97505   0.22130   0.00000  Uiso   1.00
C539   C     0.50013   0.83326   0.16433   0.00000  Uiso   1.00
C540   C     0.50007   0.83334   0.33564   0.00000  Uiso   1.00
C541   C     0.52095   0.86915   0.40684   0.00000  Uiso   1.00
C542   C     0.48575   0.79416   0.09306   0.00000  Uiso   1.00
C543   C     0.50132   0.83299   0.38397   0.00000  Uiso   1.00
C544   C     0.57919   0.83347   0.24955   0.00000  Uiso   1.00
C545   C     0.50154   0.83265   0.11597   0.00000  Uiso   1.00
C546   C     0.48404   0.79546   0.40684   0.00000  Uiso   1.00
C547   C     0.51988   0.86954   0.09307   0.00000  Uiso   1.00
C548   C     0.48667   0.79282   0.45314   0.00000  Uiso   1.00
C549   C     0.52375   0.86796   0.04677   0.00000  Uiso   1.00
C550   C     0.50580   0.83017   0.47663   0.00000  Uiso   1.00
C551   C     0.50580   0.82990   0.02326   0.00000  Uiso   1.00
C552   C     0.52396   0.86836   0.45333   0.00000  Uiso   1.00
C553   C     0.48700   0.79218   0.04656   0.00000  Uiso   1.00
C554   C     0.46965   0.75418   0.47632   0.00000  Uiso   1.00
C555   C     0.46982   0.75363   0.02301   0.00000  Uiso   1.00
C556   C     0.54460   0.90409   0.02365   0.00000  Uiso   1.00
C557   C     0.45208   0.71094   0.04675   0.00000  Uiso   1.00
C558   C     0.40738   0.71918   0.06089   0.00000  Uiso   1.00
C559   C     0.56842   0.94338   0.45329   0.00000  Uiso   1.00
C560   C     0.53994   0.98376   0.44105   0.00000  Uiso   1.00
C561   C     0.54471   0.90456   0.47694   0.00000  Uiso   1.00
C562   C     0.35542   0.80665   0.21834   0.00000  Uiso   1.00
C563   C     0.64457   0.86001   0.28161   0.00000  Uiso   1.00
C564   C     0.64550   0.80777   0.21652   0.00000  Uiso   1.00
C565   C     0.35449   0.85890   0.28342   0.00000  Uiso   1.00
C566   C     0.62384   0.83397   0.24879   0.00000  Uiso   1.00
Cu567  Cu    0.50000   0.88022   0.25000   0.00000  Uiso   1.00
Cu568  Cu    0.50000   0.78645   0.25000   0.00000  Uiso   1.00
H569   H     0.53373   0.89760   0.38759   0.00000  Uiso   1.00
H570   H     0.58037   0.92605   0.07076   0.00000  Uiso   1.00
H571   H     0.40499   0.74990   0.08332   0.00000  Uiso   1.00
H572   H     0.38775   0.72524   0.03119   0.00000  Uiso   1.00
H573   H     0.39556   0.68786   0.07869   0.00000  Uiso   1.00
H574   H     0.45284   0.67942   0.02512   0.00000  Uiso   1.00
H575   H     0.47138   0.70107   0.07570   0.00000  Uiso   1.00
H576   H     0.51454   0.97152   0.41907   0.00000  Uiso   1.00
H577   H     0.52650   0.99926   0.47163   0.00000  Uiso   1.00
H578   H     0.55779   0.67794   0.42337   0.00000  Uiso   1.00
H579   H     0.59372   0.95739   0.47448   0.00000  Uiso   1.00
H580   H     0.47143   0.76665   0.11227   0.00000  Uiso   1.00
H581   H     0.58461   0.92994   0.42343   0.00000  Uiso   1.00
H582   H     0.36036   0.76464   0.16691   0.00000  Uiso   1.00
H583   H     0.63963   0.90199   0.33306   0.00000  Uiso   1.00
H584   H     0.59806   0.79761   0.17728   0.00000  Uiso   1.00
H585   H     0.40192   0.86906   0.32267   0.00000  Uiso   1.00
H586   H     0.46768   0.76913   0.38780   0.00000  Uiso   1.00
H587   H     0.53124   0.89919   0.11193   0.00000  Uiso   1.00
H588   H     0.45571   0.70988   0.19829   0.00000  Uiso   1.00
H589   H     0.54426   0.95678   0.30174   0.00000  Uiso   1.00
H590   H     0.54427   0.71042   0.30173   0.00000  Uiso   1.00
H591   H     0.45570   0.95625   0.19831   0.00000  Uiso   1.00
H592   H     0.46865   0.70875   0.42852   0.00000  Uiso   1.00
N593   N     0.50000   0.95069   0.25000   0.00000  Uiso   1.00
N594   N     0.50000   0.71598   0.25000   0.00000  Uiso   1.00
O595   O     0.43988   0.87291   0.25000   0.00000  Uiso   1.00
O596   O     0.56462   0.93995   0.04586   0.00000  Uiso   1.00
O597   O     0.37864   0.78218   0.18743   0.00000  Uiso   1.00
O598   O     0.62136   0.88447   0.31252   0.00000  Uiso   1.00
O599   O     0.62567   0.78394   0.18252   0.00000  Uiso   1.00
O600   O     0.37432   0.88275   0.31742   0.00000  Uiso   1.00
O601   O     0.56012   0.79375   0.25001   0.00000  Uiso   1.00
O602   O     0.56012   0.87291   0.25001   0.00000  Uiso   1.00
O603   O     0.43988   0.79375   0.25000   0.00000  Uiso   1.00
O604   O     0.49999   0.87293   0.18513   0.00000  Uiso   1.00
O605   O     0.50001   0.79373   0.31487   0.00000  Uiso   1.00
O606   O     0.50001   0.87293   0.31487   0.00000  Uiso   1.00
O607   O     0.49999   0.79373   0.18513   0.00000  Uiso   1.00
O608   O     0.45126   0.71706   0.45432   0.00000  Uiso   1.00
C609   C     0.75414   0.83320   0.25042   0.00000  Uiso   1.00
C610   C     0.70949   0.83269   0.25117   0.00000  Uiso   1.00
C611   C     0.80875   0.69132   0.22129   0.00000  Uiso   1.00
C612   C     0.85790   0.97535   0.27873   0.00000  Uiso   1.00
C613   C     0.85790   0.69162   0.27872   0.00000  Uiso   1.00
C614   C     0.80875   0.97505   0.22130   0.00000  Uiso   1.00
C615   C     0.83346   0.83326   0.16433   0.00000  Uiso   1.00
C616   C     0.83341   0.83334   0.33564   0.00000  Uiso   1.00
C617   C     0.85429   0.86915   0.40684   0.00000  Uiso   1.00
C618   C     0.81908   0.79416   0.09306   0.00000  Uiso   1.00
C619   C     0.83465   0.83299   0.38397   0.00000  Uiso   1.00
C620   C     0.91252   0.83347   0.24955   0.00000  Uiso   1.00
C621   C     0.83487   0.83265   0.11597   0.00000  Uiso   1.00
C622   C     0.81737   0.79546   0.40684   0.00000  Uiso   1.00
C623   C     0.85321   0.86954   0.09307   0.00000  Uiso   1.00
C624   C     0.82001   0.79282   0.45314   0.00000  Uiso   1.00
C625   C     0.85709   0.86796   0.04677   0.00000  Uiso   1.00
C626   C     0.83914   0.83017   0.47663   0.00000  Uiso   1.00
C627   C     0.83913   0.82990   0.02326   0.00000  Uiso   1.00
C628   C     0.85729   0.86836   0.45333   0.00000  Uiso   1.00
C629   C     0.82033   0.79218   0.04656   0.00000  Uiso   1.00
C630   C     0.80299   0.75418   0.47632   0.00000  Uiso   1.00
C631   C     0.80316   0.75363   0.02301   0.00000  Uiso   1.00
C632   C     0.87793   0.90409   0.02365   0.00000  Uiso   1.00
C633   C     0.78541   0.71094   0.04675   0.00000  Uiso   1.00
C634   C     0.74072   0.71918   0.06089   0.00000  Uiso   1.00
C635   C     0.90176   0.94338   0.45329   0.00000  Uiso   1.00
C636   C     0.87327   0.98376   0.44105   0.00000  Uiso   1.00
C637   C     0.87805   0.90456   0.47694   0.00000  Uiso   1.00
C638   C     0.68875   0.80665   0.21834   0.00000  Uiso   1.00
C639   C     0.97791   0.86001   0.28161   0.00000  Uiso   1.00
C640   C     0.97884   0.80777   0.21652   0.00000  Uiso   1.00
C641   C     0.68782   0.85890   0.28342   0.00000  Uiso   1.00
C642   C     0.95717   0.83397   0.24879   0.00000  Uiso   1.00
Cu643  Cu    0.83333   0.88022   0.25000   0.00000  Uiso   1.00
Cu644  Cu    0.83333   0.78645   0.25000   0.00000  Uiso   1.00
H645   H     0.86707   0.89760   0.38759   0.00000  Uiso   1.00
H646   H     0.91370   0.92605   0.07076   0.00000  Uiso   1.00
H647   H     0.73832   0.74990   0.08332   0.00000  Uiso   1.00
H648   H     0.72108   0.72524   0.03119   0.00000  Uiso   1.00
H649   H     0.72889   0.68786   0.07869   0.00000  Uiso   1.00
H650   H     0.78617   0.67942   0.02512   0.00000  Uiso   1.00
H651   H     0.80471   0.70107   0.07570   0.00000  Uiso   1.00
H652   H     0.84788   0.97152   0.41907   0.00000  Uiso   1.00
H653   H     0.85984   0.99926   0.47163   0.00000  Uiso   1.00
H654   H     0.89113   0.67794   0.42337   0.00000  Uiso   1.00
H655   H     0.92705   0.95739   0.47448   0.00000  Uiso   1.00
H656   H     0.80476   0.76665   0.11227   0.00000  Uiso   1.00
H657   H     0.91794   0.92994   0.42343   0.00000  Uiso   1.00
H658   H     0.69370   0.76464   0.16691   0.00000  Uiso   1.00
H659   H     0.97296   0.90199   0.33306   0.00000  Uiso   1.00
H660   H     0.93140   0.79761   0.17728   0.00000  Uiso   1.00
H661   H     0.73525   0.86906   0.32267   0.00000  Uiso   1.00
H662   H     0.80102   0.76913   0.38780   0.00000  Uiso   1.00
H663   H     0.86457   0.89919   0.11193   0.00000  Uiso   1.00
H664   H     0.78904   0.70988   0.19829   0.00000  Uiso   1.00
H665   H     0.87760   0.95678   0.30174   0.00000  Uiso   1.00
H666   H     0.87760   0.71042   0.30173   0.00000  Uiso   1.00
H667   H     0.78903   0.95625   0.19831   0.00000  Uiso   1.00
H668   H     0.80199   0.70875   0.42852   0.00000  Uiso   1.00
N669   N     0.83333   0.95069   0.25000   0.00000  Uiso   1.00
N670   N     0.83333   0.71598   0.25000   0.00000  Uiso   1.00
O671   O     0.77321   0.87291   0.25000   0.00000  Uiso   1.00
O672   O     0.89795   0.93995   0.04586   0.00000  Uiso   1.00
O673   O     0.71197   0.78218   0.18743   0.00000  Uiso   1.00
O674   O     0.95469   0.88447   0.31252   0.00000  Uiso   1.00
O675   O     0.95900   0.78394   0.18252   0.00000  Uiso   1.00
O676   O     0.70765   0.88275   0.31742   0.00000  Uiso   1.00
O677   O     0.89345   0.79375   0.25001   0.00000  Uiso   1.00
O678   O     0.89345   0.87291   0.25001   0.00000  Uiso   1.00
O679   O     0.77321   0.79375   0.25000   0.00000  Uiso   1.00
O680   O     0.83332   0.87293   0.18513   0.00000  Uiso   1.00
O681   O     0.83334   0.79373   0.31487   0.00000  Uiso   1.00
O682   O     0.83334   0.87293   0.31487   0.00000  Uiso   1.00
O683   O     0.83332   0.79373   0.18513   0.00000  Uiso   1.00
O684   O     0.78459   0.71706   0.45432   0.00000  Uiso   1.00
C685   C     0.08747   0.16653   0.75042   0.00000  Uiso   1.00
C686   C     0.04283   0.16602   0.75117   0.00000  Uiso   1.00
C687   C     0.14208   0.02465   0.72129   0.00000  Uiso   1.00
C688   C     0.19124   0.30868   0.77873   0.00000  Uiso   1.00
C689   C     0.19124   0.02495   0.77872   0.00000  Uiso   1.00
C690   C     0.14208   0.30838   0.72130   0.00000  Uiso   1.00
C691   C     0.16680   0.16659   0.66433   0.00000  Uiso   1.00
C692   C     0.16674   0.16668   0.83564   0.00000  Uiso   1.00
C693   C     0.18762   0.20249   0.90684   0.00000  Uiso   1.00
C694   C     0.15242   0.12749   0.59306   0.00000  Uiso   1.00
C695   C     0.16798   0.16633   0.88397   0.00000  Uiso   1.00
C696   C     0.24586   0.16680   0.74955   0.00000  Uiso   1.00
C697   C     0.16820   0.16599   0.61597   0.00000  Uiso   1.00
C698   C     0.15070   0.12879   0.90684   0.00000  Uiso   1.00
C699   C     0.18655   0.20288   0.59307   0.00000  Uiso   1.00
C700   C     0.15334   0.12615   0.95314   0.00000  Uiso   1.00
C701   C     0.19042   0.20129   0.54677   0.00000  Uiso   1.00
C702   C     0.17247   0.16350   0.97663   0.00000  Uiso   1.00
C703   C     0.17246   0.16324   0.52326   0.00000  Uiso   1.00
C704   C     0.19063   0.20169   0.95333   0.00000  Uiso   1.00
C705   C     0.15367   0.12551   0.54656   0.00000  Uiso   1.00
C706   C     0.13632   0.08751   0.97632   0.00000  Uiso   1.00
C707   C     0.13649   0.08696   0.52301   0.00000  Uiso   1.00
C708   C     0.21126   0.23743   0.52365   0.00000  Uiso   1.00
C709   C     0.11874   0.04427   0.54675   0.00000  Uiso   1.00
C710   C     0.07405   0.05251   0.56089   0.00000  Uiso   1.00
C711   C     0.23509   0.27672   0.95329   0.00000  Uiso   1.00
C712   C     0.20661   0.31709   0.94105   0.00000  Uiso   1.00
C713   C     0.21138   0.23789   0.97694   0.00000  Uiso   1.00
C714   C     0.02209   0.13998   0.71834   0.00000  Uiso   1.00
C715   C     0.31124   0.19335   0.78161   0.00000  Uiso   1.00
C716   C     0.31217   0.14110   0.71652   0.00000  Uiso   1.00
C717   C     0.02116   0.19224   0.78342   0.00000  Uiso   1.00
C718   C     0.29050   0.16731   0.74879   0.00000  Uiso   1.00
Cu719  Cu    0.16667   0.21355   0.75000   0.00000  Uiso   1.00
Cu720  Cu    0.16667   0.11978   0.75000   0.00000  Uiso   1.00
H721   H     0.20040   0.23093   0.88759   0.00000  Uiso   1.00
H722   H     0.24704   0.25939   0.57076   0.00000  Uiso   1.00
H723   H     0.07166   0.08324   0.58332   0.00000  Uiso   1.00
H724   H     0.05442   0.05857   0.53119   0.00000  Uiso   1.00
H725   H     0.06223   0.02119   0.57869   0.00000  Uiso   1.00
H726   H     0.11951   0.01275   0.52512   0.00000  Uiso   1.00
H727   H     0.13805   0.03440   0.57570   0.00000  Uiso   1.00
H728   H     0.18121   0.30486   0.91907   0.00000  Uiso   1.00
H729   H     0.19317   0.33259   0.97163   0.00000  Uiso   1.00
H730   H     0.22446   0.01128   0.92337   0.00000  Uiso   1.00
H731   H     0.26039   0.29072   0.97448   0.00000  Uiso   1.00
H732   H     0.13809   0.09999   0.61227   0.00000  Uiso   1.00
H733   H     0.25128   0.26327   0.92343   0.00000  Uiso   1.00
H734   H     0.02703   0.09797   0.66691   0.00000  Uiso   1.00
H735   H     0.30630   0.23533   0.83306   0.00000  Uiso   1.00
H736   H     0.26473   0.13095   0.67728   0.00000  Uiso   1.00
H737   H     0.06859   0.20239   0.82267   0.00000  Uiso   1.00
H738   H     0.13435   0.10246   0.88780   0.00000  Uiso   1.00
H739   H     0.19790   0.23253   0.61193   0.00000  Uiso   1.00
H740   H     0.12238   0.04322   0.69829   0.00000  Uiso   1.00
H741   H     0.21093   0.29012   0.80174   0.00000  Uiso   1.00
H742   H     0.21093   0.04375   0.80173   0.00000  Uiso   1.00
H743   H     0.12236   0.28958   0.69831   0.00000  Uiso   1.00
H744   H     0.13532   0.04208   0.92852   0.00000  Uiso   1.00
N745   N     0.16667   0.28402   0.75000   0.00000  Uiso   1.00
N746   N     0.16667   0.04931   0.75000   0.00000  Uiso   1.00
O747   O     0.10655   0.20625   0.75000   0.00000  Uiso   1.00
O748   O     0.23129   0.27328   0.54586   0.00000  Uiso   1.00
O749   O     0.04530   0.11552   0.68743   0.00000  Uiso   1.00
O750   O     0.28802   0.21780   0.81252   0.00000  Uiso   1.00
O751   O     0.29234   0.11727   0.68252   0.00000  Uiso   1.00
O752   O     0.04099   0.21608   0.81742   0.00000  Uiso   1.00
O753   O     0.22679   0.12709   0.75001   0.00000  Uiso   1.00
O754   O     0.22679   0.20625   0.75001   0.00000  Uiso   1.00
O755   O     0.10655   0.12709   0.75000   0.00000  Uiso   1.00
O756   O     0.16666   0.20627   0.68513   0.00000  Uiso   1.00
O757   O     0.16668   0.12707   0.81487   0.00000  Uiso   1.00
O758   O     0.16668   0.20627   0.81487   0.00000  Uiso   1.00
O759   O     0.16666   0.12707   0.68513   0.00000  Uiso   1.00
O760   O     0.11793   0.05039   0.95432   0.00000  Uiso   1.00
C761   C     0.42081   0.16653   0.75042   0.00000  Uiso   1.00
C762   C     0.37616   0.16602   0.75117   0.00000  Uiso   1.00
C763   C     0.47542   0.02465   0.72129   0.00000  Uiso   1.00
C764   C     0.52457   0.30868   0.77873   0.00000  Uiso   1.00
C765   C     0.52457   0.02495   0.77872   0.00000  Uiso   1.00
C766   C     0.47541   0.30838   0.72130   0.00000  Uiso   1.00
C767   C     0.50013   0.16659   0.66433   0.00000  Uiso   1.00
C768   C     0.50007   0.16668   0.83564   0.00000  Uiso   1.00
C769   C     0.52095   0.20249   0.90684   0.00000  Uiso   1.00
C770   C     0.48575   0.12749   0.59306   0.00000  Uiso   1.00
C771   C     0.50132   0.16633   0.88397   0.00000  Uiso   1.00
C772   C     0.57919   0.16680   0.74955   0.00000  Uiso   1.00
C773   C     0.50154   0.16599   0.61597   0.00000  Uiso   1.00
C774   C     0.48404   0.12879   0.90684   0.00000  Uiso   1.00
C775   C     0.51988   0.20288   0.59307   0.00000  Uiso   1.00
C776   C     0.48667   0.12615   0.95314   0.00000  Uiso   1.00
C777   C     0.52375   0.20129   0.54677   0.00000  Uiso   1.00
C778   C     0.50580   0.16350   0.97663   0.00000  Uiso   1.00
C779   C     0.50580   0.16324   0.52326   0.00000  Uiso   1.00
C780   C     0.52396   0.20169   0.95333   0.00000  Uiso   1.00
C781   C     0.48700   0.12551   0.54656   0.00000  Uiso   1.00
C782   C     0.46965   0.08751   0.97632   0.00000  Uiso   1.00
C783   C     0.46982   0.08696   0.52301   0.00000  Uiso   1.00
C784   C     0.54460   0.23743   0.52365   0.00000  Uiso   1.00
C785   C     0.45208   0.04427   0.54675   0.00000  Uiso   1.00
C786   C     0.40738   0.05251   0.56089   0.00000  Uiso   1.00
C787   C     0.56842   0.27672   0.95329   0.00000  Uiso   1.00
C788   C     0.53994   0.31709   0.94105   0.00000  Uiso   1.00
C789   C     0.54471   0.23789   0.97694   0.00000  Uiso   1.00
C790   C     0.35542   0.13998   0.71834   0.00000  Uiso   1.00
C791   C     0.64457   0.19335   0.78161   0.00000  Uiso   1.00
C792   C     0.64550   0.14110   0.71652   0.00000  Uiso   1.00
C793   C     0.35449   0.19224   0.78342   0.00000  Uiso   1.00
C794   C     0.62384   0.16731   0.74879   0.00000  Uiso   1.00
Cu795  Cu    0.50000   0.21355   0.75000   0.00000  Uiso   1.00
Cu796  Cu    0.50000   0.11978   0.75000   0.00000  Uiso   1.00
H797   H     0.53373   0.23093   0.88759   0.00000  Uiso   1.00
H798   H     0.58037   0.25939   0.57076   0.00000  Uiso   1.00
H799   H     0.40499   0.08324   0.58332   0.00000  Uiso   1.00
H800   H     0.38775   0.05857   0.53119   0.00000  Uiso   1.00
H801   H     0.39556   0.02119   0.57869   0.00000  Uiso   1.00
H802   H     0.45284   0.01275   0.52512   0.00000  Uiso   1.00
H803   H     0.47138   0.03440   0.57570   0.00000  Uiso   1.00
H804   H     0.51454   0.30486   0.91907   0.00000  Uiso   1.00
H805   H     0.52650   0.33259   0.97163   0.00000  Uiso   1.00
H806   H     0.55779   0.01128   0.92337   0.00000  Uiso   1.00
H807   H     0.59372   0.29072   0.97448   0.00000  Uiso   1.00
H808   H     0.47143   0.09999   0.61227   0.00000  Uiso   1.00
H809   H     0.58461   0.26327   0.92343   0.00000  Uiso   1.00
H810   H     0.36036   0.09797   0.66691   0.00000  Uiso   1.00
H811   H     0.63963   0.23533   0.83306   0.00000  Uiso   1.00
H812   H     0.59806   0.13095   0.67728   0.00000  Uiso   1.00
H813   H     0.40192   0.20239   0.82267   0.00000  Uiso   1.00
H814   H     0.46768   0.10246   0.88780   0.00000  Uiso   1.00
H815   H     0.53124   0.23253   0.61193   0.00000  Uiso   1.00
H816   H     0.45571   0.04322   0.69829   0.00000  Uiso   1.00
H817   H     0.54426   0.29012   0.80174   0.00000  Uiso   1.00
H818   H     0.54427   0.04375   0.80173   0.00000  Uiso   1.00
H819   H     0.45570   0.28958   0.69831   0.00000  Uiso   1.00
H820   H     0.46865   0.04208   0.92852   0.00000  Uiso   1.00
N821   N     0.50000   0.28402   0.75000   0.00000  Uiso   1.00
N822   N     0.50000   0.04931   0.75000   0.00000  Uiso   1.00
O823   O     0.43988   0.20625   0.75000   0.00000  Uiso   1.00
O824   O     0.56462   0.27328   0.54586   0.00000  Uiso   1.00
O825   O     0.37864   0.11552   0.68743   0.00000  Uiso   1.00
O826   O     0.62136   0.21780   0.81252   0.00000  Uiso   1.00
O827   O     0.62567   0.11727   0.68252   0.00000  Uiso   1.00
O828   O     0.37432   0.21608   0.81742   0.00000  Uiso   1.00
O829   O     0.56012   0.12709   0.75001   0.00000  Uiso   1.00
O830   O     0.56012   0.20625   0.75001   0.00000  Uiso   1.00
O831   O     0.43988   0.12709   0.75000   0.00000  Uiso   1.00
O832   O     0.49999   0.20627   0.68513   0.00000  Uiso   1.00
O833   O     0.50001   0.12707   0.81487   0.00000  Uiso   1.00
O834   O     0.50001   0.20627   0.81487   0.00000  Uiso   1.00
O835   O     0.49999   0.12707   0.68513   0.00000  Uiso   1.00
O836   O     0.45126   0.05039   0.95432   0.00000  Uiso   1.00
C837   C     0.75414   0.16653   0.75042   0.00000  Uiso   1.00
C838   C     0.70949   0.16602   0.75117   0.00000  Uiso   1.00
C839   C     0.80875   0.02465   0.72129   0.00000  Uiso   1.00
C840   C     0.85790   0.30868   0.77873   0.00000  Uiso   1.00
C841   C     0.85790   0.02495   0.77872   0.00000  Uiso   1.00
C842   C     0.80875   0.30838   0.72130   0.00000  Uiso   1.00
C843   C     0.83346   0.16659   0.66433   0.00000  Uiso   1.00
C844   C     0.83341   0.16668   0.83564   0.00000  Uiso   1.00
C845   C     0.85429   0.20249   0.90684   0.00000  Uiso   1.00
C846   C     0.81908   0.12749   0.59306   0.00000  Uiso   1.00
C847   C     0.83465   0.16633   0.88397   0.00000  Uiso   1.00
C848   C     0.91252   0.16680   0.74955   0.00000  Uiso   1.00
C849   C     0.83487   0.16599   0.61597   0.00000  Uiso   1.00
C850   C     0.81737   0.12879   0.90684   0.00000  Uiso   1.00
C851   C     0.85321   0.20288   0.59307   0.00000  Uiso   1.00
C852   C     0.82001   0.12615   0.95314   0.00000  Uiso   1.00
C853   C     0.85709   0.20129   0.54677   0.00000  Uiso   1.00
C854   C     0.83914   0.16350   0.97663   0.00000  Uiso   1.00
C855   C     0.83913   0.16324   0.52326   0.00000  Uiso   1.00
C856   C     0.85729   0.20169   0.95333   0.00000  Uiso   1.00
C857   C     0.82033   0.12551   0.54656   0.00000  Uiso   1.00
C858   C     0.80299   0.08751   0.97632   0.00000  Uiso   1.00
C859   C     0.80316   0.08696   0.52301   0.00000  Uiso   1.00
C860   C     0.87793   0.23743   0.52365   0.00000  Uiso   1.00
C861   C     0.78541   0.04427   0.54675   0.00000  Uiso   1.00
C862   C     0.74072   0.05251   0.56089   0.00000  Uiso   1.00
C863   C     0.90176   0.27672   0.95329   0.00000  Uiso   1.00
C864   C     0.87327   0.31709   0.94105   0.00000  Uiso   1.00
C865   C     0.87805   0.23789   0.97694   0.00000  Uiso   1.00
C866   C     0.68875   0.13998   0.71834   0.00000  Uiso   1.00
C867   C     0.97791   0.19335   0.78161   0.00000  Uiso   1.00
C868   C     0.97884   0.14110   0.71652   0.00000  Uiso   1.00
C869   C     0.68782   0.19224   0.78342   0.00000  Uiso   1.00
C870   C     0.95717   0.16731   0.74879   0.00000  Uiso   1.00
Cu871  Cu    0.83333   0.21355   0.75000   0.00000  Uiso   1.00
Cu872  Cu    0.83333   0.11978   0.75000   0.00000  Uiso   1.00
H873   H     0.86707   0.23093   0.88759   0.00000  Uiso   1.00
H874   H     0.91370   0.25939   0.57076   0.00000  Uiso   1.00
H875   H     0.73832   0.08324   0.58332   0.00000  Uiso   1.00
H876   H     0.72108   0.05857   0.53119   0.00000  Uiso   1.00
H877   H     0.72889   0.02119   0.57869   0.00000  Uiso   1.00
H878   H     0.78617   0.01275   0.52512   0.00000  Uiso   1.00
H879   H     0.80471   0.03440   0.57570   0.00000  Uiso   1.00
H880   H     0.84788   0.30486   0.91907   0.00000  Uiso   1.00
H881   H     0.85984   0.33259   0.97163   0.00000  Uiso   1.00
H882   H     0.89113   0.01128   0.92337   0.00000  Uiso   1.00
H883   H     0.92705   0.29072   0.97448   0.00000  Uiso   1.00
H884   H     0.80476   0.09999   0.61227   0.00000  Uiso   1.00
H885   H     0.91794   0.26327   0.92343   0.00000  Uiso   1.00
H886   H     0.69370   0.09797   0.66691   0.00000  Uiso   1.00
H887   H     0.97296   0.23533   0.83306   0.00000  Uiso   1.00
H888   H     0.93140   0.13095   0.67728   0.00000  Uiso   1.00
H889   H     0.73525   0.20239   0.82267   0.00000  Uiso   1.00
H890   H     0.80102   0.10246   0.88780   0.00000  Uiso   1.00
H891   H     0.86457   0.23253   0.61193   0.00000  Uiso   1.00
H892   H     0.78904   0.04322   0.69829   0.00000  Uiso   1.00
H893   H     0.87760   0.29012   0.80174   0.00000  Uiso   1.00
H894   H     0.87760   0.04375   0.80173   0.00000  Uiso   1.00
H895   H     0.78903   0.28958   0.69831   0.00000  Uiso   1.00
H896   H     0.80199   0.04208   0.92852   0.00000  Uiso   1.00
N897   N     0.83333   0.28402   0.75000   0.00000  Uiso   1.00
N898   N     0.83333   0.04931   0.75000   0.00000  Uiso   1.00
O899   O     0.77321   0.20625   0.75000   0.00000  Uiso   1.00
O900   O     0.89795   0.27328   0.54586   0.00000  Uiso   1.00
O901   O     0.71197   0.11552   0.68743   0.00000  Uiso   1.00
O902   O     0.95469   0.21780   0.81252   0.00000  Uiso   1.00
O903   O     0.95900   0.11727   0.68252   0.00000  Uiso   1.00
O904   O     0.70765   0.21608   0.81742   0.00000  Uiso   1.00
O905   O     0.89345   0.12709   0.75001   0.00000  Uiso   1.00
O906   O     0.89345   0.20625   0.75001   0.00000  Uiso   1.00
O907   O     0.77321   0.12709   0.75000   0.00000  Uiso   1.00
O908   O     0.83332   0.20627   0.68513   0.00000  Uiso   1.00
O909   O     0.83334   0.12707   0.81487   0.00000  Uiso   1.00
O910   O     0.83334   0.20627   0.81487   0.00000  Uiso   1.00
O911   O     0.83332   0.12707   0.68513   0.00000  Uiso   1.00
O912   O     0.78459   0.05039   0.95432   0.00000  Uiso   1.00
C913   C     0.08747   0.49986   0.75042   0.00000  Uiso   1.00
C914   C     0.04283   0.49936   0.75117   0.00000  Uiso   1.00
C915   C     0.14208   0.35799   0.72129   0.00000  Uiso   1.00
C916   C     0.19124   0.64201   0.77873   0.00000  Uiso   1.00
C917   C     0.19124   0.35828   0.77872   0.00000  Uiso   1.00
C918   C     0.14208   0.64172   0.72130   0.00000  Uiso   1.00
C919   C     0.16680   0.49992   0.66433   0.00000  Uiso   1.00
C920   C     0.16674   0.50001   0.83564   0.00000  Uiso   1.00
C921   C     0.18762   0.53582   0.90684   0.00000  Uiso   1.00
C922   C     0.15242   0.46082   0.59306   0.00000  Uiso   1.00
C923   C     0.16798   0.49966   0.88397   0.00000  Uiso   1.00
C924   C     0.24586   0.50013   0.74955   0.00000  Uiso   1.00
C925   C     0.16820   0.49932   0.61597   0.00000  Uiso   1.00
C926   C     0.15070   0.46213   0.90684   0.00000  Uiso   1.00
C927   C     0.18655   0.53621   0.59307   0.00000  Uiso   1.00
C928   C     0.15334   0.45949   0.95314   0.00000  Uiso   1.00
C929   C     0.19042   0.53462   0.54677   0.00000  Uiso   1.00
C930   C     0.17247   0.49683   0.97663   0.00000  Uiso   1.00
C931   C     0.17246   0.49657   0.52326   0.00000  Uiso   1.00
C932   C     0.19063   0.53502   0.95333   0.00000  Uiso   1.00
C933   C     0.15367   0.45884   0.54656   0.00000  Uiso   1.00
C934   C     0.13632   0.42084   0.97632   0.00000  Uiso   1.00
C935   C     0.13649   0.42030   0.52301   0.00000  Uiso   1.00
C936   C     0.21126   0.57076   0.52365   0.00000  Uiso   1.00
C937   C     0.11874   0.37761   0.54675   0.00000  Uiso   1.00
C938   C     0.07405   0.38584   0.56089   0.00000  Uiso   1.00
C939   C     0.23509   0.61005   0.95329   0.00000  Uiso   1.00
C940   C     0.20661   0.65042   0.94105   0.00000  Uiso   1.00
C941   C     0.21138   0.57122   0.97694   0.00000  Uiso   1.00
C942   C     0.02209   0.47331   0.71834   0.00000  Uiso   1.00
C943   C     0.31124   0.52668   0.78161   0.00000  Uiso   1.00
C944   C     0.31217   0.47443   0.71652   0.00000  Uiso   1.00
C945   C     0.02116   0.52557   0.78342   0.00000  Uiso   1.00
C946   C     0.29050   0.50064   0.74879   0.00000  Uiso   1.00
Cu947  Cu    0.16667   0.54689   0.75000   0.00000  Uiso   1.00
Cu948  Cu    0.16667   0.45311   0.75000   0.00000  Uiso   1.00
H949   H     0.20040   0.56426   0.88759   0.00000  Uiso   1.00
H950   H     0.24704   0.59272   0.57076   0.00000  Uiso   1.00
H951   H     0.07166   0.41657   0.58332   0.00000  Uiso   1.00
H952   H     0.05442   0.39191   0.53119   0.00000  Uiso   1.00
H953   H     0.06223   0.35453   0.57869   0.00000  Uiso   1.00
H954   H     0.11951   0.34609   0.52512   0.00000  Uiso   1.00
H955   H     0.13805   0.36773   0.57570   0.00000  Uiso   1.00
H956   H     0.18121   0.63819   0.91907   0.00000  Uiso   1.00
H957   H     0.19317   0.66593   0.97163   0.00000  Uiso   1.00
H958   H     0.22446   0.34461   0.92337   0.00000  Uiso   1.00
H959   H     0.26039   0.62405   0.97448   0.00000  Uiso   1.00
H960   H     0.13809   0.43332   0.61227   0.00000  Uiso   1.00
H961   H     0.25128   0.59661   0.92343   0.00000  Uiso   1.00
H962   H     0.02703   0.43130   0.66691   0.00000  Uiso   1.00
H963   H     0.30630   0.56866   0.83306   0.00000  Uiso   1.00
H964   H     0.26473   0.46428   0.67728   0.00000  Uiso   1.00
H965   H     0.06859   0.53573   0.82267   0.00000  Uiso   1.00
H966   H     0.13435   0.43580   0.88780   0.00000  Uiso   1.00
H967   H     0.19790   0.56586   0.61193   0.00000  Uiso   1.00
H968   H     0.12238   0.37655   0.69829   0.00000  Uiso   1.00
H969   H     0.21093   0.62345   0.80174   0.00000  Uiso   1.00
H970   H     0.21093   0.37709   0.80173   0.00000  Uiso   1.00
H971   H     0.12236   0.62291   0.69831   0.00000  Uiso   1.00
H972   H     0.13532   0.37541   0.92852   0.00000  Uiso   1.00
N973   N     0.16667   0.61736   0.75000   0.00000  Uiso   1.00
N974   N     0.16667   0.38264   0.75000   0.00000  Uiso   1.00
O975   O     0.10655   0.53958   0.75000   0.00000  Uiso   1.00
O976   O     0.23129   0.60661   0.54586   0.00000  Uiso   1.00
O977   O     0.04530   0.44885   0.68743   0.00000  Uiso   1.00
O978   O     0.28802   0.55113   0.81252   0.00000  Uiso   1.00
O979   O     0.29234   0.45061   0.68252   0.00000  Uiso   1.00
O980   O     0.04099   0.54941   0.81742   0.00000  Uiso   1.00
O981   O     0.22679   0.46042   0.75001   0.00000  Uiso   1.00
O982   O     0.22679   0.53958   0.75001   0.00000  Uiso   1.00
O983   O     0.10655   0.46042   0.75000   0.00000  Uiso   1.00
O984   O     0.16666   0.53960   0.68513   0.00000  Uiso   1.00
O985   O     0.16668   0.46040   0.81487   0.00000  Uiso   1.00
O986   O     0.16668   0.53960   0.81487   0.00000  Uiso   1.00
O987   O     0.16666   0.46040   0.68513   0.00000  Uiso   1.00
O988   O     0.11793   0.38372   0.95432   0.00000  Uiso   1.00
C989   C     0.42081   0.49986   0.75042   0.00000  Uiso   1.00
C990   C     0.37616   0.49936   0.75117   0.00000  Uiso   1.00
C991   C     0.47542   0.35799   0.72129   0.00000  Uiso   1.00
C992   C     0.52457   0.64201   0.77873   0.00000  Uiso   1.00
C993   C     0.52457   0.35828   0.77872   0.00000  Uiso   1.00
C994   C     0.47541   0.64172   0.72130   0.00000  Uiso   1.00
C995   C     0.50013   0.49992   0.66433   0.00000  Uiso   1.00
C996   C     0.50007   0.50001   0.83564   0.00000  Uiso   1.00
C997   C     0.52095   0.53582   0.90684   0.00000  Uiso   1.00
C998   C     0.48575   0.46082   0.59306   0.00000  Uiso   1.00
C999   C     0.50132   0.49966   0.88397   0.00000  Uiso   1.00
C1000  C     0.57919   0.50013   0.74955   0.00000  Uiso   1.00
C1001  C     0.50154   0.49932   0.61597   0.00000  Uiso   1.00
C1002  C     0.48404   0.46213   0.90684   0.00000  Uiso   1.00
C1003  C     0.51988   0.53621   0.59307   0.00000  Uiso   1.00
C1004  C     0.48667   0.45949   0.95314   0.00000  Uiso   1.00
C1005  C     0.52375   0.53462   0.54677   0.00000  Uiso   1.00
C1006  C     0.50580   0.49683   0.97663   0.00000  Uiso   1.00
C1007  C     0.50580   0.49657   0.52326   0.00000  Uiso   1.00
C1008  C     0.52396   0.53502   0.95333   0.00000  Uiso   1.00
C1009  C     0.48700   0.45884   0.54656   0.00000  Uiso   1.00
C1010  C     0.46965   0.42084   0.97632   0.00000  Uiso   1.00
C1011  C     0.46982   0.42030   0.52301   0.00000  Uiso   1.00
C1012  C     0.54460   0.57076   0.52365   0.00000  Uiso   1.00
C1013  C     0.45208   0.37761   0.54675   0.00000  Uiso   1.00
C1014  C     0.40738   0.38584   0.56089   0.00000  Uiso   1.00
C1015  C     0.56842   0.61005   0.95329   0.00000  Uiso   1.00
C1016  C     0.53994   0.65042   0.94105   0.00000  Uiso   1.00
C1017  C     0.54471   0.57122   0.97694   0.00000  Uiso   1.00
C1018  C     0.35542   0.47331   0.71834   0.00000  Uiso   1.00
C1019  C     0.64457   0.52668   0.78161   0.00000  Uiso   1.00
C1020  C     0.64550   0.47443   0.71652   0.00000  Uiso   1.00
C1021  C     0.35449   0.52557   0.78342   0.00000  Uiso   1.00
C1022  C     0.62384   0.50064   0.74879   0.00000  Uiso   1.00
Cu1023 Cu    0.50000   0.54689   0.75000   0.00000  Uiso   1.00
Cu1024 Cu    0.50000   0.45311   0.75000   0.00000  Uiso   1.00
H1025  H     0.53373   0.56426   0.88759   0.00000  Uiso   1.00
H1026  H     0.58037   0.59272   0.57076   0.00000  Uiso   1.00
H1027  H     0.40499   0.41657   0.58332   0.00000  Uiso   1.00
H1028  H     0.38775   0.39191   0.53119   0.00000  Uiso   1.00
H1029  H     0.39556   0.35453   0.57869   0.00000  Uiso   1.00
H1030  H     0.45284   0.34609   0.52512   0.00000  Uiso   1.00
H1031  H     0.47138   0.36773   0.57570   0.00000  Uiso   1.00
H1032  H     0.51454   0.63819   0.91907   0.00000  Uiso   1.00
H1033  H     0.52650   0.66593   0.97163   0.00000  Uiso   1.00
H1034  H     0.55779   0.34461   0.92337   0.00000  Uiso   1.00
H1035  H     0.59372   0.62405   0.97448   0.00000  Uiso   1.00
H1036  H     0.47143   0.43332   0.61227   0.00000  Uiso   1.00
H1037  H     0.58461   0.59661   0.92343   0.00000  Uiso   1.00
H1038  H     0.36036   0.43130   0.66691   0.00000  Uiso   1.00
H1039  H     0.63963   0.56866   0.83306   0.00000  Uiso   1.00
H1040  H     0.59806   0.46428   0.67728   0.00000  Uiso   1.00
H1041  H     0.40192   0.53573   0.82267   0.00000  Uiso   1.00
H1042  H     0.46768   0.43580   0.88780   0.00000  Uiso   1.00
H1043  H     0.53124   0.56586   0.61193   0.00000  Uiso   1.00
H1044  H     0.45571   0.37655   0.69829   0.00000  Uiso   1.00
H1045  H     0.54426   0.62345   0.80174   0.00000  Uiso   1.00
H1046  H     0.54427   0.37709   0.80173   0.00000  Uiso   1.00
H1047  H     0.45570   0.62291   0.69831   0.00000  Uiso   1.00
H1048  H     0.46865   0.37541   0.92852   0.00000  Uiso   1.00
N1049  N     0.50000   0.61736   0.75000   0.00000  Uiso   1.00
N1050  N     0.50000   0.38264   0.75000   0.00000  Uiso   1.00
O1051  O     0.43988   0.53958   0.75000   0.00000  Uiso   1.00
O1052  O     0.56462   0.60661   0.54586   0.00000  Uiso   1.00
O1053  O     0.37864   0.44885   0.68743   0.00000  Uiso   1.00
O1054  O     0.62136   0.55113   0.81252   0.00000  Uiso   1.00
O1055  O     0.62567   0.45061   0.68252   0.00000  Uiso   1.00
O1056  O     0.37432   0.54941   0.81742   0.00000  Uiso   1.00
O1057  O     0.56012   0.46042   0.75001   0.00000  Uiso   1.00
O1058  O     0.56012   0.53958   0.75001   0.00000  Uiso   1.00
O1059  O     0.43988   0.46042   0.75000   0.00000  Uiso   1.00
O1060  O     0.49999   0.53960   0.68513   0.00000  Uiso   1.00
O1061  O     0.50001   0.46040   0.81487   0.00000  Uiso   1.00
O1062  O     0.50001   0.53960   0.81487   0.00000  Uiso   1.00
O1063  O     0.49999   0.46040   0.68513   0.00000  Uiso   1.00
O1064  O     0.45126   0.38372   0.95432   0.00000  Uiso   1.00
C1065  C     0.75414   0.49986   0.75042   0.00000  Uiso   1.00
C1066  C     0.70949   0.49936   0.75117   0.00000  Uiso   1.00
C1067  C     0.80875   0.35799   0.72129   0.00000  Uiso   1.00
C1068  C     0.85790   0.64201   0.77873   0.00000  Uiso   1.00
C1069  C     0.85790   0.35828   0.77872   0.00000  Uiso   1.00
C1070  C     0.80875   0.64172   0.72130   0.00000  Uiso   1.00
C1071  C     0.83346   0.49992   0.66433   0.00000  Uiso   1.00
C1072  C     0.83341   0.50001   0.83564   0.00000  Uiso   1.00
C1073  C     0.85429   0.53582   0.90684   0.00000  Uiso   1.00
C1074  C     0.81908   0.46082   0.59306   0.00000  Uiso   1.00
C1075  C     0.83465   0.49966   0.88397   0.00000  Uiso   1.00
C1076  C     0.91252   0.50013   0.74955   0.00000  Uiso   1.00
C1077  C     0.83487   0.49932   0.61597   0.00000  Uiso   1.00
C1078  C     0.81737   0.46213   0.90684   0.00000  Uiso   1.00
C1079  C     0.85321   0.53621   0.59307   0.00000  Uiso   1.00
C1080  C     0.82001   0.45949   0.95314   0.00000  Uiso   1.00
C1081  C     0.85709   0.53462   0.54677   0.00000  Uiso   1.00
C1082  C     0.83914   0.49683   0.97663   0.00000  Uiso   1.00
C1083  C     0.83913   0.49657   0.52326   0.00000  Uiso   1.00
C1084  C     0.85729   0.53502   0.95333   0.00000  Uiso   1.00
C1085  C     0.82033   0.45884   0.54656   0.00000  Uiso   1.00
C1086  C     0.80299   0.42084   0.97632   0.00000  Uiso   1.00
C1087  C     0.80316   0.42030   0.52301   0.00000  Uiso   1.00
C1088  C     0.87793   0.57076   0.52365   0.00000  Uiso   1.00
C1089  C     0.78541   0.37761   0.54675   0.00000  Uiso   1.00
C1090  C     0.74072   0.38584   0.56089   0.00000  Uiso   1.00
C1091  C     0.90176   0.61005   0.95329   0.00000  Uiso   1.00
C1092  C     0.87327   0.65042   0.94105   0.00000  Uiso   1.00
C1093  C     0.87805   0.57122   0.97694   0.00000  Uiso   1.00
C1094  C     0.68875   0.47331   0.71834   0.00000  Uiso   1.00
C1095  C     0.97791   0.52668   0.78161   0.00000  Uiso   1.00
C1096  C     0.97884   0.47443   0.71652   0.00000  Uiso   1.00
C1097  C     0.68782   0.52557   0.78342   0.00000  Uiso   1.00
C1098  C     0.95717   0.50064   0.74879   0.00000  Uiso   1.00
Cu1099 Cu    0.83333   0.54689   0.75000   0.00000  Uiso   1.00
Cu1100 Cu    0.83333   0.45311   0.75000   0.00000  Uiso   1.00
H1101  H     0.86707   0.56426   0.88759   0.00000  Uiso   1.00
H1102  H     0.91370   0.59272   0.57076   0.00000  Uiso   1.00
H1103  H     0.73832   0.41657   0.58332   0.00000  Uiso   1.00
H1104  H     0.72108   0.39191   0.53119   0.00000  Uiso   1.00
H1105  H     0.72889   0.35453   0.57869   0.00000  Uiso   1.00
H1106  H     0.78617   0.34609   0.52512   0.00000  Uiso   1.00
H1107  H     0.80471   0.36773   0.57570   0.00000  Uiso   1.00
H1108  H     0.84788   0.63819   0.91907   0.00000  Uiso   1.00
H1109  H     0.85984   0.66593   0.97163   0.00000  Uiso   1.00
H1110  H     0.89113   0.34461   0.92337   0.00000  Uiso   1.00
H1111  H     0.92705   0.62405   0.97448   0.00000  Uiso   1.00
H1112  H     0.80476   0.43332   0.61227   0.00000  Uiso   1.00
H1113  H     0.91794   0.59661   0.92343   0.00000  Uiso   1.00
H1114  H     0.69370   0.43130   0.66691   0.00000  Uiso   1.00
H1115  H     0.97296   0.56866   0.83306   0.00000  Uiso   1.00
H1116  H     0.93140   0.46428   0.67728   0.00000  Uiso   1.00
H1117  H     0.73525   0.53573   0.82267   0.00000  Uiso   1.00
H1118  H     0.80102   0.43580   0.88780   0.00000  Uiso   1.00
H1119  H     0.86457   0.56586   0.61193   0.00000  Uiso   1.00
H1120  H     0.78904   0.37655   0.69829   0.00000  Uiso   1.00
H1121  H     0.87760   0.62345   0.80174   0.00000  Uiso   1.00
H1122  H     0.87760   0.37709   0.80173   0.00000  Uiso   1.00
H1123  H     0.78903   0.62291   0.69831   0.00000  Uiso   1.00
H1124  H     0.80199   0.37541   0.92852   0.00000  Uiso   1.00
N1125  N     0.83333   0.61736   0.75000   0.00000  Uiso   1.00
N1126  N     0.83333   0.38264   0.75000   0.00000  Uiso   1.00
O1127  O     0.77321   0.53958   0.75000   0.00000  Uiso   1.00
O1128  O     0.89795   0.60661   0.54586   0.00000  Uiso   1.00
O1129  O     0.71197   0.44885   0.68743   0.00000  Uiso   1.00
O1130  O     0.95469   0.55113   0.81252   0.00000  Uiso   1.00
O1131  O     0.95900   0.45061   0.68252   0.00000  Uiso   1.00
O1132  O     0.70765   0.54941   0.81742   0.00000  Uiso   1.00
O1133  O     0.89345   0.46042   0.75001   0.00000  Uiso   1.00
O1134  O     0.89345   0.53958   0.75001   0.00000  Uiso   1.00
O1135  O     0.77321   0.46042   0.75000   0.00000  Uiso   1.00
O1136  O     0.83332   0.53960   0.68513   0.00000  Uiso   1.00
O1137  O     0.83334   0.46040   0.81487   0.00000  Uiso   1.00
O1138  O     0.83334   0.53960   0.81487   0.00000  Uiso   1.00
O1139  O     0.83332   0.46040   0.68513   0.00000  Uiso   1.00
O1140  O     0.78459   0.38372   0.95432   0.00000  Uiso   1.00
C1141  C     0.08747   0.83320   0.75042   0.00000  Uiso   1.00
C1142  C     0.04283   0.83269   0.75117   0.00000  Uiso   1.00
C1143  C     0.14208   0.69132   0.72129   0.00000  Uiso   1.00
C1144  C     0.19124   0.97535   0.77873   0.00000  Uiso   1.00
C1145  C     0.19124   0.69162   0.77872   0.00000  Uiso   1.00
C1146  C     0.14208   0.97505   0.72130   0.00000  Uiso   1.00
C1147  C     0.16680   0.83326   0.66433   0.00000  Uiso   1.00
C1148  C     0.16674   0.83334   0.83564   0.00000  Uiso   1.00
C1149  C     0.18762   0.86915   0.90684   0.00000  Uiso   1.00
C1150  C     0.15242   0.79416   0.59306   0.00000  Uiso   1.00
C1151  C     0.16798   0.83299   0.88397   0.00000  Uiso   1.00
C1152  C     0.24586   0.83347   0.74955   0.00000  Uiso   1.00
C1153  C     0.16820   0.83265   0.61597   0.00000  Uiso   1.00
C1154  C     0.15070   0.79546   0.90684   0.00000  Uiso   1.00
C1155  C     0.18655   0.86954   0.59307   0.00000  Uiso   1.00
C1156  C     0.15334   0.79282   0.95314   0.00000  Uiso   1.00
C1157  C     0.19042   0.86796   0.54677   0.00000  Uiso   1.00
C1158  C     0.17247   0.83017   0.97663   0.00000  Uiso   1.00
C1159  C     0.17246   0.82990   0.52326   0.00000  Uiso   1.00
C1160  C     0.19063   0.86836   0.95333   0.00000  Uiso   1.00
C1161  C     0.15367   0.79218   0.54656   0.00000  Uiso   1.00
C1162  C     0.13632   0.75418   0.97632   0.00000  Uiso   1.00
C1163  C     0.13649   0.75363   0.52301   0.00000  Uiso   1.00
C1164  C     0.21126   0.90409   0.52365   0.00000  Uiso   1.00
C1165  C     0.11874   0.71094   0.54675   0.00000  Uiso   1.00
C1166  C     0.07405   0.71918   0.56089   0.00000  Uiso   1.00
C1167  C     0.23509   0.94338   0.95329   0.00000  Uiso   1.00
C1168  C     0.20661   0.98376   0.94105   0.00000  Uiso   1.00
C1169  C     0.21138   0.90456   0.97694   0.00000  Uiso   1.00
C1170  C     0.02209   0.80665   0.71834   0.00000  Uiso   1.00
C1171  C     0.31124   0.86001   0.78161   0.00000  Uiso   1.00
C1172  C     0.31217   0.80777   0.71652   0.00000  Uiso   1.00
C1173  C     0.02116   0.85890   0.78342   0.00000  Uiso   1.00
C1174  C     0.29050   0.83397   0.74879   0.00000  Uiso   1.00
Cu1175 Cu    0.16667   0.88022   0.75000   0.00000  Uiso   1.00
Cu1176 Cu    0.16667   0.78645   0.75000   0.00000  Uiso   1.00
H1177  H     0.20040   0.89760   0.88759   0.00000  Uiso   1.00
H1178  H     0.24704   0.92605   0.57076   0.00000  Uiso   1.00
H1179  H     0.07166   0.74990   0.58332   0.00000  Uiso   1.00
H1180  H     0.05442   0.72524   0.53119   0.00000  Uiso   1.00
H1181  H     0.06223   0.68786   0.57869   0.00000  Uiso   1.00
H1182  H     0.11951   0.67942   0.52512   0.00000  Uiso   1.00
H1183  H     0.13805   0.70107   0.57570   0.00000  Uiso   1.00
H1184  H     0.18121   0.97152   0.91907   0.00000  Uiso   1.00
H1185  H     0.19317   0.99926   0.97163   0.00000  Uiso   1.00
H1186  H     0.22446   0.67794   0.92337   0.00000  Uiso   1.00
H1187  H     0.26039   0.95739   0.97448   0.00000  Uiso   1.00
H1188  H     0.13809   0.76665   0.61227   0.00000  Uiso   1.00
H1189  H     0.25128   0.92994   0.92343   0.00000  Uiso   1.00
H1190  H     0.02703   0.76464   0.66691   0.00000  Uiso   1.00
H1191  H     0.30630   0.90199   0.83306   0.00000  Uiso   1.00
H1192  H     0.26473   0.79761   0.67728   0.00000  Uiso   1.00
H1193  H     0.06859   0.86906   0.82267   0.00000  Uiso   1.00
H1194  H     0.13435   0.76913   0.88780   0.00000  Uiso   1.00
H1195  H     0.19790   0.89919   0.61193   0.00000  Uiso   1.00
H1196  H     0.12238   0.70988   0.69829   0.00000  Uiso   1.00
H1197  H     0.21093   0.95678   0.80174   0.00000  Uiso   1.00
H1198  H     0.21093   0.71042   0.80173   0.00000  Uiso   1.00
H1199  H     0.12236   0.95625   0.69831   0.00000  Uiso   1.00
H1200  H     0.13532   0.70875   0.92852   0.00000  Uiso   1.00
N1201  N     0.16667   0.95069   0.75000   0.00000  Uiso   1.00
N1202  N     0.16667   0.71598   0.75000   0.00000  Uiso   1.00
O1203  O     0.10655   0.87291   0.75000   0.00000  Uiso   1.00
O1204  O     0.23129   0.93995   0.54586   0.00000  Uiso   1.00
O1205  O     0.04530   0.78218   0.68743   0.00000  Uiso   1.00
O1206  O     0.28802   0.88447   0.81252   0.00000  Uiso   1.00
O1207  O     0.29234   0.78394   0.68252   0.00000  Uiso   1.00
O1208  O     0.04099   0.88275   0.81742   0.00000  Uiso   1.00
O1209  O     0.22679   0.79375   0.75001   0.00000  Uiso   1.00
O1210  O     0.22679   0.87291   0.75001   0.00000  Uiso   1.00
O1211  O     0.10655   0.79375   0.75000   0.00000  Uiso   1.00
O1212  O     0.16666   0.87293   0.68513   0.00000  Uiso   1.00
O1213  O     0.16668   0.79373   0.81487   0.00000  Uiso   1.00
O1214  O     0.16668   0.87293   0.81487   0.00000  Uiso   1.00
O1215  O     0.16666   0.79373   0.68513   0.00000  Uiso   1.00
O1216  O     0.11793   0.71706   0.95432   0.00000  Uiso   1.00
C1217  C     0.42081   0.83320   0.75042   0.00000  Uiso   1.00
C1218  C     0.37616   0.83269   0.75117   0.00000  Uiso   1.00
C1219  C     0.47542   0.69132   0.72129   0.00000  Uiso   1.00
C1220  C     0.52457   0.97535   0.77873   0.00000  Uiso   1.00
C1221  C     0.52457   0.69162   0.77872   0.00000  Uiso   1.00
C1222  C     0.47541   0.97505   0.72130   0.00000  Uiso   1.00
C1223  C     0.50013   0.83326   0.66433   0.00000  Uiso   1.00
C1224  C     0.50007   0.83334   0.83564   0.00000  Uiso   1.00
C1225  C     0.52095   0.86915   0.90684   0.00000  Uiso   1.00
C1226  C     0.48575   0.79416   0.59306   0.00000  Uiso   1.00
C1227  C     0.50132   0.83299   0.88397   0.00000  Uiso   1.00
C1228  C     0.57919   0.83347   0.74955   0.00000  Uiso   1.00
C1229  C     0.50154   0.83265   0.61597   0.00000  Uiso   1.00
C1230  C     0.48404   0.79546   0.90684   0.00000  Uiso   1.00
C1231  C     0.51988   0.86954   0.59307   0.00000  Uiso   1.00
C1232  C     0.48667   0.79282   0.95314   0.00000  Uiso   1.00
C1233  C     0.52375   0.86796   0.54677   0.00000  Uiso   1.00
C1234  C     0.50580   0.83017   0.97663   0.00000  Uiso   1.00
C1235  C     0.50580   0.82990   0.52326   0.00000  Uiso   1.00
C1236  C     0.52396   0.86836   0.95333   0.00000  Uiso   1.00
C1237  C     0.48700   0.79218   0.54656   0.00000  Uiso   1.00
C1238  C     0.46965   0.75418   0.97632   0.00000  Uiso   1.00
C1239  C     0.46982   0.75363   0.52301   0.00000  Uiso   1.00
C1240  C     0.54460   0.90409   0.52365   0.00000  Uiso   1.00
C1241  C     0.45208   0.71094   0.54675   0.00000  Uiso   1.00
C1242  C     0.40738   0.71918   0.56089   0.00000  Uiso   1.00
C1243  C     0.56842   0.94338   0.95329   0.00000  Uiso   1.00
C1244  C     0.53994   0.98376   0.94105   0.00000  Uiso   1.00
C1245  C     0.54471   0.90456   0.97694   0.00000  Uiso   1.00
C1246  C     0.35542   0.80665   0.71834   0.00000  Uiso   1.00
C1247  C     0.64457   0.86001   0.78161   0.00000  Uiso   1.00
C1248  C     0.64550   0.80777   0.71652   0.00000  Uiso   1.00
C1249  C     0.35449   0.85890   0.78342   0.00000  Uiso   1.00
C1250  C     0.62384   0.83397   0.74879   0.00000  Uiso   1.00
Cu1251 Cu    0.50000   0.88022   0.75000   0.00000  Uiso   1.00
Cu1252 Cu    0.50000   0.78645   0.75000   0.00000  Uiso   1.00
H1253  H     0.53373   0.89760   0.88759   0.00000  Uiso   1.00
H1254  H     0.58037   0.92605   0.57076   0.00000  Uiso   1.00
H1255  H     0.40499   0.74990   0.58332   0.00000  Uiso   1.00
H1256  H     0.38775   0.72524   0.53119   0.00000  Uiso   1.00
H1257  H     0.39556   0.68786   0.57869   0.00000  Uiso   1.00
H1258  H     0.45284   0.67942   0.52512   0.00000  Uiso   1.00
H1259  H     0.47138   0.70107   0.57570   0.00000  Uiso   1.00
H1260  H     0.51454   0.97152   0.91907   0.00000  Uiso   1.00
H1261  H     0.52650   0.99926   0.97163   0.00000  Uiso   1.00
H1262  H     0.55779   0.67794   0.92337   0.00000  Uiso   1.00
H1263  H     0.59372   0.95739   0.97448   0.00000  Uiso   1.00
H1264  H     0.47143   0.76665   0.61227   0.00000  Uiso   1.00
H1265  H     0.58461   0.92994   0.92343   0.00000  Uiso   1.00
H1266  H     0.36036   0.76464   0.66691   0.00000  Uiso   1.00
H1267  H     0.63963   0.90199   0.83306   0.00000  Uiso   1.00
H1268  H     0.59806   0.79761   0.67728   0.00000  Uiso   1.00
H1269  H     0.40192   0.86906   0.82267   0.00000  Uiso   1.00
H1270  H     0.46768   0.76913   0.88780   0.00000  Uiso   1.00
H1271  H     0.53124   0.89919   0.61193   0.00000  Uiso   1.00
H1272  H     0.45571   0.70988   0.69829   0.00000  Uiso   1.00
H1273  H     0.54426   0.95678   0.80174   0.00000  Uiso   1.00
H1274  H     0.54427   0.71042   0.80173   0.00000  Uiso   1.00
H1275  H     0.45570   0.95625   0.69831   0.00000  Uiso   1.00
H1276  H     0.46865   0.70875   0.92852   0.00000  Uiso   1.00
N1277  N     0.50000   0.95069   0.75000   0.00000  Uiso   1.00
N1278  N     0.50000   0.71598   0.75000   0.00000  Uiso   1.00
O1279  O     0.43988   0.87291   0.75000   0.00000  Uiso   1.00
O1280  O     0.56462   0.93995   0.54586   0.00000  Uiso   1.00
O1281  O     0.37864   0.78218   0.68743   0.00000  Uiso   1.00
O1282  O     0.62136   0.88447   0.81252   0.00000  Uiso   1.00
O1283  O     0.62567   0.78394   0.68252   0.00000  Uiso   1.00
O1284  O     0.37432   0.88275   0.81742   0.00000  Uiso   1.00
O1285  O     0.56012   0.79375   0.75001   0.00000  Uiso   1.00
O1286  O     0.56012   0.87291   0.75001   0.00000  Uiso   1.00
O1287  O     0.43988   0.79375   0.75000   0.00000  Uiso   1.00
O1288  O     0.49999   0.87293   0.68513   0.00000  Uiso   1.00
O1289  O     0.50001   0.79373   0.81487   0.00000  Uiso   1.00
O1290  O     0.50001   0.87293   0.81487   0.00000  Uiso   1.00
O1291  O     0.49999   0.79373   0.68513   0.00000  Uiso   1.00
O1292  O     0.45126   0.71706   0.95432   0.00000  Uiso   1.00
C1293  C     0.75414   0.83320   0.75042   0.00000  Uiso   1.00
C1294  C     0.70949   0.83269   0.75117   0.00000  Uiso   1.00
C1295  C     0.80875   0.69132   0.72129   0.00000  Uiso   1.00
C1296  C     0.85790   0.97535   0.77873   0.00000  Uiso   1.00
C1297  C     0.85790   0.69162   0.77872   0.00000  Uiso   1.00
C1298  C     0.80875   0.97505   0.72130   0.00000  Uiso   1.00
C1299  C     0.83346   0.83326   0.66433   0.00000  Uiso   1.00
C1300  C     0.83341   0.83334   0.83564   0.00000  Uiso   1.00
C1301  C     0.85429   0.86915   0.90684   0.00000  Uiso   1.00
C1302  C     0.81908   0.79416   0.59306   0.00000  Uiso   1.00
C1303  C     0.83465   0.83299   0.88397   0.00000  Uiso   1.00
C1304  C     0.91252   0.83347   0.74955   0.00000  Uiso   1.00
C1305  C     0.83487   0.83265   0.61597   0.00000  Uiso   1.00
C1306  C     0.81737   0.79546   0.90684   0.00000  Uiso   1.00
C1307  C     0.85321   0.86954   0.59307   0.00000  Uiso   1.00
C1308  C     0.82001   0.79282   0.95314   0.00000  Uiso   1.00
C1309  C     0.85709   0.86796   0.54677   0.00000  Uiso   1.00
C1310  C     0.83914   0.83017   0.97663   0.00000  Uiso   1.00
C1311  C     0.83913   0.82990   0.52326   0.00000  Uiso   1.00
C1312  C     0.85729   0.86836   0.95333   0.00000  Uiso   1.00
C1313  C     0.82033   0.79218   0.54656   0.00000  Uiso   1.00
C1314  C     0.80299   0.75418   0.97632   0.00000  Uiso   1.00
C1315  C     0.80316   0.75363   0.52301   0.00000  Uiso   1.00
C1316  C     0.87793   0.90409   0.52365   0.00000  Uiso   1.00
C1317  C     0.78541   0.71094   0.54675   0.00000  Uiso   1.00
C1318  C     0.74072   0.71918   0.56089   0.00000  Uiso   1.00
C1319  C     0.90176   0.94338   0.95329   0.00000  Uiso   1.00
C1320  C     0.87327   0.98376   0.94105   0.00000  Uiso   1.00
C1321  C     0.87805   0.90456   0.97694   0.00000  Uiso   1.00
C1322  C     0.68875   0.80665   0.71834   0.00000  Uiso   1.00
C1323  C     0.97791   0.86001   0.78161   0.00000  Uiso   1.00
C1324  C     0.97884   0.80777   0.71652   0.00000  Uiso   1.00
C1325  C     0.68782   0.85890   0.78342   0.00000  Uiso   1.00
C1326  C     0.95717   0.83397   0.74879   0.00000  Uiso   1.00
Cu1327 Cu    0.83333   0.88022   0.75000   0.00000  Uiso   1.00
Cu1328 Cu    0.83333   0.78645   0.75000   0.00000  Uiso   1.00
H1329  H     0.86707   0.89760   0.88759   0.00000  Uiso   1.00
H1330  H     0.91370   0.92605   0.57076   0.00000  Uiso   1.00
H1331  H     0.73832   0.74990   0.58332   0.00000  Uiso   1.00
H1332  H     0.72108   0.72524   0.53119   0.00000  Uiso   1.00
H1333  H     0.72889   0.68786   0.57869   0.00000  Uiso   1.00
H1334  H     0.78617   0.67942   0.52512   0.00000  Uiso   1.00
H1335  H     0.80471   0.70107   0.57570   0.00000  Uiso   1.00
H1336  H     0.84788   0.97152   0.91907   0.00000  Uiso   1.00
H1337  H     0.85984   0.99926   0.97163   0.00000  Uiso   1.00
H1338  H     0.89113   0.67794   0.92337   0.00000  Uiso   1.00
H1339  H     0.92705   0.95739   0.97448   0.00000  Uiso   1.00
H1340  H     0.80476   0.76665   0.61227   0.00000  Uiso   1.00
H1341  H     0.91794   0.92994   0.92343   0.00000  Uiso   1.00
H1342  H     0.69370   0.76464   0.66691   0.00000  Uiso   1.00
H1343  H     0.97296   0.90199   0.83306   0.00000  Uiso   1.00
H1344  H     0.93140   0.79761   0.67728   0.00000  Uiso   1.00
H1345  H     0.73525   0.86906   0.82267   0.00000  Uiso   1.00
H1346  H     0.80102   0.76913   0.88780   0.00000  Uiso   1.00
H1347  H     0.86457   0.89919   0.61193   0.00000  Uiso   1.00
H1348  H     0.78904   0.70988   0.69829   0.00000  Uiso   1.00
H1349  H     0.87760   0.95678   0.80174   0.00000  Uiso   1.00
H1350  H     0.87760   0.71042   0.80173   0.00000  Uiso   1.00
H1351  H     0.78903   0.95625   0.69831   0.00000  Uiso   1.00
H1352  H     0.80199   0.70875   0.92852   0.00000  Uiso   1.00
N1353  N     0.83333   0.95069   0.75000   0.00000  Uiso   1.00
N1354  N     0.83333   0.71598   0.75000   0.00000  Uiso   1.00
O1355  O     0.77321   0.87291   0.75000   0.00000  Uiso   1.00
O1356  O     0.89795   0.93995   0.54586   0.00000  Uiso   1.00
O1357  O     0.71197   0.78218   0.68743   0.00000  Uiso   1.00
O1358  O     0.95469   0.88447   0.81252   0.00000  Uiso   1.00
O1359  O     0.95900   0.78394   0.68252   0.00000  Uiso   1.00
O1360  O     0.70765   0.88275   0.81742   0.00000  Uiso   1.00
O1361  O     0.89345   0.79375   0.75001   0.00000  Uiso   1.00
O1362  O     0.89345   0.87291   0.75001   0.00000  Uiso   1.00
O1363  O     0.77321   0.79375   0.75000   0.00000  Uiso   1.00
O1364  O     0.83332   0.87293   0.68513   0.00000  Uiso   1.00
O1365  O     0.83334   0.79373   0.81487   0.00000  Uiso   1.00
O1366  O     0.83334   0.87293   0.81487   0.00000  Uiso   1.00
O1367  O     0.83332   0.79373   0.68513   0.00000  Uiso   1.00
O1368  O     0.78459   0.71706   0.95432   0.00000  Uiso   1.00
loop_
_geom_bond_atom_site_label_1
_geom_bond_atom_site_label_2
_geom_bond_distance
_geom_bond_site_symmetry_2
_ccdc_geom_bond_type
C1     O71     1.287   .     A
C1     C2      1.445   .     S
C1     O63     1.289   .     A
C2     C33     1.414   .     A
C2     C30     1.405   .     A
C3     H56     1.082   .     S
C3     N62     1.367   .     A
C3     C462    1.417   1_545 S
C4     H57     1.082   .     S
C4     N61     1.367   .     A
C4     C233    1.417   .     S
C5     H58     1.082   .     S
C5     N62     1.367   .     A
C5     C460    1.417   1_545 S
C6     N61     1.367   .     A
C6     H59     1.082   .     S
C6     C231    1.417   .     S
C7     O72     1.294   .     A
C7     O75     1.292   .     A
C7     C13     1.457   .     S
C8     O74     1.293   .     A
C8     C11     1.455   .     S
C8     O73     1.292   .     A
C9     C20     1.403   .     A
C9     H37     1.080   .     S
C9     C11     1.392   .     A
C10    C21     1.401   .     A
C10    H48     1.079   .     S
C10    C13     1.393   .     A
C11    C14     1.391   .     A
C12    O69     1.289   .     A
C12    C34     1.445   .     S
C12    O70     1.287   .     A
C13    C15     1.391   .     A
C14    H54     1.081   .     S
C14    C16     1.399   .     A
C15    H55     1.082   .     S
C15    C17     1.400   .     A
C16    C22     1.417   .     A
C16    C18     1.419   .     A
C17    C24     1.415   .     A
C17    C19     1.419   .     A
C18    C20     1.423   .     A
C18    C703    1.404   .     S
C19    C21     1.422   .     A
C19    C702    1.404   1_554 S
C20    C29     1.420   .     A
C21    C23     1.420   .     A
C22    O76     1.382   .     S
C22    C707    1.406   .     S
C23    C25     1.525   .     S
C23    C706    1.406   1_554 S
C24    O64     1.381   .     S
C24    C713    1.406   1_554 S
C25    H43     1.110   .     S
C25    C26     1.527   .     S
C25    H42     1.111   .     S
C26    H39     1.110   .     S
C26    H40     1.111   .     S
C26    H41     1.110   .     S
C27    C29     1.524   .     S
C27    H47     1.111   .     S
C27    C28     1.525   .     S
C27    H49     1.109   .     S
C28    H45     1.111   .     S
C28    H44     1.110   .     S
C28    H274    1.110   .     S
C29    C708    1.406   .     S
C30    O65     1.386   .     S
C30    C184    1.401   1_455 S
C31    O66     1.386   .     S
C31    C34     1.405   .     A
C31    C109    1.401   .     S
C32    O67     1.385   .     S
C32    C34     1.414   .     A
C32    C106    1.401   .     S
C33    O68     1.385   .     S
C33    C183    1.401   1_455 S
Cu35   O74     1.964   .     S
Cu35   Cu36    2.679   .     S
Cu35   O70     1.958   .     S
Cu35   N61     2.013   .     S
Cu35   O72     1.964   .     S
Cu35   O63     1.956   .     S
Cu36   O71     1.958   .     S
Cu36   N62     2.013   .     S
Cu36   O75     1.964   .     S
Cu36   O69     1.956   .     S
Cu36   O73     1.964   .     S
H38    O64     0.990   .     S
H46    C484    1.110   1_545 S
H50    O65     0.989   .     S
H51    O66     0.989   .     S
H52    O67     0.989   .     S
H53    O68     0.989   .     S
H60    O76     0.989   .     S
C77    O147    1.287   .     A
C77    C78     1.445   .     S
C77    O139    1.289   .     A
C78    C109    1.414   .     A
C78    C106    1.405   .     A
C79    H132    1.082   .     S
C79    N138    1.367   .     A
C79    C538    1.417   1_545 S
C80    H133    1.082   .     S
C80    N137    1.367   .     A
C80    C309    1.417   .     S
C81    H134    1.082   .     S
C81    N138    1.367   .     A
C81    C536    1.417   1_545 S
C82    N137    1.367   .     A
C82    H135    1.082   .     S
C82    C307    1.417   .     S
C83    O148    1.294   .     A
C83    O151    1.292   .     A
C83    C89     1.457   .     S
C84    O150    1.293   .     A
C84    C87     1.455   .     S
C84    O149    1.292   .     A
C85    C96     1.403   .     A
C85    H113    1.080   .     S
C85    C87     1.392   .     A
C86    C97     1.401   .     A
C86    H124    1.079   .     S
C86    C89     1.393   .     A
C87    C90     1.391   .     A
C88    O145    1.289   .     A
C88    C110    1.445   .     S
C88    O146    1.287   .     A
C89    C91     1.391   .     A
C90    H130    1.081   .     S
C90    C92     1.399   .     A
C91    H131    1.082   .     S
C91    C93     1.400   .     A
C92    C98     1.417   .     A
C92    C94     1.419   .     A
C93    C100    1.415   .     A
C93    C95     1.419   .     A
C94    C96     1.423   .     A
C94    C779    1.404   .     S
C95    C97     1.422   .     A
C95    C778    1.404   1_554 S
C96    C105    1.420   .     A
C97    C99     1.420   .     A
C98    O152    1.382   .     S
C98    C783    1.406   .     S
C99    C101    1.525   .     S
C99    C782    1.406   1_554 S
C100   O140    1.381   .     S
C100   C789    1.406   1_554 S
C101   H119    1.110   .     S
C101   C102    1.527   .     S
C101   H118    1.111   .     S
C102   H115    1.110   .     S
C102   H116    1.111   .     S
C102   H117    1.110   .     S
C103   C105    1.524   .     S
C103   H123    1.111   .     S
C103   C104    1.525   .     S
C103   H125    1.109   .     S
C104   H121    1.111   .     S
C104   H120    1.110   .     S
C104   H350    1.110   .     S
C105   C784    1.406   .     S
C106   O141    1.386   .     S
C107   O142    1.386   .     S
C107   C110    1.405   .     A
C107   C185    1.401   .     S
C108   O143    1.385   .     S
C108   C110    1.414   .     A
C108   C182    1.401   .     S
C109   O144    1.385   .     S
Cu111  O150    1.964   .     S
Cu111  Cu112   2.679   .     S
Cu111  O146    1.958   .     S
Cu111  N137    2.013   .     S
Cu111  O148    1.964   .     S
Cu111  O139    1.956   .     S
Cu112  O147    1.958   .     S
Cu112  N138    2.013   .     S
Cu112  O151    1.964   .     S
Cu112  O145    1.956   .     S
Cu112  O149    1.964   .     S
H114   O140    0.990   .     S
H122   C560    1.110   1_545 S
H126   O141    0.989   .     S
H127   O142    0.989   .     S
H128   O143    0.989   .     S
H129   O144    0.989   .     S
H136   O152    0.989   .     S
C153   O223    1.287   .     A
C153   C154    1.445   .     S
C153   O215    1.289   .     A
C154   C185    1.414   .     A
C154   C182    1.405   .     A
C155   H208    1.082   .     S
C155   N214    1.367   .     A
C155   C614    1.417   1_545 S
C156   H209    1.082   .     S
C156   N213    1.367   .     A
C156   C385    1.417   .     S
C157   H210    1.082   .     S
C157   N214    1.367   .     A
C157   C612    1.417   1_545 S
C158   N213    1.367   .     A
C158   H211    1.082   .     S
C158   C383    1.417   .     S
C159   O224    1.294   .     A
C159   O227    1.292   .     A
C159   C165    1.457   .     S
C160   O226    1.293   .     A
C160   C163    1.455   .     S
C160   O225    1.292   .     A
C161   C172    1.403   .     A
C161   H189    1.080   .     S
C161   C163    1.392   .     A
C162   C173    1.401   .     A
C162   H200    1.079   .     S
C162   C165    1.393   .     A
C163   C166    1.391   .     A
C164   O221    1.289   .     A
C164   C186    1.445   .     S
C164   O222    1.287   .     A
C165   C167    1.391   .     A
C166   H206    1.081   .     S
C166   C168    1.399   .     A
C167   H207    1.082   .     S
C167   C169    1.400   .     A
C168   C174    1.417   .     A
C168   C170    1.419   .     A
C169   C176    1.415   .     A
C169   C171    1.419   .     A
C170   C172    1.423   .     A
C170   C855    1.404   .     S
C171   C173    1.422   .     A
C171   C854    1.404   1_554 S
C172   C181    1.420   .     A
C173   C175    1.420   .     A
C174   O228    1.382   .     S
C174   C859    1.406   .     S
C175   C177    1.525   .     S
C175   C858    1.406   1_554 S
C176   O216    1.381   .     S
C176   C865    1.406   1_554 S
C177   H195    1.110   .     S
C177   C178    1.527   .     S
C177   H194    1.111   .     S
C178   H191    1.110   .     S
C178   H192    1.111   .     S
C178   H193    1.110   .     S
C179   C181    1.524   .     S
C179   H199    1.111   .     S
C179   C180    1.525   .     S
C179   H201    1.109   .     S
C180   H197    1.111   .     S
C180   H196    1.110   .     S
C180   H426    1.110   .     S
C181   C860    1.406   .     S
C182   O217    1.386   .     S
C183   O218    1.386   .     S
C183   C186    1.405   .     A
C183   C33     1.401   1_655 S
C184   O219    1.385   .     S
C184   C186    1.414   .     A
C184   C30     1.401   1_655 S
C185   O220    1.385   .     S
Cu187  O226    1.964   .     S
Cu187  Cu188   2.679   .     S
Cu187  O222    1.958   .     S
Cu187  N213    2.013   .     S
Cu187  O224    1.964   .     S
Cu187  O215    1.956   .     S
Cu188  O223    1.958   .     S
Cu188  N214    2.013   .     S
Cu188  O227    1.964   .     S
Cu188  O221    1.956   .     S
Cu188  O225    1.964   .     S
H190   O216    0.990   .     S
H198   C636    1.110   1_545 S
H202   O217    0.989   .     S
H203   O218    0.989   .     S
H204   O219    0.989   .     S
H205   O220    0.989   .     S
H212   O228    0.989   .     S
C229   O299    1.287   .     A
C229   C230    1.445   .     S
C229   O291    1.289   .     A
C230   C261    1.414   .     A
C230   C258    1.405   .     A
C231   H284    1.082   .     S
C231   N290    1.367   .     A
C232   H285    1.082   .     S
C232   N289    1.367   .     A
C232   C461    1.417   .     S
C233   H286    1.082   .     S
C233   N290    1.367   .     A
C234   N289    1.367   .     A
C234   H287    1.082   .     S
C234   C459    1.417   .     S
C235   O300    1.294   .     A
C235   O303    1.292   .     A
C235   C241    1.457   .     S
C236   O302    1.293   .     A
C236   C239    1.455   .     S
C236   O301    1.292   .     A
C237   C248    1.403   .     A
C237   H265    1.080   .     S
C237   C239    1.392   .     A
C238   C249    1.401   .     A
C238   H276    1.079   .     S
C238   C241    1.393   .     A
C239   C242    1.391   .     A
C240   O297    1.289   .     A
C240   C262    1.445   .     S
C240   O298    1.287   .     A
C241   C243    1.391   .     A
C242   H282    1.081   .     S
C242   C244    1.399   .     A
C243   H283    1.082   .     S
C243   C245    1.400   .     A
C244   C250    1.417   .     A
C244   C246    1.419   .     A
C245   C252    1.415   .     A
C245   C247    1.419   .     A
C246   C248    1.423   .     A
C246   C931    1.404   .     S
C247   C249    1.422   .     A
C247   C930    1.404   1_554 S
C248   C257    1.420   .     A
C249   C251    1.420   .     A
C250   O304    1.382   .     S
C250   C935    1.406   .     S
C251   C253    1.525   .     S
C251   C934    1.406   1_554 S
C252   O292    1.381   .     S
C252   C941    1.406   1_554 S
C253   H271    1.110   .     S
C253   C254    1.527   .     S
C253   H270    1.111   .     S
C254   H267    1.110   .     S
C254   H268    1.111   .     S
C254   H269    1.110   .     S
C255   C257    1.524   .     S
C255   H275    1.111   .     S
C255   C256    1.525   .     S
C255   H277    1.109   .     S
C256   H273    1.111   .     S
C256   H272    1.110   .     S
C256   H502    1.110   .     S
C257   C936    1.406   .     S
C258   O293    1.386   .     S
C258   C412    1.401   1_455 S
C259   O294    1.386   .     S
C259   C262    1.405   .     A
C259   C337    1.401   .     S
C260   O295    1.385   .     S
C260   C262    1.414   .     A
C260   C334    1.401   .     S
C261   O296    1.385   .     S
C261   C411    1.401   1_455 S
Cu263  O302    1.964   .     S
Cu263  Cu264   2.679   .     S
Cu263  O298    1.958   .     S
Cu263  N289    2.013   .     S
Cu263  O300    1.964   .     S
Cu263  O291    1.956   .     S
Cu264  O299    1.958   .     S
Cu264  N290    2.013   .     S
Cu264  O303    1.964   .     S
Cu264  O297    1.956   .     S
Cu264  O301    1.964   .     S
H266   O292    0.990   .     S
H278   O293    0.989   .     S
H279   O294    0.989   .     S
H280   O295    0.989   .     S
H281   O296    0.989   .     S
H288   O304    0.989   .     S
C305   O375    1.287   .     A
C305   C306    1.445   .     S
C305   O367    1.289   .     A
C306   C337    1.414   .     A
C306   C334    1.405   .     A
C307   H360    1.082   .     S
C307   N366    1.367   .     A
C308   H361    1.082   .     S
C308   N365    1.367   .     A
C308   C537    1.417   .     S
C309   H362    1.082   .     S
C309   N366    1.367   .     A
C310   N365    1.367   .     A
C310   H363    1.082   .     S
C310   C535    1.417   .     S
C311   O376    1.294   .     A
C311   O379    1.292   .     A
C311   C317    1.457   .     S
C312   O378    1.293   .     A
C312   C315    1.455   .     S
C312   O377    1.292   .     A
C313   C324    1.403   .     A
C313   H341    1.080   .     S
C313   C315    1.392   .     A
C314   C325    1.401   .     A
C314   H352    1.079   .     S
C314   C317    1.393   .     A
C315   C318    1.391   .     A
C316   O373    1.289   .     A
C316   C338    1.445   .     S
C316   O374    1.287   .     A
C317   C319    1.391   .     A
C318   H358    1.081   .     S
C318   C320    1.399   .     A
C319   H359    1.082   .     S
C319   C321    1.400   .     A
C320   C326    1.417   .     A
C320   C322    1.419   .     A
C321   C328    1.415   .     A
C321   C323    1.419   .     A
C322   C324    1.423   .     A
C322   C1007   1.404   .     S
C323   C325    1.422   .     A
C323   C1006   1.404   1_554 S
C324   C333    1.420   .     A
C325   C327    1.420   .     A
C326   O380    1.382   .     S
C326   C1011   1.406   .     S
C327   C329    1.525   .     S
C327   C1010   1.406   1_554 S
C328   O368    1.381   .     S
C328   C1017   1.406   1_554 S
C329   H347    1.110   .     S
C329   C330    1.527   .     S
C329   H346    1.111   .     S
C330   H343    1.110   .     S
C330   H344    1.111   .     S
C330   H345    1.110   .     S
C331   C333    1.524   .     S
C331   H351    1.111   .     S
C331   C332    1.525   .     S
C331   H353    1.109   .     S
C332   H349    1.111   .     S
C332   H348    1.110   .     S
C332   H578    1.110   .     S
C333   C1012   1.406   .     S
C334   O369    1.386   .     S
C335   O370    1.386   .     S
C335   C338    1.405   .     A
C335   C413    1.401   .     S
C336   O371    1.385   .     S
C336   C338    1.414   .     A
C336   C410    1.401   .     S
C337   O372    1.385   .     S
Cu339  O378    1.964   .     S
Cu339  Cu340   2.679   .     S
Cu339  O374    1.958   .     S
Cu339  N365    2.013   .     S
Cu339  O376    1.964   .     S
Cu339  O367    1.956   .     S
Cu340  O375    1.958   .     S
Cu340  N366    2.013   .     S
Cu340  O379    1.964   .     S
Cu340  O373    1.956   .     S
Cu340  O377    1.964   .     S
H342   O368    0.990   .     S
H354   O369    0.989   .     S
H355   O370    0.989   .     S
H356   O371    0.989   .     S
H357   O372    0.989   .     S
H364   O380    0.989   .     S
C381   O451    1.287   .     A
C381   C382    1.445   .     S
C381   O443    1.289   .     A
C382   C413    1.414   .     A
C382   C410    1.405   .     A
C383   H436    1.082   .     S
C383   N442    1.367   .     A
C384   H437    1.082   .     S
C384   N441    1.367   .     A
C384   C613    1.417   .     S
C385   H438    1.082   .     S
C385   N442    1.367   .     A
C386   N441    1.367   .     A
C386   H439    1.082   .     S
C386   C611    1.417   .     S
C387   O452    1.294   .     A
C387   O455    1.292   .     A
C387   C393    1.457   .     S
C388   O454    1.293   .     A
C388   C391    1.455   .     S
C388   O453    1.292   .     A
C389   C400    1.403   .     A
C389   H417    1.080   .     S
C389   C391    1.392   .     A
C390   C401    1.401   .     A
C390   H428    1.079   .     S
C390   C393    1.393   .     A
C391   C394    1.391   .     A
C392   O449    1.289   .     A
C392   C414    1.445   .     S
C392   O450    1.287   .     A
C393   C395    1.391   .     A
C394   H434    1.081   .     S
C394   C396    1.399   .     A
C395   H435    1.082   .     S
C395   C397    1.400   .     A
C396   C402    1.417   .     A
C396   C398    1.419   .     A
C397   C404    1.415   .     A
C397   C399    1.419   .     A
C398   C400    1.423   .     A
C398   C1083   1.404   .     S
C399   C401    1.422   .     A
C399   C1082   1.404   1_554 S
C400   C409    1.420   .     A
C401   C403    1.420   .     A
C402   O456    1.382   .     S
C402   C1087   1.406   .     S
C403   C405    1.525   .     S
C403   C1086   1.406   1_554 S
C404   O444    1.381   .     S
C404   C1093   1.406   1_554 S
C405   H423    1.110   .     S
C405   C406    1.527   .     S
C405   H422    1.111   .     S
C406   H419    1.110   .     S
C406   H420    1.111   .     S
C406   H421    1.110   .     S
C407   C409    1.524   .     S
C407   H427    1.111   .     S
C407   C408    1.525   .     S
C407   H429    1.109   .     S
C408   H425    1.111   .     S
C408   H424    1.110   .     S
C408   H654    1.110   .     S
C409   C1088   1.406   .     S
C410   O445    1.386   .     S
C411   O446    1.386   .     S
C411   C414    1.405   .     A
C411   C261    1.401   1_655 S
C412   O447    1.385   .     S
C412   C414    1.414   .     A
C412   C258    1.401   1_655 S
C413   O448    1.385   .     S
Cu415  O454    1.964   .     S
Cu415  Cu416   2.679   .     S
Cu415  O450    1.958   .     S
Cu415  N441    2.013   .     S
Cu415  O452    1.964   .     S
Cu415  O443    1.956   .     S
Cu416  O451    1.958   .     S
Cu416  N442    2.013   .     S
Cu416  O455    1.964   .     S
Cu416  O449    1.956   .     S
Cu416  O453    1.964   .     S
H418   O444    0.990   .     S
H430   O445    0.989   .     S
H431   O446    0.989   .     S
H432   O447    0.989   .     S
H433   O448    0.989   .     S
H440   O456    0.989   .     S
C457   O527    1.287   .     A
C457   C458    1.445   .     S
C457   O519    1.289   .     A
C458   C489    1.414   .     A
C458   C486    1.405   .     A
C459   H512    1.082   .     S
C459   N518    1.367   .     A
C460   H513    1.082   .     S
C460   N517    1.367   .     A
C460   C5      1.417   1_565 S
C461   H514    1.082   .     S
C461   N518    1.367   .     A
C462   N517    1.367   .     A
C462   H515    1.082   .     S
C462   C3      1.417   1_565 S
C463   O528    1.294   .     A
C463   O531    1.292   .     A
C463   C469    1.457   .     S
C464   O530    1.293   .     A
C464   C467    1.455   .     S
C464   O529    1.292   .     A
C465   C476    1.403   .     A
C465   H493    1.080   .     S
C465   C467    1.392   .     A
C466   C477    1.401   .     A
C466   H504    1.079   .     S
C466   C469    1.393   .     A
C467   C470    1.391   .     A
C468   O525    1.289   .     A
C468   C490    1.445   .     S
C468   O526    1.287   .     A
C469   C471    1.391   .     A
C470   H510    1.081   .     S
C470   C472    1.399   .     A
C471   H511    1.082   .     S
C471   C473    1.400   .     A
C472   C478    1.417   .     A
C472   C474    1.419   .     A
C473   C480    1.415   .     A
C473   C475    1.419   .     A
C474   C476    1.423   .     A
C474   C1159   1.404   .     S
C475   C477    1.422   .     A
C475   C1158   1.404   1_554 S
C476   C485    1.420   .     A
C477   C479    1.420   .     A
C478   O532    1.382   .     S
C478   C1163   1.406   .     S
C479   C481    1.525   .     S
C479   C1162   1.406   1_554 S
C480   O520    1.381   .     S
C480   C1169   1.406   1_554 S
C481   H499    1.110   .     S
C481   C482    1.527   .     S
C481   H498    1.111   .     S
C482   H495    1.110   .     S
C482   H496    1.111   .     S
C482   H497    1.110   .     S
C483   C485    1.524   .     S
C483   H503    1.111   .     S
C483   C484    1.525   .     S
C483   H505    1.109   .     S
C484   H501    1.111   .     S
C484   H500    1.110   .     S
C484   H46     1.110   1_565 S
C485   C1164   1.406   .     S
C486   O521    1.386   .     S
C486   C640    1.401   1_455 S
C487   O522    1.386   .     S
C487   C490    1.405   .     A
C487   C565    1.401   .     S
C488   O523    1.385   .     S
C488   C490    1.414   .     A
C488   C562    1.401   .     S
C489   O524    1.385   .     S
C489   C639    1.401   1_455 S
Cu491  O530    1.964   .     S
Cu491  Cu492   2.679   .     S
Cu491  O526    1.958   .     S
Cu491  N517    2.013   .     S
Cu491  O528    1.964   .     S
Cu491  O519    1.956   .     S
Cu492  O527    1.958   .     S
Cu492  N518    2.013   .     S
Cu492  O531    1.964   .     S
Cu492  O525    1.956   .     S
Cu492  O529    1.964   .     S
H494   O520    0.990   .     S
H506   O521    0.989   .     S
H507   O522    0.989   .     S
H508   O523    0.989   .     S
H509   O524    0.989   .     S
H516   O532    0.989   .     S
C533   O603    1.287   .     A
C533   C534    1.445   .     S
C533   O595    1.289   .     A
C534   C565    1.414   .     A
C534   C562    1.405   .     A
C535   H588    1.082   .     S
C535   N594    1.367   .     A
C536   H589    1.082   .     S
C536   N593    1.367   .     A
C536   C81     1.417   1_565 S
C537   H590    1.082   .     S
C537   N594    1.367   .     A
C538   N593    1.367   .     A
C538   H591    1.082   .     S
C538   C79     1.417   1_565 S
C539   O604    1.294   .     A
C539   O607    1.292   .     A
C539   C545    1.457   .     S
C540   O606    1.293   .     A
C540   C543    1.455   .     S
C540   O605    1.292   .     A
C541   C552    1.403   .     A
C541   H569    1.080   .     S
C541   C543    1.392   .     A
C542   C553    1.401   .     A
C542   H580    1.079   .     S
C542   C545    1.393   .     A
C543   C546    1.391   .     A
C544   O601    1.289   .     A
C544   C566    1.445   .     S
C544   O602    1.287   .     A
C545   C547    1.391   .     A
C546   H586    1.081   .     S
C546   C548    1.399   .     A
C547   H587    1.082   .     S
C547   C549    1.400   .     A
C548   C554    1.417   .     A
C548   C550    1.419   .     A
C549   C556    1.415   .     A
C549   C551    1.419   .     A
C550   C552    1.423   .     A
C550   C1235   1.404   .     S
C551   C553    1.422   .     A
C551   C1234   1.404   1_554 S
C552   C561    1.420   .     A
C553   C555    1.420   .     A
C554   O608    1.382   .     S
C554   C1239   1.406   .     S
C555   C557    1.525   .     S
C555   C1238   1.406   1_554 S
C556   O596    1.381   .     S
C556   C1245   1.406   1_554 S
C557   H575    1.110   .     S
C557   C558    1.527   .     S
C557   H574    1.111   .     S
C558   H571    1.110   .     S
C558   H572    1.111   .     S
C558   H573    1.110   .     S
C559   C561    1.524   .     S
C559   H579    1.111   .     S
C559   C560    1.525   .     S
C559   H581    1.109   .     S
C560   H577    1.111   .     S
C560   H576    1.110   .     S
C560   H122    1.110   1_565 S
C561   C1240   1.406   .     S
C562   O597    1.386   .     S
C563   O598    1.386   .     S
C563   C566    1.405   .     A
C563   C641    1.401   .     S
C564   O599    1.385   .     S
C564   C566    1.414   .     A
C564   C638    1.401   .     S
C565   O600    1.385   .     S
Cu567  O606    1.964   .     S
Cu567  Cu568   2.679   .     S
Cu567  O602    1.958   .     S
Cu567  N593    2.013   .     S
Cu567  O604    1.964   .     S
Cu567  O595    1.956   .     S
Cu568  O603    1.958   .     S
Cu568  N594    2.013   .     S
Cu568  O607    1.964   .     S
Cu568  O601    1.956   .     S
Cu568  O605    1.964   .     S
H570   O596    0.990   .     S
H582   O597    0.989   .     S
H583   O598    0.989   .     S
H584   O599    0.989   .     S
H585   O600    0.989   .     S
H592   O608    0.989   .     S
C609   O679    1.287   .     A
C609   C610    1.445   .     S
C609   O671    1.289   .     A
C610   C641    1.414   .     A
C610   C638    1.405   .     A
C611   H664    1.082   .     S
C611   N670    1.367   .     A
C612   H665    1.082   .     S
C612   N669    1.367   .     A
C612   C157    1.417   1_565 S
C613   H666    1.082   .     S
C613   N670    1.367   .     A
C614   N669    1.367   .     A
C614   H667    1.082   .     S
C614   C155    1.417   1_565 S
C615   O680    1.294   .     A
C615   O683    1.292   .     A
C615   C621    1.457   .     S
C616   O682    1.293   .     A
C616   C619    1.455   .     S
C616   O681    1.292   .     A
C617   C628    1.403   .     A
C617   H645    1.080   .     S
C617   C619    1.392   .     A
C618   C629    1.401   .     A
C618   H656    1.079   .     S
C618   C621    1.393   .     A
C619   C622    1.391   .     A
C620   O677    1.289   .     A
C620   C642    1.445   .     S
C620   O678    1.287   .     A
C621   C623    1.391   .     A
C622   H662    1.081   .     S
C622   C624    1.399   .     A
C623   H663    1.082   .     S
C623   C625    1.400   .     A
C624   C630    1.417   .     A
C624   C626    1.419   .     A
C625   C632    1.415   .     A
C625   C627    1.419   .     A
C626   C628    1.423   .     A
C626   C1311   1.404   .     S
C627   C629    1.422   .     A
C627   C1310   1.404   1_554 S
C628   C637    1.420   .     A
C629   C631    1.420   .     A
C630   O684    1.382   .     S
C630   C1315   1.406   .     S
C631   C633    1.525   .     S
C631   C1314   1.406   1_554 S
C632   O672    1.381   .     S
C632   C1321   1.406   1_554 S
C633   H651    1.110   .     S
C633   C634    1.527   .     S
C633   H650    1.111   .     S
C634   H647    1.110   .     S
C634   H648    1.111   .     S
C634   H649    1.110   .     S
C635   C637    1.524   .     S
C635   H655    1.111   .     S
C635   C636    1.525   .     S
C635   H657    1.109   .     S
C636   H653    1.111   .     S
C636   H652    1.110   .     S
C636   H198    1.110   1_565 S
C637   C1316   1.406   .     S
C638   O673    1.386   .     S
C639   O674    1.386   .     S
C639   C642    1.405   .     A
C639   C489    1.401   1_655 S
C640   O675    1.385   .     S
C640   C642    1.414   .     A
C640   C486    1.401   1_655 S
C641   O676    1.385   .     S
Cu643  O682    1.964   .     S
Cu643  Cu644   2.679   .     S
Cu643  O678    1.958   .     S
Cu643  N669    2.013   .     S
Cu643  O680    1.964   .     S
Cu643  O671    1.956   .     S
Cu644  O679    1.958   .     S
Cu644  N670    2.013   .     S
Cu644  O683    1.964   .     S
Cu644  O677    1.956   .     S
Cu644  O681    1.964   .     S
H646   O672    0.990   .     S
H658   O673    0.989   .     S
H659   O674    0.989   .     S
H660   O675    0.989   .     S
H661   O676    0.989   .     S
H668   O684    0.989   .     S
C685   O755    1.287   .     A
C685   C686    1.445   .     S
C685   O747    1.289   .     A
C686   C717    1.414   .     A
C686   C714    1.405   .     A
C687   H740    1.082   .     S
C687   N746    1.367   .     A
C687   C1146   1.417   1_545 S
C688   H741    1.082   .     S
C688   N745    1.367   .     A
C688   C917    1.417   .     S
C689   H742    1.082   .     S
C689   N746    1.367   .     A
C689   C1144   1.417   1_545 S
C690   N745    1.367   .     A
C690   H743    1.082   .     S
C690   C915    1.417   .     S
C691   O756    1.294   .     A
C691   O759    1.292   .     A
C691   C697    1.457   .     S
C692   O758    1.293   .     A
C692   C695    1.455   .     S
C692   O757    1.292   .     A
C693   C704    1.403   .     A
C693   H721    1.080   .     S
C693   C695    1.392   .     A
C694   C705    1.401   .     A
C694   H732    1.079   .     S
C694   C697    1.393   .     A
C695   C698    1.391   .     A
C696   O753    1.289   .     A
C696   C718    1.445   .     S
C696   O754    1.287   .     A
C697   C699    1.391   .     A
C698   H738    1.081   .     S
C698   C700    1.399   .     A
C699   H739    1.082   .     S
C699   C701    1.400   .     A
C700   C706    1.417   .     A
C700   C702    1.419   .     A
C701   C708    1.415   .     A
C701   C703    1.419   .     A
C702   C704    1.423   .     A
C702   C19     1.404   1_556 S
C703   C705    1.422   .     A
C704   C713    1.420   .     A
C705   C707    1.420   .     A
C706   O760    1.382   .     S
C706   C23     1.406   1_556 S
C707   C709    1.525   .     S
C708   O748    1.381   .     S
C709   H727    1.110   .     S
C709   C710    1.527   .     S
C709   H726    1.111   .     S
C710   H723    1.110   .     S
C710   H724    1.111   .     S
C710   H725    1.110   .     S
C711   C713    1.524   .     S
C711   H731    1.111   .     S
C711   C712    1.525   .     S
C711   H733    1.109   .     S
C712   H729    1.111   .     S
C712   H728    1.110   .     S
C712   H958    1.110   .     S
C713   C24     1.406   1_556 S
C714   O749    1.386   .     S
C714   C868    1.401   1_455 S
C715   O750    1.386   .     S
C715   C718    1.405   .     A
C715   C793    1.401   .     S
C716   O751    1.385   .     S
C716   C718    1.414   .     A
C716   C790    1.401   .     S
C717   O752    1.385   .     S
C717   C867    1.401   1_455 S
Cu719  O758    1.964   .     S
Cu719  Cu720   2.679   .     S
Cu719  O754    1.958   .     S
Cu719  N745    2.013   .     S
Cu719  O756    1.964   .     S
Cu719  O747    1.956   .     S
Cu720  O755    1.958   .     S
Cu720  N746    2.013   .     S
Cu720  O759    1.964   .     S
Cu720  O753    1.956   .     S
Cu720  O757    1.964   .     S
H722   O748    0.990   .     S
H730   C1168   1.110   1_545 S
H734   O749    0.989   .     S
H735   O750    0.989   .     S
H736   O751    0.989   .     S
H737   O752    0.989   .     S
H744   O760    0.989   .     S
C761   O831    1.287   .     A
C761   C762    1.445   .     S
C761   O823    1.289   .     A
C762   C793    1.414   .     A
C762   C790    1.405   .     A
C763   H816    1.082   .     S
C763   N822    1.367   .     A
C763   C1222   1.417   1_545 S
C764   H817    1.082   .     S
C764   N821    1.367   .     A
C764   C993    1.417   .     S
C765   H818    1.082   .     S
C765   N822    1.367   .     A
C765   C1220   1.417   1_545 S
C766   N821    1.367   .     A
C766   H819    1.082   .     S
C766   C991    1.417   .     S
C767   O832    1.294   .     A
C767   O835    1.292   .     A
C767   C773    1.457   .     S
C768   O834    1.293   .     A
C768   C771    1.455   .     S
C768   O833    1.292   .     A
C769   C780    1.403   .     A
C769   H797    1.080   .     S
C769   C771    1.392   .     A
C770   C781    1.401   .     A
C770   H808    1.079   .     S
C770   C773    1.393   .     A
C771   C774    1.391   .     A
C772   O829    1.289   .     A
C772   C794    1.445   .     S
C772   O830    1.287   .     A
C773   C775    1.391   .     A
C774   H814    1.081   .     S
C774   C776    1.399   .     A
C775   H815    1.082   .     S
C775   C777    1.400   .     A
C776   C782    1.417   .     A
C776   C778    1.419   .     A
C777   C784    1.415   .     A
C777   C779    1.419   .     A
C778   C780    1.423   .     A
C778   C95     1.404   1_556 S
C779   C781    1.422   .     A
C780   C789    1.420   .     A
C781   C783    1.420   .     A
C782   O836    1.382   .     S
C782   C99     1.406   1_556 S
C783   C785    1.525   .     S
C784   O824    1.381   .     S
C785   H803    1.110   .     S
C785   C786    1.527   .     S
C785   H802    1.111   .     S
C786   H799    1.110   .     S
C786   H800    1.111   .     S
C786   H801    1.110   .     S
C787   C789    1.524   .     S
C787   H807    1.111   .     S
C787   C788    1.525   .     S
C787   H809    1.109   .     S
C788   H805    1.111   .     S
C788   H804    1.110   .     S
C788   H1034   1.110   .     S
C789   C100    1.406   1_556 S
C790   O825    1.386   .     S
C791   O826    1.386   .     S
C791   C794    1.405   .     A
C791   C869    1.401   .     S
C792   O827    1.385   .     S
C792   C794    1.414   .     A
C792   C866    1.401   .     S
C793   O828    1.385   .     S
Cu795  O834    1.964   .     S
Cu795  Cu796   2.679   .     S
Cu795  O830    1.958   .     S
Cu795  N821    2.013   .     S
Cu795  O832    1.964   .     S
Cu795  O823    1.956   .     S
Cu796  O831    1.958   .     S
Cu796  N822    2.013   .     S
Cu796  O835    1.964   .     S
Cu796  O829    1.956   .     S
Cu796  O833    1.964   .     S
H798   O824    0.990   .     S
H806   C1244   1.110   1_545 S
H810   O825    0.989   .     S
H811   O826    0.989   .     S
H812   O827    0.989   .     S
H813   O828    0.989   .     S
H820   O836    0.989   .     S
C837   O907    1.287   .     A
C837   C838    1.445   .     S
C837   O899    1.289   .     A
C838   C869    1.414   .     A
C838   C866    1.405   .     A
C839   H892    1.082   .     S
C839   N898    1.367   .     A
C839   C1298   1.417   1_545 S
C840   H893    1.082   .     S
C840   N897    1.367   .     A
C840   C1069   1.417   .     S
C841   H894    1.082   .     S
C841   N898    1.367   .     A
C841   C1296   1.417   1_545 S
C842   N897    1.367   .     A
C842   H895    1.082   .     S
C842   C1067   1.417   .     S
C843   O908    1.294   .     A
C843   O911    1.292   .     A
C843   C849    1.457   .     S
C844   O910    1.293   .     A
C844   C847    1.455   .     S
C844   O909    1.292   .     A
C845   C856    1.403   .     A
C845   H873    1.080   .     S
C845   C847    1.392   .     A
C846   C857    1.401   .     A
C846   H884    1.079   .     S
C846   C849    1.393   .     A
C847   C850    1.391   .     A
C848   O905    1.289   .     A
C848   C870    1.445   .     S
C848   O906    1.287   .     A
C849   C851    1.391   .     A
C850   H890    1.081   .     S
C850   C852    1.399   .     A
C851   H891    1.082   .     S
C851   C853    1.400   .     A
C852   C858    1.417   .     A
C852   C854    1.419   .     A
C853   C860    1.415   .     A
C853   C855    1.419   .     A
C854   C856    1.423   .     A
C854   C171    1.404   1_556 S
C855   C857    1.422   .     A
C856   C865    1.420   .     A
C857   C859    1.420   .     A
C858   O912    1.382   .     S
C858   C175    1.406   1_556 S
C859   C861    1.525   .     S
C860   O900    1.381   .     S
C861   H879    1.110   .     S
C861   C862    1.527   .     S
C861   H878    1.111   .     S
C862   H875    1.110   .     S
C862   H876    1.111   .     S
C862   H877    1.110   .     S
C863   C865    1.524   .     S
C863   H883    1.111   .     S
C863   C864    1.525   .     S
C863   H885    1.109   .     S
C864   H881    1.111   .     S
C864   H880    1.110   .     S
C864   H1110   1.110   .     S
C865   C176    1.406   1_556 S
C866   O901    1.386   .     S
C867   O902    1.386   .     S
C867   C870    1.405   .     A
C867   C717    1.401   1_655 S
C868   O903    1.385   .     S
C868   C870    1.414   .     A
C868   C714    1.401   1_655 S
C869   O904    1.385   .     S
Cu871  O910    1.964   .     S
Cu871  Cu872   2.679   .     S
Cu871  O906    1.958   .     S
Cu871  N897    2.013   .     S
Cu871  O908    1.964   .     S
Cu871  O899    1.956   .     S
Cu872  O907    1.958   .     S
Cu872  N898    2.013   .     S
Cu872  O911    1.964   .     S
Cu872  O905    1.956   .     S
Cu872  O909    1.964   .     S
H874   O900    0.990   .     S
H882   C1320   1.110   1_545 S
H886   O901    0.989   .     S
H887   O902    0.989   .     S
H888   O903    0.989   .     S
H889   O904    0.989   .     S
H896   O912    0.989   .     S
C913   O983    1.287   .     A
C913   C914    1.445   .     S
C913   O975    1.289   .     A
C914   C945    1.414   .     A
C914   C942    1.405   .     A
C915   H968    1.082   .     S
C915   N974    1.367   .     A
C916   H969    1.082   .     S
C916   N973    1.367   .     A
C916   C1145   1.417   .     S
C917   H970    1.082   .     S
C917   N974    1.367   .     A
C918   N973    1.367   .     A
C918   H971    1.082   .     S
C918   C1143   1.417   .     S
C919   O984    1.294   .     A
C919   O987    1.292   .     A
C919   C925    1.457   .     S
C920   O986    1.293   .     A
C920   C923    1.455   .     S
C920   O985    1.292   .     A
C921   C932    1.403   .     A
C921   H949    1.080   .     S
C921   C923    1.392   .     A
C922   C933    1.401   .     A
C922   H960    1.079   .     S
C922   C925    1.393   .     A
C923   C926    1.391   .     A
C924   O981    1.289   .     A
C924   C946    1.445   .     S
C924   O982    1.287   .     A
C925   C927    1.391   .     A
C926   H966    1.081   .     S
C926   C928    1.399   .     A
C927   H967    1.082   .     S
C927   C929    1.400   .     A
C928   C934    1.417   .     A
C928   C930    1.419   .     A
C929   C936    1.415   .     A
C929   C931    1.419   .     A
C930   C932    1.423   .     A
C930   C247    1.404   1_556 S
C931   C933    1.422   .     A
C932   C941    1.420   .     A
C933   C935    1.420   .     A
C934   O988    1.382   .     S
C934   C251    1.406   1_556 S
C935   C937    1.525   .     S
C936   O976    1.381   .     S
C937   H955    1.110   .     S
C937   C938    1.527   .     S
C937   H954    1.111   .     S
C938   H951    1.110   .     S
C938   H952    1.111   .     S
C938   H953    1.110   .     S
C939   C941    1.524   .     S
C939   H959    1.111   .     S
C939   C940    1.525   .     S
C939   H961    1.109   .     S
C940   H957    1.111   .     S
C940   H956    1.110   .     S
C940   H1186   1.110   .     S
C941   C252    1.406   1_556 S
C942   O977    1.386   .     S
C942   C1096   1.401   1_455 S
C943   O978    1.386   .     S
C943   C946    1.405   .     A
C943   C1021   1.401   .     S
C944   O979    1.385   .     S
C944   C946    1.414   .     A
C944   C1018   1.401   .     S
C945   O980    1.385   .     S
C945   C1095   1.401   1_455 S
Cu947  O986    1.964   .     S
Cu947  Cu948   2.679   .     S
Cu947  O982    1.958   .     S
Cu947  N973    2.013   .     S
Cu947  O984    1.964   .     S
Cu947  O975    1.956   .     S
Cu948  O983    1.958   .     S
Cu948  N974    2.013   .     S
Cu948  O987    1.964   .     S
Cu948  O981    1.956   .     S
Cu948  O985    1.964   .     S
H950   O976    0.990   .     S
H962   O977    0.989   .     S
H963   O978    0.989   .     S
H964   O979    0.989   .     S
H965   O980    0.989   .     S
H972   O988    0.989   .     S
C989   O1059   1.287   .     A
C989   C990    1.445   .     S
C989   O1051   1.289   .     A
C990   C1021   1.414   .     A
C990   C1018   1.405   .     A
C991   H1044   1.082   .     S
C991   N1050   1.367   .     A
C992   H1045   1.082   .     S
C992   N1049   1.367   .     A
C992   C1221   1.417   .     S
C993   H1046   1.082   .     S
C993   N1050   1.367   .     A
C994   N1049   1.367   .     A
C994   H1047   1.082   .     S
C994   C1219   1.417   .     S
C995   O1060   1.294   .     A
C995   O1063   1.292   .     A
C995   C1001   1.457   .     S
C996   O1062   1.293   .     A
C996   C999    1.455   .     S
C996   O1061   1.292   .     A
C997   C1008   1.403   .     A
C997   H1025   1.080   .     S
C997   C999    1.392   .     A
C998   C1009   1.401   .     A
C998   H1036   1.079   .     S
C998   C1001   1.393   .     A
C999   C1002   1.391   .     A
C1000  O1057   1.289   .     A
C1000  C1022   1.445   .     S
C1000  O1058   1.287   .     A
C1001  C1003   1.391   .     A
C1002  H1042   1.081   .     S
C1002  C1004   1.399   .     A
C1003  H1043   1.082   .     S
C1003  C1005   1.400   .     A
C1004  C1010   1.417   .     A
C1004  C1006   1.419   .     A
C1005  C1012   1.415   .     A
C1005  C1007   1.419   .     A
C1006  C1008   1.423   .     A
C1006  C323    1.404   1_556 S
C1007  C1009   1.422   .     A
C1008  C1017   1.420   .     A
C1009  C1011   1.420   .     A
C1010  O1064   1.382   .     S
C1010  C327    1.406   1_556 S
C1011  C1013   1.525   .     S
C1012  O1052   1.381   .     S
C1013  H1031   1.110   .     S
C1013  C1014   1.527   .     S
C1013  H1030   1.111   .     S
C1014  H1027   1.110   .     S
C1014  H1028   1.111   .     S
C1014  H1029   1.110   .     S
C1015  C1017   1.524   .     S
C1015  H1035   1.111   .     S
C1015  C1016   1.525   .     S
C1015  H1037   1.109   .     S
C1016  H1033   1.111   .     S
C1016  H1032   1.110   .     S
C1016  H1262   1.110   .     S
C1017  C328    1.406   1_556 S
C1018  O1053   1.386   .     S
C1019  O1054   1.386   .     S
C1019  C1022   1.405   .     A
C1019  C1097   1.401   .     S
C1020  O1055   1.385   .     S
C1020  C1022   1.414   .     A
C1020  C1094   1.401   .     S
C1021  O1056   1.385   .     S
Cu1023 O1062   1.964   .     S
Cu1023 Cu1024  2.679   .     S
Cu1023 O1058   1.958   .     S
Cu1023 N1049   2.013   .     S
Cu1023 O1060   1.964   .     S
Cu1023 O1051   1.956   .     S
Cu1024 O1059   1.958   .     S
Cu1024 N1050   2.013   .     S
Cu1024 O1063   1.964   .     S
Cu1024 O1057   1.956   .     S
Cu1024 O1061   1.964   .     S
H1026  O1052   0.990   .     S
H1038  O1053   0.989   .     S
H1039  O1054   0.989   .     S
H1040  O1055   0.989   .     S
H1041  O1056   0.989   .     S
H1048  O1064   0.989   .     S
C1065  O1135   1.287   .     A
C1065  C1066   1.445   .     S
C1065  O1127   1.289   .     A
C1066  C1097   1.414   .     A
C1066  C1094   1.405   .     A
C1067  H1120   1.082   .     S
C1067  N1126   1.367   .     A
C1068  H1121   1.082   .     S
C1068  N1125   1.367   .     A
C1068  C1297   1.417   .     S
C1069  H1122   1.082   .     S
C1069  N1126   1.367   .     A
C1070  N1125   1.367   .     A
C1070  H1123   1.082   .     S
C1070  C1295   1.417   .     S
C1071  O1136   1.294   .     A
C1071  O1139   1.292   .     A
C1071  C1077   1.457   .     S
C1072  O1138   1.293   .     A
C1072  C1075   1.455   .     S
C1072  O1137   1.292   .     A
C1073  C1084   1.403   .     A
C1073  H1101   1.080   .     S
C1073  C1075   1.392   .     A
C1074  C1085   1.401   .     A
C1074  H1112   1.079   .     S
C1074  C1077   1.393   .     A
C1075  C1078   1.391   .     A
C1076  O1133   1.289   .     A
C1076  C1098   1.445   .     S
C1076  O1134   1.287   .     A
C1077  C1079   1.391   .     A
C1078  H1118   1.081   .     S
C1078  C1080   1.399   .     A
C1079  H1119   1.082   .     S
C1079  C1081   1.400   .     A
C1080  C1086   1.417   .     A
C1080  C1082   1.419   .     A
C1081  C1088   1.415   .     A
C1081  C1083   1.419   .     A
C1082  C1084   1.423   .     A
C1082  C399    1.404   1_556 S
C1083  C1085   1.422   .     A
C1084  C1093   1.420   .     A
C1085  C1087   1.420   .     A
C1086  O1140   1.382   .     S
C1086  C403    1.406   1_556 S
C1087  C1089   1.525   .     S
C1088  O1128   1.381   .     S
C1089  H1107   1.110   .     S
C1089  C1090   1.527   .     S
C1089  H1106   1.111   .     S
C1090  H1103   1.110   .     S
C1090  H1104   1.111   .     S
C1090  H1105   1.110   .     S
C1091  C1093   1.524   .     S
C1091  H1111   1.111   .     S
C1091  C1092   1.525   .     S
C1091  H1113   1.109   .     S
C1092  H1109   1.111   .     S
C1092  H1108   1.110   .     S
C1092  H1338   1.110   .     S
C1093  C404    1.406   1_556 S
C1094  O1129   1.386   .     S
C1095  O1130   1.386   .     S
C1095  C1098   1.405   .     A
C1095  C945    1.401   1_655 S
C1096  O1131   1.385   .     S
C1096  C1098   1.414   .     A
C1096  C942    1.401   1_655 S
C1097  O1132   1.385   .     S
Cu1099 O1138   1.964   .     S
Cu1099 Cu1100  2.679   .     S
Cu1099 O1134   1.958   .     S
Cu1099 N1125   2.013   .     S
Cu1099 O1136   1.964   .     S
Cu1099 O1127   1.956   .     S
Cu1100 O1135   1.958   .     S
Cu1100 N1126   2.013   .     S
Cu1100 O1139   1.964   .     S
Cu1100 O1133   1.956   .     S
Cu1100 O1137   1.964   .     S
H1102  O1128   0.990   .     S
H1114  O1129   0.989   .     S
H1115  O1130   0.989   .     S
H1116  O1131   0.989   .     S
H1117  O1132   0.989   .     S
H1124  O1140   0.989   .     S
C1141  O1211   1.287   .     A
C1141  C1142   1.445   .     S
C1141  O1203   1.289   .     A
C1142  C1173   1.414   .     A
C1142  C1170   1.405   .     A
C1143  H1196   1.082   .     S
C1143  N1202   1.367   .     A
C1144  H1197   1.082   .     S
C1144  N1201   1.367   .     A
C1144  C689    1.417   1_565 S
C1145  H1198   1.082   .     S
C1145  N1202   1.367   .     A
C1146  N1201   1.367   .     A
C1146  H1199   1.082   .     S
C1146  C687    1.417   1_565 S
C1147  O1212   1.294   .     A
C1147  O1215   1.292   .     A
C1147  C1153   1.457   .     S
C1148  O1214   1.293   .     A
C1148  C1151   1.455   .     S
C1148  O1213   1.292   .     A
C1149  C1160   1.403   .     A
C1149  H1177   1.080   .     S
C1149  C1151   1.392   .     A
C1150  C1161   1.401   .     A
C1150  H1188   1.079   .     S
C1150  C1153   1.393   .     A
C1151  C1154   1.391   .     A
C1152  O1209   1.289   .     A
C1152  C1174   1.445   .     S
C1152  O1210   1.287   .     A
C1153  C1155   1.391   .     A
C1154  H1194   1.081   .     S
C1154  C1156   1.399   .     A
C1155  H1195   1.082   .     S
C1155  C1157   1.400   .     A
C1156  C1162   1.417   .     A
C1156  C1158   1.419   .     A
C1157  C1164   1.415   .     A
C1157  C1159   1.419   .     A
C1158  C1160   1.423   .     A
C1158  C475    1.404   1_556 S
C1159  C1161   1.422   .     A
C1160  C1169   1.420   .     A
C1161  C1163   1.420   .     A
C1162  O1216   1.382   .     S
C1162  C479    1.406   1_556 S
C1163  C1165   1.525   .     S
C1164  O1204   1.381   .     S
C1165  H1183   1.110   .     S
C1165  C1166   1.527   .     S
C1165  H1182   1.111   .     S
C1166  H1179   1.110   .     S
C1166  H1180   1.111   .     S
C1166  H1181   1.110   .     S
C1167  C1169   1.524   .     S
C1167  H1187   1.111   .     S
C1167  C1168   1.525   .     S
C1167  H1189   1.109   .     S
C1168  H1185   1.111   .     S
C1168  H1184   1.110   .     S
C1168  H730    1.110   1_565 S
C1169  C480    1.406   1_556 S
C1170  O1205   1.386   .     S
C1170  C1324   1.401   1_455 S
C1171  O1206   1.386   .     S
C1171  C1174   1.405   .     A
C1171  C1249   1.401   .     S
C1172  O1207   1.385   .     S
C1172  C1174   1.414   .     A
C1172  C1246   1.401   .     S
C1173  O1208   1.385   .     S
C1173  C1323   1.401   1_455 S
Cu1175 O1214   1.964   .     S
Cu1175 Cu1176  2.679   .     S
Cu1175 O1210   1.958   .     S
Cu1175 N1201   2.013   .     S
Cu1175 O1212   1.964   .     S
Cu1175 O1203   1.956   .     S
Cu1176 O1211   1.958   .     S
Cu1176 N1202   2.013   .     S
Cu1176 O1215   1.964   .     S
Cu1176 O1209   1.956   .     S
Cu1176 O1213   1.964   .     S
H1178  O1204   0.990   .     S
H1190  O1205   0.989   .     S
H1191  O1206   0.989   .     S
H1192  O1207   0.989   .     S
H1193  O1208   0.989   .     S
H1200  O1216   0.989   .     S
C1217  O1287   1.287   .     A
C1217  C1218   1.445   .     S
C1217  O1279   1.289   .     A
C1218  C1249   1.414   .     A
C1218  C1246   1.405   .     A
C1219  H1272   1.082   .     S
C1219  N1278   1.367   .     A
C1220  H1273   1.082   .     S
C1220  N1277   1.367   .     A
C1220  C765    1.417   1_565 S
C1221  H1274   1.082   .     S
C1221  N1278   1.367   .     A
C1222  N1277   1.367   .     A
C1222  H1275   1.082   .     S
C1222  C763    1.417   1_565 S
C1223  O1288   1.294   .     A
C1223  O1291   1.292   .     A
C1223  C1229   1.457   .     S
C1224  O1290   1.293   .     A
C1224  C1227   1.455   .     S
C1224  O1289   1.292   .     A
C1225  C1236   1.403   .     A
C1225  H1253   1.080   .     S
C1225  C1227   1.392   .     A
C1226  C1237   1.401   .     A
C1226  H1264   1.079   .     S
C1226  C1229   1.393   .     A
C1227  C1230   1.391   .     A
C1228  O1285   1.289   .     A
C1228  C1250   1.445   .     S
C1228  O1286   1.287   .     A
C1229  C1231   1.391   .     A
C1230  H1270   1.081   .     S
C1230  C1232   1.399   .     A
C1231  H1271   1.082   .     S
C1231  C1233   1.400   .     A
C1232  C1238   1.417   .     A
C1232  C1234   1.419   .     A
C1233  C1240   1.415   .     A
C1233  C1235   1.419   .     A
C1234  C1236   1.423   .     A
C1234  C551    1.404   1_556 S
C1235  C1237   1.422   .     A
C1236  C1245   1.420   .     A
C1237  C1239   1.420   .     A
C1238  O1292   1.382   .     S
C1238  C555    1.406   1_556 S
C1239  C1241   1.525   .     S
C1240  O1280   1.381   .     S
C1241  H1259   1.110   .     S
C1241  C1242   1.527   .     S
C1241  H1258   1.111   .     S
C1242  H1255   1.110   .     S
C1242  H1256   1.111   .     S
C1242  H1257   1.110   .     S
C1243  C1245   1.524   .     S
C1243  H1263   1.111   .     S
C1243  C1244   1.525   .     S
C1243  H1265   1.109   .     S
C1244  H1261   1.111   .     S
C1244  H1260   1.110   .     S
C1244  H806    1.110   1_565 S
C1245  C556    1.406   1_556 S
C1246  O1281   1.386   .     S
C1247  O1282   1.386   .     S
C1247  C1250   1.405   .     A
C1247  C1325   1.401   .     S
C1248  O1283   1.385   .     S
C1248  C1250   1.414   .     A
C1248  C1322   1.401   .     S
C1249  O1284   1.385   .     S
Cu1251 O1290   1.964   .     S
Cu1251 Cu1252  2.679   .     S
Cu1251 O1286   1.958   .     S
Cu1251 N1277   2.013   .     S
Cu1251 O1288   1.964   .     S
Cu1251 O1279   1.956   .     S
Cu1252 O1287   1.958   .     S
Cu1252 N1278   2.013   .     S
Cu1252 O1291   1.964   .     S
Cu1252 O1285   1.956   .     S
Cu1252 O1289   1.964   .     S
H1254  O1280   0.990   .     S
H1266  O1281   0.989   .     S
H1267  O1282   0.989   .     S
H1268  O1283   0.989   .     S
H1269  O1284   0.989   .     S
H1276  O1292   0.989   .     S
C1293  O1363   1.287   .     A
C1293  C1294   1.445   .     S
C1293  O1355   1.289   .     A
C1294  C1325   1.414   .     A
C1294  C1322   1.405   .     A
C1295  H1348   1.082   .     S
C1295  N1354   1.367   .     A
C1296  H1349   1.082   .     S
C1296  N1353   1.367   .     A
C1296  C841    1.417   1_565 S
C1297  H1350   1.082   .     S
C1297  N1354   1.367   .     A
C1298  N1353   1.367   .     A
C1298  H1351   1.082   .     S
C1298  C839    1.417   1_565 S
C1299  O1364   1.294   .     A
C1299  O1367   1.292   .     A
C1299  C1305   1.457   .     S
C1300  O1366   1.293   .     A
C1300  C1303   1.455   .     S
C1300  O1365   1.292   .     A
C1301  C1312   1.403   .     A
C1301  H1329   1.080   .     S
C1301  C1303   1.392   .     A
C1302  C1313   1.401   .     A
C1302  H1340   1.079   .     S
C1302  C1305   1.393   .     A
C1303  C1306   1.391   .     A
C1304  O1361   1.289   .     A
C1304  C1326   1.445   .     S
C1304  O1362   1.287   .     A
C1305  C1307   1.391   .     A
C1306  H1346   1.081   .     S
C1306  C1308   1.399   .     A
C1307  H1347   1.082   .     S
C1307  C1309   1.400   .     A
C1308  C1314   1.417   .     A
C1308  C1310   1.419   .     A
C1309  C1316   1.415   .     A
C1309  C1311   1.419   .     A
C1310  C1312   1.423   .     A
C1310  C627    1.404   1_556 S
C1311  C1313   1.422   .     A
C1312  C1321   1.420   .     A
C1313  C1315   1.420   .     A
C1314  O1368   1.382   .     S
C1314  C631    1.406   1_556 S
C1315  C1317   1.525   .     S
C1316  O1356   1.381   .     S
C1317  H1335   1.110   .     S
C1317  C1318   1.527   .     S
C1317  H1334   1.111   .     S
C1318  H1331   1.110   .     S
C1318  H1332   1.111   .     S
C1318  H1333   1.110   .     S
C1319  C1321   1.524   .     S
C1319  H1339   1.111   .     S
C1319  C1320   1.525   .     S
C1319  H1341   1.109   .     S
C1320  H1337   1.111   .     S
C1320  H1336   1.110   .     S
C1320  H882    1.110   1_565 S
C1321  C632    1.406   1_556 S
C1322  O1357   1.386   .     S
C1323  O1358   1.386   .     S
C1323  C1326   1.405   .     A
C1323  C1173   1.401   1_655 S
C1324  O1359   1.385   .     S
C1324  C1326   1.414   .     A
C1324  C1170   1.401   1_655 S
C1325  O1360   1.385   .     S
Cu1327 O1366   1.964   .     S
Cu1327 Cu1328  2.679   .     S
Cu1327 O1362   1.958   .     S
Cu1327 N1353   2.013   .     S
Cu1327 O1364   1.964   .     S
Cu1327 O1355   1.956   .     S
Cu1328 O1363   1.958   .     S
Cu1328 N1354   2.013   .     S
Cu1328 O1367   1.964   .     S
Cu1328 O1361   1.956   .     S
Cu1328 O1365   1.964   .     S
H1330  O1356   0.990   .     S
H1342  O1357   0.989   .     S
H1343  O1358   0.989   .     S
H1344  O1359   0.989   .     S
H1345  O1360   0.989   .     S
H1352  O1368   0.989   .     S
