data_str_m3_o1_o16_pcu_sym.12
_audit_creation_date              2020-01-03
_audit_creation_method            'Materials Studio'
_symmetry_space_group_name_H-M    'P1'
_symmetry_Int_Tables_number       1
_symmetry_cell_setting            triclinic
loop_
_symmetry_equiv_pos_as_xyz
  x,y,z
_cell_length_a                    29.7511
_cell_length_b                    31.8444
_cell_length_c                    26.4071
_cell_angle_alpha                 90.8939
_cell_angle_beta                  71.1228
_cell_angle_gamma                 89.2622
loop_
_atom_site_label
_atom_site_type_symbol
_atom_site_fract_x
_atom_site_fract_y
_atom_site_fract_z
_atom_site_U_iso_or_equiv
_atom_site_adp_type
_atom_site_occupancy
C1     C     0.16669   0.24655   0.24948   0.00000  Uiso   1.00
C2     C     0.12456   0.17473   0.41060   0.00000  Uiso   1.00
C3     C     0.20535   0.31110   0.21306   0.00000  Uiso   1.00
C4     C     0.14053   0.16958   0.35190   0.00000  Uiso   1.00
C5     C     0.20458   0.02118   0.21367   0.00000  Uiso   1.00
C6     C     0.16726   0.04280   0.25129   0.00000  Uiso   1.00
C7     C     0.13070   0.02232   0.28951   0.00000  Uiso   1.00
C8     C     0.13041   0.31251   0.28756   0.00000  Uiso   1.00
C9     C     0.16698   0.29076   0.24910   0.00000  Uiso   1.00
C10    C     0.31508   0.13269   0.23116   0.00000  Uiso   1.00
C11    C     0.02986   0.13223   0.23128   0.00000  Uiso   1.00
C12    C     0.14713   0.17236   0.49106   0.00000  Uiso   1.00
C13    C     0.01764   0.20128   0.26764   0.00000  Uiso   1.00
C14    C     0.30374   0.20117   0.26653   0.00000  Uiso   1.00
C15    C     0.16684   0.08685   0.25026   0.00000  Uiso   1.00
C16    C     0.19291   0.16518   0.14847   0.00000  Uiso   1.00
C17    C     0.26335   0.19385   0.01055   0.00000  Uiso   1.00
C18    C     0.20965   0.16535   0.09068   0.00000  Uiso   1.00
C19    C     0.07816   0.16367   0.44049   0.00000  Uiso   1.00
C20    C     0.06522   0.16023   0.49578   0.00000  Uiso   1.00
C21    C     0.09953   0.16380   0.02098   0.00000  Uiso   1.00
C22    C     0.10672   0.05017   0.37367   0.00000  Uiso   1.00
C23    C     0.15731   0.18499   0.43756   0.00000  Uiso   1.00
C24    C     0.04054   0.06022   0.22882   0.00000  Uiso   1.00
C25    C     0.03120   0.23854   0.29253   0.00000  Uiso   1.00
C26    C     0.30363   0.16409   0.38472   0.00000  Uiso   1.00
C27    C     0.15624   0.10968   0.07576   0.00000  Uiso   1.00
C28    C     0.18174   0.26776   0.38354   0.00000  Uiso   1.00
C29    C     0.28502   0.29551   0.18078   0.00000  Uiso   1.00
C30    C     0.18433   0.17099   0.01359   0.00000  Uiso   1.00
C31    C     0.22880   0.18848   0.48550   0.00000  Uiso   1.00
C32    C     0.23824   0.20082   0.43281   0.00000  Uiso   1.00
C33    C     0.20102   0.20521   0.41220   0.00000  Uiso   1.00
C34    C     0.18011   0.15123   0.06223   0.00000  Uiso   1.00
C35    C     0.25238   0.18499   0.06418   0.00000  Uiso   1.00
H36    H     0.27663   0.19441   0.08510   0.00000  Uiso   1.00
H37    H     0.11088   0.01955   0.39162   0.00000  Uiso   1.00
H38    H     0.07772   0.06822   0.40358   0.00000  Uiso   1.00
H39    H     0.13972   0.06869   0.36562   0.00000  Uiso   1.00
H40    H     0.02223   0.06182   0.27292   0.00000  Uiso   1.00
H41    H     0.06966   0.03643   0.22108   0.00000  Uiso   1.00
H42    H     0.01613   0.04899   0.20762   0.00000  Uiso   1.00
H43    H     0.02852   0.30186   0.29991   0.00000  Uiso   1.00
H44    H     0.28561   0.14799   0.35911   0.00000  Uiso   1.00
H45    H     0.30157   0.14438   0.41980   0.00000  Uiso   1.00
H46    H     0.00843   0.16584   0.36166   0.00000  Uiso   1.00
H47    H     0.23208   0.03805   0.18422   0.00000  Uiso   1.00
H48    H     0.13844   0.06150   0.12697   0.00000  Uiso   1.00
H49    H     0.18849   0.28324   0.41844   0.00000  Uiso   1.00
H50    H     0.14314   0.26231   0.39248   0.00000  Uiso   1.00
H51    H     0.19293   0.28983   0.34989   0.00000  Uiso   1.00
H52    H     0.31051   0.27090   0.15775   0.00000  Uiso   1.00
H53    H     0.28370   0.29351   0.22333   0.00000  Uiso   1.00
H54    H     0.29892   0.32638   0.16429   0.00000  Uiso   1.00
H55    H     0.10274   0.29609   0.31708   0.00000  Uiso   1.00
H56    H     0.30143   0.10626   0.21494   0.00000  Uiso   1.00
H57    H     0.28082   0.22842   0.28077   0.00000  Uiso   1.00
H58    H     0.29702   0.20828   0.49015   0.00000  Uiso   1.00
H59    H     0.05227   0.15646   0.42107   0.00000  Uiso   1.00
H60    H     0.08866   0.15961   0.06382   0.00000  Uiso   1.00
H61    H     0.02912   0.15252   0.01878   0.00000  Uiso   1.00
N62    N     0.04760   0.16668   0.25002   0.00000  Uiso   1.00
N63    N     0.28573   0.16665   0.25001   0.00000  Uiso   1.00
O64    O     0.12846   0.22775   0.25001   0.00000  Uiso   1.00
O65    O     0.06050   0.09894   0.20838   0.00000  Uiso   1.00
O66    O     0.04800   0.23457   0.32875   0.00000  Uiso   1.00
O67    O     0.02078   0.27854   0.27771   0.00000  Uiso   1.00
O68    O     0.28446   0.20518   0.39964   0.00000  Uiso   1.00
O69    O     0.14273   0.09068   0.04289   0.00000  Uiso   1.00
O70    O     0.15338   0.09019   0.12378   0.00000  Uiso   1.00
O71    O     0.20826   0.23001   0.36780   0.00000  Uiso   1.00
O72    O     0.24038   0.28817   0.17455   0.00000  Uiso   1.00
O73    O     0.20490   0.22774   0.25001   0.00000  Uiso   1.00
O74    O     0.10947   0.16666   0.32681   0.00000  Uiso   1.00
O75    O     0.18591   0.16665   0.32681   0.00000  Uiso   1.00
O76    O     0.12843   0.10559   0.25000   0.00000  Uiso   1.00
O77    O     0.20488   0.10558   0.25000   0.00000  Uiso   1.00
O78    O     0.14742   0.16668   0.17319   0.00000  Uiso   1.00
O79    O     0.22387   0.16667   0.17319   0.00000  Uiso   1.00
O80    O     0.09421   0.04437   0.32694   0.00000  Uiso   1.00
Zn81   Zn    0.11562   0.16667   0.25000   0.00000  Uiso   1.00
Zn82   Zn    0.21771   0.16666   0.25000   0.00000  Uiso   1.00
C83    C     0.50002   0.24655   0.24948   0.00000  Uiso   1.00
C84    C     0.45790   0.17473   0.41060   0.00000  Uiso   1.00
C85    C     0.53868   0.31110   0.21306   0.00000  Uiso   1.00
C86    C     0.47386   0.16958   0.35190   0.00000  Uiso   1.00
C87    C     0.53791   0.02118   0.21367   0.00000  Uiso   1.00
C88    C     0.50059   0.04280   0.25129   0.00000  Uiso   1.00
C89    C     0.46403   0.02232   0.28951   0.00000  Uiso   1.00
C90    C     0.46375   0.31251   0.28756   0.00000  Uiso   1.00
C91    C     0.50031   0.29076   0.24910   0.00000  Uiso   1.00
C92    C     0.64842   0.13269   0.23116   0.00000  Uiso   1.00
C93    C     0.36319   0.13223   0.23128   0.00000  Uiso   1.00
C94    C     0.48046   0.17236   0.49106   0.00000  Uiso   1.00
C95    C     0.35097   0.20128   0.26764   0.00000  Uiso   1.00
C96    C     0.63707   0.20117   0.26653   0.00000  Uiso   1.00
C97    C     0.50017   0.08685   0.25026   0.00000  Uiso   1.00
C98    C     0.52624   0.16518   0.14847   0.00000  Uiso   1.00
C99    C     0.59669   0.19385   0.01055   0.00000  Uiso   1.00
C100   C     0.54298   0.16535   0.09068   0.00000  Uiso   1.00
C101   C     0.41149   0.16367   0.44049   0.00000  Uiso   1.00
C102   C     0.39855   0.16023   0.49578   0.00000  Uiso   1.00
C103   C     0.43287   0.16380   0.02098   0.00000  Uiso   1.00
C104   C     0.44005   0.05017   0.37367   0.00000  Uiso   1.00
C105   C     0.49064   0.18499   0.43756   0.00000  Uiso   1.00
C106   C     0.37388   0.06022   0.22882   0.00000  Uiso   1.00
C107   C     0.36454   0.23854   0.29253   0.00000  Uiso   1.00
C108   C     0.63696   0.16409   0.38472   0.00000  Uiso   1.00
C109   C     0.48957   0.10968   0.07576   0.00000  Uiso   1.00
C110   C     0.51507   0.26776   0.38354   0.00000  Uiso   1.00
C111   C     0.61835   0.29551   0.18078   0.00000  Uiso   1.00
C112   C     0.51767   0.17099   0.01359   0.00000  Uiso   1.00
C113   C     0.56214   0.18848   0.48550   0.00000  Uiso   1.00
C114   C     0.57157   0.20082   0.43281   0.00000  Uiso   1.00
C115   C     0.53435   0.20521   0.41220   0.00000  Uiso   1.00
C116   C     0.51344   0.15123   0.06223   0.00000  Uiso   1.00
C117   C     0.58572   0.18499   0.06418   0.00000  Uiso   1.00
H118   H     0.60997   0.19441   0.08510   0.00000  Uiso   1.00
H119   H     0.44421   0.01955   0.39162   0.00000  Uiso   1.00
H120   H     0.41105   0.06822   0.40358   0.00000  Uiso   1.00
H121   H     0.47305   0.06869   0.36562   0.00000  Uiso   1.00
H122   H     0.35556   0.06182   0.27292   0.00000  Uiso   1.00
H123   H     0.40299   0.03643   0.22108   0.00000  Uiso   1.00
H124   H     0.34946   0.04899   0.20762   0.00000  Uiso   1.00
H125   H     0.36185   0.30186   0.29991   0.00000  Uiso   1.00
H126   H     0.61894   0.14799   0.35911   0.00000  Uiso   1.00
H127   H     0.63491   0.14438   0.41980   0.00000  Uiso   1.00
H128   H     0.34177   0.16584   0.36166   0.00000  Uiso   1.00
H129   H     0.56541   0.03805   0.18422   0.00000  Uiso   1.00
H130   H     0.47178   0.06150   0.12697   0.00000  Uiso   1.00
H131   H     0.52182   0.28324   0.41844   0.00000  Uiso   1.00
H132   H     0.47648   0.26231   0.39248   0.00000  Uiso   1.00
H133   H     0.52626   0.28983   0.34989   0.00000  Uiso   1.00
H134   H     0.64384   0.27090   0.15775   0.00000  Uiso   1.00
H135   H     0.61703   0.29351   0.22333   0.00000  Uiso   1.00
H136   H     0.63225   0.32638   0.16429   0.00000  Uiso   1.00
H137   H     0.43608   0.29609   0.31708   0.00000  Uiso   1.00
H138   H     0.63476   0.10626   0.21494   0.00000  Uiso   1.00
H139   H     0.61415   0.22842   0.28077   0.00000  Uiso   1.00
H140   H     0.63035   0.20828   0.49015   0.00000  Uiso   1.00
H141   H     0.38561   0.15646   0.42107   0.00000  Uiso   1.00
H142   H     0.42200   0.15961   0.06382   0.00000  Uiso   1.00
H143   H     0.36245   0.15252   0.01878   0.00000  Uiso   1.00
N144   N     0.38093   0.16668   0.25002   0.00000  Uiso   1.00
N145   N     0.61906   0.16665   0.25001   0.00000  Uiso   1.00
O146   O     0.46179   0.22775   0.25001   0.00000  Uiso   1.00
O147   O     0.39383   0.09894   0.20838   0.00000  Uiso   1.00
O148   O     0.38133   0.23457   0.32875   0.00000  Uiso   1.00
O149   O     0.35412   0.27854   0.27771   0.00000  Uiso   1.00
O150   O     0.61779   0.20518   0.39964   0.00000  Uiso   1.00
O151   O     0.47606   0.09068   0.04289   0.00000  Uiso   1.00
O152   O     0.48672   0.09019   0.12378   0.00000  Uiso   1.00
O153   O     0.54159   0.23001   0.36780   0.00000  Uiso   1.00
O154   O     0.57371   0.28817   0.17455   0.00000  Uiso   1.00
O155   O     0.53823   0.22774   0.25001   0.00000  Uiso   1.00
O156   O     0.44280   0.16666   0.32681   0.00000  Uiso   1.00
O157   O     0.51924   0.16665   0.32681   0.00000  Uiso   1.00
O158   O     0.46177   0.10559   0.25000   0.00000  Uiso   1.00
O159   O     0.53821   0.10558   0.25000   0.00000  Uiso   1.00
O160   O     0.48076   0.16668   0.17319   0.00000  Uiso   1.00
O161   O     0.55720   0.16667   0.17319   0.00000  Uiso   1.00
O162   O     0.42754   0.04437   0.32694   0.00000  Uiso   1.00
Zn163  Zn    0.44896   0.16667   0.25000   0.00000  Uiso   1.00
Zn164  Zn    0.55104   0.16666   0.25000   0.00000  Uiso   1.00
C165   C     0.83336   0.24655   0.24948   0.00000  Uiso   1.00
C166   C     0.79123   0.17473   0.41060   0.00000  Uiso   1.00
C167   C     0.87201   0.31110   0.21306   0.00000  Uiso   1.00
C168   C     0.80719   0.16958   0.35190   0.00000  Uiso   1.00
C169   C     0.87125   0.02118   0.21367   0.00000  Uiso   1.00
C170   C     0.83393   0.04280   0.25129   0.00000  Uiso   1.00
C171   C     0.79737   0.02232   0.28951   0.00000  Uiso   1.00
C172   C     0.79708   0.31251   0.28756   0.00000  Uiso   1.00
C173   C     0.83365   0.29076   0.24910   0.00000  Uiso   1.00
C174   C     0.98175   0.13269   0.23116   0.00000  Uiso   1.00
C175   C     0.69652   0.13223   0.23128   0.00000  Uiso   1.00
C176   C     0.81379   0.17236   0.49106   0.00000  Uiso   1.00
C177   C     0.68431   0.20128   0.26764   0.00000  Uiso   1.00
C178   C     0.97040   0.20117   0.26653   0.00000  Uiso   1.00
C179   C     0.83351   0.08685   0.25026   0.00000  Uiso   1.00
C180   C     0.85958   0.16518   0.14847   0.00000  Uiso   1.00
C181   C     0.93002   0.19385   0.01055   0.00000  Uiso   1.00
C182   C     0.87632   0.16535   0.09068   0.00000  Uiso   1.00
C183   C     0.74482   0.16367   0.44049   0.00000  Uiso   1.00
C184   C     0.73188   0.16023   0.49578   0.00000  Uiso   1.00
C185   C     0.76620   0.16380   0.02098   0.00000  Uiso   1.00
C186   C     0.77339   0.05017   0.37367   0.00000  Uiso   1.00
C187   C     0.82398   0.18499   0.43756   0.00000  Uiso   1.00
C188   C     0.70721   0.06022   0.22882   0.00000  Uiso   1.00
C189   C     0.69787   0.23854   0.29253   0.00000  Uiso   1.00
C190   C     0.97029   0.16409   0.38472   0.00000  Uiso   1.00
C191   C     0.82290   0.10968   0.07576   0.00000  Uiso   1.00
C192   C     0.84840   0.26776   0.38354   0.00000  Uiso   1.00
C193   C     0.95168   0.29551   0.18078   0.00000  Uiso   1.00
C194   C     0.85100   0.17099   0.01359   0.00000  Uiso   1.00
C195   C     0.89547   0.18848   0.48550   0.00000  Uiso   1.00
C196   C     0.90490   0.20082   0.43281   0.00000  Uiso   1.00
C197   C     0.86768   0.20521   0.41220   0.00000  Uiso   1.00
C198   C     0.84677   0.15123   0.06223   0.00000  Uiso   1.00
C199   C     0.91905   0.18499   0.06418   0.00000  Uiso   1.00
H200   H     0.94330   0.19441   0.08510   0.00000  Uiso   1.00
H201   H     0.77754   0.01955   0.39162   0.00000  Uiso   1.00
H202   H     0.74438   0.06822   0.40358   0.00000  Uiso   1.00
H203   H     0.80639   0.06869   0.36562   0.00000  Uiso   1.00
H204   H     0.68890   0.06182   0.27292   0.00000  Uiso   1.00
H205   H     0.73633   0.03643   0.22108   0.00000  Uiso   1.00
H206   H     0.68280   0.04899   0.20762   0.00000  Uiso   1.00
H207   H     0.69519   0.30186   0.29991   0.00000  Uiso   1.00
H208   H     0.95228   0.14799   0.35911   0.00000  Uiso   1.00
H209   H     0.96824   0.14438   0.41980   0.00000  Uiso   1.00
H210   H     0.67510   0.16584   0.36166   0.00000  Uiso   1.00
H211   H     0.89875   0.03805   0.18422   0.00000  Uiso   1.00
H212   H     0.80511   0.06150   0.12697   0.00000  Uiso   1.00
H213   H     0.85515   0.28324   0.41844   0.00000  Uiso   1.00
H214   H     0.80981   0.26231   0.39248   0.00000  Uiso   1.00
H215   H     0.85960   0.28983   0.34989   0.00000  Uiso   1.00
H216   H     0.97718   0.27090   0.15775   0.00000  Uiso   1.00
H217   H     0.95037   0.29351   0.22333   0.00000  Uiso   1.00
H218   H     0.96559   0.32638   0.16429   0.00000  Uiso   1.00
H219   H     0.76941   0.29609   0.31708   0.00000  Uiso   1.00
H220   H     0.96810   0.10626   0.21494   0.00000  Uiso   1.00
H221   H     0.94748   0.22842   0.28077   0.00000  Uiso   1.00
H222   H     0.96368   0.20828   0.49015   0.00000  Uiso   1.00
H223   H     0.71894   0.15646   0.42107   0.00000  Uiso   1.00
H224   H     0.75533   0.15961   0.06382   0.00000  Uiso   1.00
H225   H     0.69578   0.15252   0.01878   0.00000  Uiso   1.00
N226   N     0.71426   0.16668   0.25002   0.00000  Uiso   1.00
N227   N     0.95239   0.16665   0.25001   0.00000  Uiso   1.00
O228   O     0.79512   0.22775   0.25001   0.00000  Uiso   1.00
O229   O     0.72717   0.09894   0.20838   0.00000  Uiso   1.00
O230   O     0.71467   0.23457   0.32875   0.00000  Uiso   1.00
O231   O     0.68745   0.27854   0.27771   0.00000  Uiso   1.00
O232   O     0.95112   0.20518   0.39964   0.00000  Uiso   1.00
O233   O     0.80940   0.09068   0.04289   0.00000  Uiso   1.00
O234   O     0.82005   0.09019   0.12378   0.00000  Uiso   1.00
O235   O     0.87493   0.23001   0.36780   0.00000  Uiso   1.00
O236   O     0.90705   0.28817   0.17455   0.00000  Uiso   1.00
O237   O     0.87157   0.22774   0.25001   0.00000  Uiso   1.00
O238   O     0.77613   0.16666   0.32681   0.00000  Uiso   1.00
O239   O     0.85258   0.16665   0.32681   0.00000  Uiso   1.00
O240   O     0.79510   0.10559   0.25000   0.00000  Uiso   1.00
O241   O     0.87154   0.10558   0.25000   0.00000  Uiso   1.00
O242   O     0.81409   0.16668   0.17319   0.00000  Uiso   1.00
O243   O     0.89053   0.16667   0.17319   0.00000  Uiso   1.00
O244   O     0.76087   0.04437   0.32694   0.00000  Uiso   1.00
Zn245  Zn    0.78229   0.16667   0.25000   0.00000  Uiso   1.00
Zn246  Zn    0.88438   0.16666   0.25000   0.00000  Uiso   1.00
C247   C     0.16669   0.57988   0.24948   0.00000  Uiso   1.00
C248   C     0.12456   0.50807   0.41060   0.00000  Uiso   1.00
C249   C     0.20535   0.64443   0.21306   0.00000  Uiso   1.00
C250   C     0.14053   0.50291   0.35190   0.00000  Uiso   1.00
C251   C     0.20458   0.35452   0.21367   0.00000  Uiso   1.00
C252   C     0.16726   0.37613   0.25129   0.00000  Uiso   1.00
C253   C     0.13070   0.35565   0.28951   0.00000  Uiso   1.00
C254   C     0.13041   0.64584   0.28756   0.00000  Uiso   1.00
C255   C     0.16698   0.62409   0.24910   0.00000  Uiso   1.00
C256   C     0.31508   0.46602   0.23116   0.00000  Uiso   1.00
C257   C     0.02986   0.46556   0.23128   0.00000  Uiso   1.00
C258   C     0.14713   0.50569   0.49106   0.00000  Uiso   1.00
C259   C     0.01764   0.53461   0.26764   0.00000  Uiso   1.00
C260   C     0.30374   0.53450   0.26653   0.00000  Uiso   1.00
C261   C     0.16684   0.42019   0.25026   0.00000  Uiso   1.00
C262   C     0.19291   0.49851   0.14847   0.00000  Uiso   1.00
C263   C     0.26335   0.52719   0.01055   0.00000  Uiso   1.00
C264   C     0.20965   0.49868   0.09068   0.00000  Uiso   1.00
C265   C     0.07816   0.49700   0.44049   0.00000  Uiso   1.00
C266   C     0.06522   0.49356   0.49578   0.00000  Uiso   1.00
C267   C     0.09953   0.49713   0.02098   0.00000  Uiso   1.00
C268   C     0.10672   0.38350   0.37367   0.00000  Uiso   1.00
C269   C     0.15731   0.51832   0.43756   0.00000  Uiso   1.00
C270   C     0.04054   0.39356   0.22882   0.00000  Uiso   1.00
C271   C     0.03120   0.57187   0.29253   0.00000  Uiso   1.00
C272   C     0.30363   0.49742   0.38472   0.00000  Uiso   1.00
C273   C     0.15624   0.44301   0.07576   0.00000  Uiso   1.00
C274   C     0.18174   0.60109   0.38354   0.00000  Uiso   1.00
C275   C     0.28502   0.62885   0.18078   0.00000  Uiso   1.00
C276   C     0.18433   0.50432   0.01359   0.00000  Uiso   1.00
C277   C     0.22880   0.52181   0.48550   0.00000  Uiso   1.00
C278   C     0.23824   0.53415   0.43281   0.00000  Uiso   1.00
C279   C     0.20102   0.53855   0.41220   0.00000  Uiso   1.00
C280   C     0.18011   0.48457   0.06223   0.00000  Uiso   1.00
C281   C     0.25238   0.51832   0.06418   0.00000  Uiso   1.00
H282   H     0.27663   0.52774   0.08510   0.00000  Uiso   1.00
H283   H     0.11088   0.35288   0.39162   0.00000  Uiso   1.00
H284   H     0.07772   0.40155   0.40358   0.00000  Uiso   1.00
H285   H     0.13972   0.40203   0.36562   0.00000  Uiso   1.00
H286   H     0.02223   0.39515   0.27292   0.00000  Uiso   1.00
H287   H     0.06966   0.36976   0.22108   0.00000  Uiso   1.00
H288   H     0.01613   0.38233   0.20762   0.00000  Uiso   1.00
H289   H     0.02852   0.63520   0.29991   0.00000  Uiso   1.00
H290   H     0.28561   0.48132   0.35911   0.00000  Uiso   1.00
H291   H     0.30157   0.47771   0.41980   0.00000  Uiso   1.00
H292   H     0.00843   0.49917   0.36166   0.00000  Uiso   1.00
H293   H     0.23208   0.37138   0.18422   0.00000  Uiso   1.00
H294   H     0.13844   0.39483   0.12697   0.00000  Uiso   1.00
H295   H     0.18849   0.61657   0.41844   0.00000  Uiso   1.00
H296   H     0.14314   0.59564   0.39248   0.00000  Uiso   1.00
H297   H     0.19293   0.62317   0.34989   0.00000  Uiso   1.00
H298   H     0.31051   0.60423   0.15775   0.00000  Uiso   1.00
H299   H     0.28370   0.62684   0.22333   0.00000  Uiso   1.00
H300   H     0.29892   0.65971   0.16429   0.00000  Uiso   1.00
H301   H     0.10274   0.62943   0.31708   0.00000  Uiso   1.00
H302   H     0.30143   0.43959   0.21494   0.00000  Uiso   1.00
H303   H     0.28082   0.56176   0.28077   0.00000  Uiso   1.00
H304   H     0.29702   0.54161   0.49015   0.00000  Uiso   1.00
H305   H     0.05227   0.48980   0.42107   0.00000  Uiso   1.00
H306   H     0.08866   0.49294   0.06382   0.00000  Uiso   1.00
H307   H     0.02912   0.48585   0.01878   0.00000  Uiso   1.00
N308   N     0.04760   0.50001   0.25002   0.00000  Uiso   1.00
N309   N     0.28573   0.49998   0.25001   0.00000  Uiso   1.00
O310   O     0.12846   0.56108   0.25001   0.00000  Uiso   1.00
O311   O     0.06050   0.43228   0.20838   0.00000  Uiso   1.00
O312   O     0.04800   0.56791   0.32875   0.00000  Uiso   1.00
O313   O     0.02078   0.61188   0.27771   0.00000  Uiso   1.00
O314   O     0.28446   0.53852   0.39964   0.00000  Uiso   1.00
O315   O     0.14273   0.42401   0.04289   0.00000  Uiso   1.00
O316   O     0.15338   0.42353   0.12378   0.00000  Uiso   1.00
O317   O     0.20826   0.56334   0.36780   0.00000  Uiso   1.00
O318   O     0.24038   0.62150   0.17455   0.00000  Uiso   1.00
O319   O     0.20490   0.56107   0.25001   0.00000  Uiso   1.00
O320   O     0.10947   0.50000   0.32681   0.00000  Uiso   1.00
O321   O     0.18591   0.49999   0.32681   0.00000  Uiso   1.00
O322   O     0.12843   0.43893   0.25000   0.00000  Uiso   1.00
O323   O     0.20488   0.43892   0.25000   0.00000  Uiso   1.00
O324   O     0.14742   0.50001   0.17319   0.00000  Uiso   1.00
O325   O     0.22387   0.50000   0.17319   0.00000  Uiso   1.00
O326   O     0.09421   0.37770   0.32694   0.00000  Uiso   1.00
Zn327  Zn    0.11562   0.50001   0.25000   0.00000  Uiso   1.00
Zn328  Zn    0.21771   0.49999   0.25000   0.00000  Uiso   1.00
C329   C     0.50002   0.57988   0.24948   0.00000  Uiso   1.00
C330   C     0.45790   0.50807   0.41060   0.00000  Uiso   1.00
C331   C     0.53868   0.64443   0.21306   0.00000  Uiso   1.00
C332   C     0.47386   0.50291   0.35190   0.00000  Uiso   1.00
C333   C     0.53791   0.35452   0.21367   0.00000  Uiso   1.00
C334   C     0.50059   0.37613   0.25129   0.00000  Uiso   1.00
C335   C     0.46403   0.35565   0.28951   0.00000  Uiso   1.00
C336   C     0.46375   0.64584   0.28756   0.00000  Uiso   1.00
C337   C     0.50031   0.62409   0.24910   0.00000  Uiso   1.00
C338   C     0.64842   0.46602   0.23116   0.00000  Uiso   1.00
C339   C     0.36319   0.46556   0.23128   0.00000  Uiso   1.00
C340   C     0.48046   0.50569   0.49106   0.00000  Uiso   1.00
C341   C     0.35097   0.53461   0.26764   0.00000  Uiso   1.00
C342   C     0.63707   0.53450   0.26653   0.00000  Uiso   1.00
C343   C     0.50017   0.42019   0.25026   0.00000  Uiso   1.00
C344   C     0.52624   0.49851   0.14847   0.00000  Uiso   1.00
C345   C     0.59669   0.52719   0.01055   0.00000  Uiso   1.00
C346   C     0.54298   0.49868   0.09068   0.00000  Uiso   1.00
C347   C     0.41149   0.49700   0.44049   0.00000  Uiso   1.00
C348   C     0.39855   0.49356   0.49578   0.00000  Uiso   1.00
C349   C     0.43287   0.49713   0.02098   0.00000  Uiso   1.00
C350   C     0.44005   0.38350   0.37367   0.00000  Uiso   1.00
C351   C     0.49064   0.51832   0.43756   0.00000  Uiso   1.00
C352   C     0.37388   0.39356   0.22882   0.00000  Uiso   1.00
C353   C     0.36454   0.57187   0.29253   0.00000  Uiso   1.00
C354   C     0.63696   0.49742   0.38472   0.00000  Uiso   1.00
C355   C     0.48957   0.44301   0.07576   0.00000  Uiso   1.00
C356   C     0.51507   0.60109   0.38354   0.00000  Uiso   1.00
C357   C     0.61835   0.62885   0.18078   0.00000  Uiso   1.00
C358   C     0.51767   0.50432   0.01359   0.00000  Uiso   1.00
C359   C     0.56214   0.52181   0.48550   0.00000  Uiso   1.00
C360   C     0.57157   0.53415   0.43281   0.00000  Uiso   1.00
C361   C     0.53435   0.53855   0.41220   0.00000  Uiso   1.00
C362   C     0.51344   0.48457   0.06223   0.00000  Uiso   1.00
C363   C     0.58572   0.51832   0.06418   0.00000  Uiso   1.00
H364   H     0.60997   0.52774   0.08510   0.00000  Uiso   1.00
H365   H     0.44421   0.35288   0.39162   0.00000  Uiso   1.00
H366   H     0.41105   0.40155   0.40358   0.00000  Uiso   1.00
H367   H     0.47305   0.40203   0.36562   0.00000  Uiso   1.00
H368   H     0.35556   0.39515   0.27292   0.00000  Uiso   1.00
H369   H     0.40299   0.36976   0.22108   0.00000  Uiso   1.00
H370   H     0.34946   0.38233   0.20762   0.00000  Uiso   1.00
H371   H     0.36185   0.63520   0.29991   0.00000  Uiso   1.00
H372   H     0.61894   0.48132   0.35911   0.00000  Uiso   1.00
H373   H     0.63491   0.47771   0.41980   0.00000  Uiso   1.00
H374   H     0.34177   0.49917   0.36166   0.00000  Uiso   1.00
H375   H     0.56541   0.37138   0.18422   0.00000  Uiso   1.00
H376   H     0.47178   0.39483   0.12697   0.00000  Uiso   1.00
H377   H     0.52182   0.61657   0.41844   0.00000  Uiso   1.00
H378   H     0.47648   0.59564   0.39248   0.00000  Uiso   1.00
H379   H     0.52626   0.62317   0.34989   0.00000  Uiso   1.00
H380   H     0.64384   0.60423   0.15775   0.00000  Uiso   1.00
H381   H     0.61703   0.62684   0.22333   0.00000  Uiso   1.00
H382   H     0.63225   0.65971   0.16429   0.00000  Uiso   1.00
H383   H     0.43608   0.62943   0.31708   0.00000  Uiso   1.00
H384   H     0.63476   0.43959   0.21494   0.00000  Uiso   1.00
H385   H     0.61415   0.56176   0.28077   0.00000  Uiso   1.00
H386   H     0.63035   0.54161   0.49015   0.00000  Uiso   1.00
H387   H     0.38561   0.48980   0.42107   0.00000  Uiso   1.00
H388   H     0.42200   0.49294   0.06382   0.00000  Uiso   1.00
H389   H     0.36245   0.48585   0.01878   0.00000  Uiso   1.00
N390   N     0.38093   0.50001   0.25002   0.00000  Uiso   1.00
N391   N     0.61906   0.49998   0.25001   0.00000  Uiso   1.00
O392   O     0.46179   0.56108   0.25001   0.00000  Uiso   1.00
O393   O     0.39383   0.43228   0.20838   0.00000  Uiso   1.00
O394   O     0.38133   0.56791   0.32875   0.00000  Uiso   1.00
O395   O     0.35412   0.61188   0.27771   0.00000  Uiso   1.00
O396   O     0.61779   0.53852   0.39964   0.00000  Uiso   1.00
O397   O     0.47606   0.42401   0.04289   0.00000  Uiso   1.00
O398   O     0.48672   0.42353   0.12378   0.00000  Uiso   1.00
O399   O     0.54159   0.56334   0.36780   0.00000  Uiso   1.00
O400   O     0.57371   0.62150   0.17455   0.00000  Uiso   1.00
O401   O     0.53823   0.56107   0.25001   0.00000  Uiso   1.00
O402   O     0.44280   0.50000   0.32681   0.00000  Uiso   1.00
O403   O     0.51924   0.49999   0.32681   0.00000  Uiso   1.00
O404   O     0.46177   0.43893   0.25000   0.00000  Uiso   1.00
O405   O     0.53821   0.43892   0.25000   0.00000  Uiso   1.00
O406   O     0.48076   0.50001   0.17319   0.00000  Uiso   1.00
O407   O     0.55720   0.50000   0.17319   0.00000  Uiso   1.00
O408   O     0.42754   0.37770   0.32694   0.00000  Uiso   1.00
Zn409  Zn    0.44896   0.50001   0.25000   0.00000  Uiso   1.00
Zn410  Zn    0.55104   0.49999   0.25000   0.00000  Uiso   1.00
C411   C     0.83336   0.57988   0.24948   0.00000  Uiso   1.00
C412   C     0.79123   0.50807   0.41060   0.00000  Uiso   1.00
C413   C     0.87201   0.64443   0.21306   0.00000  Uiso   1.00
C414   C     0.80719   0.50291   0.35190   0.00000  Uiso   1.00
C415   C     0.87125   0.35452   0.21367   0.00000  Uiso   1.00
C416   C     0.83393   0.37613   0.25129   0.00000  Uiso   1.00
C417   C     0.79737   0.35565   0.28951   0.00000  Uiso   1.00
C418   C     0.79708   0.64584   0.28756   0.00000  Uiso   1.00
C419   C     0.83365   0.62409   0.24910   0.00000  Uiso   1.00
C420   C     0.98175   0.46602   0.23116   0.00000  Uiso   1.00
C421   C     0.69652   0.46556   0.23128   0.00000  Uiso   1.00
C422   C     0.81379   0.50569   0.49106   0.00000  Uiso   1.00
C423   C     0.68431   0.53461   0.26764   0.00000  Uiso   1.00
C424   C     0.97040   0.53450   0.26653   0.00000  Uiso   1.00
C425   C     0.83351   0.42019   0.25026   0.00000  Uiso   1.00
C426   C     0.85958   0.49851   0.14847   0.00000  Uiso   1.00
C427   C     0.93002   0.52719   0.01055   0.00000  Uiso   1.00
C428   C     0.87632   0.49868   0.09068   0.00000  Uiso   1.00
C429   C     0.74482   0.49700   0.44049   0.00000  Uiso   1.00
C430   C     0.73188   0.49356   0.49578   0.00000  Uiso   1.00
C431   C     0.76620   0.49713   0.02098   0.00000  Uiso   1.00
C432   C     0.77339   0.38350   0.37367   0.00000  Uiso   1.00
C433   C     0.82398   0.51832   0.43756   0.00000  Uiso   1.00
C434   C     0.70721   0.39356   0.22882   0.00000  Uiso   1.00
C435   C     0.69787   0.57187   0.29253   0.00000  Uiso   1.00
C436   C     0.97029   0.49742   0.38472   0.00000  Uiso   1.00
C437   C     0.82290   0.44301   0.07576   0.00000  Uiso   1.00
C438   C     0.84840   0.60109   0.38354   0.00000  Uiso   1.00
C439   C     0.95168   0.62885   0.18078   0.00000  Uiso   1.00
C440   C     0.85100   0.50432   0.01359   0.00000  Uiso   1.00
C441   C     0.89547   0.52181   0.48550   0.00000  Uiso   1.00
C442   C     0.90490   0.53415   0.43281   0.00000  Uiso   1.00
C443   C     0.86768   0.53855   0.41220   0.00000  Uiso   1.00
C444   C     0.84677   0.48457   0.06223   0.00000  Uiso   1.00
C445   C     0.91905   0.51832   0.06418   0.00000  Uiso   1.00
H446   H     0.94330   0.52774   0.08510   0.00000  Uiso   1.00
H447   H     0.77754   0.35288   0.39162   0.00000  Uiso   1.00
H448   H     0.74438   0.40155   0.40358   0.00000  Uiso   1.00
H449   H     0.80639   0.40203   0.36562   0.00000  Uiso   1.00
H450   H     0.68890   0.39515   0.27292   0.00000  Uiso   1.00
H451   H     0.73633   0.36976   0.22108   0.00000  Uiso   1.00
H452   H     0.68280   0.38233   0.20762   0.00000  Uiso   1.00
H453   H     0.69519   0.63520   0.29991   0.00000  Uiso   1.00
H454   H     0.95228   0.48132   0.35911   0.00000  Uiso   1.00
H455   H     0.96824   0.47771   0.41980   0.00000  Uiso   1.00
H456   H     0.67510   0.49917   0.36166   0.00000  Uiso   1.00
H457   H     0.89875   0.37138   0.18422   0.00000  Uiso   1.00
H458   H     0.80511   0.39483   0.12697   0.00000  Uiso   1.00
H459   H     0.85515   0.61657   0.41844   0.00000  Uiso   1.00
H460   H     0.80981   0.59564   0.39248   0.00000  Uiso   1.00
H461   H     0.85960   0.62317   0.34989   0.00000  Uiso   1.00
H462   H     0.97718   0.60423   0.15775   0.00000  Uiso   1.00
H463   H     0.95037   0.62684   0.22333   0.00000  Uiso   1.00
H464   H     0.96559   0.65971   0.16429   0.00000  Uiso   1.00
H465   H     0.76941   0.62943   0.31708   0.00000  Uiso   1.00
H466   H     0.96810   0.43959   0.21494   0.00000  Uiso   1.00
H467   H     0.94748   0.56176   0.28077   0.00000  Uiso   1.00
H468   H     0.96368   0.54161   0.49015   0.00000  Uiso   1.00
H469   H     0.71894   0.48980   0.42107   0.00000  Uiso   1.00
H470   H     0.75533   0.49294   0.06382   0.00000  Uiso   1.00
H471   H     0.69578   0.48585   0.01878   0.00000  Uiso   1.00
N472   N     0.71426   0.50001   0.25002   0.00000  Uiso   1.00
N473   N     0.95239   0.49998   0.25001   0.00000  Uiso   1.00
O474   O     0.79512   0.56108   0.25001   0.00000  Uiso   1.00
O475   O     0.72717   0.43228   0.20838   0.00000  Uiso   1.00
O476   O     0.71467   0.56791   0.32875   0.00000  Uiso   1.00
O477   O     0.68745   0.61188   0.27771   0.00000  Uiso   1.00
O478   O     0.95112   0.53852   0.39964   0.00000  Uiso   1.00
O479   O     0.80940   0.42401   0.04289   0.00000  Uiso   1.00
O480   O     0.82005   0.42353   0.12378   0.00000  Uiso   1.00
O481   O     0.87493   0.56334   0.36780   0.00000  Uiso   1.00
O482   O     0.90705   0.62150   0.17455   0.00000  Uiso   1.00
O483   O     0.87157   0.56107   0.25001   0.00000  Uiso   1.00
O484   O     0.77613   0.50000   0.32681   0.00000  Uiso   1.00
O485   O     0.85258   0.49999   0.32681   0.00000  Uiso   1.00
O486   O     0.79510   0.43893   0.25000   0.00000  Uiso   1.00
O487   O     0.87154   0.43892   0.25000   0.00000  Uiso   1.00
O488   O     0.81409   0.50001   0.17319   0.00000  Uiso   1.00
O489   O     0.89053   0.50000   0.17319   0.00000  Uiso   1.00
O490   O     0.76087   0.37770   0.32694   0.00000  Uiso   1.00
Zn491  Zn    0.78229   0.50001   0.25000   0.00000  Uiso   1.00
Zn492  Zn    0.88438   0.49999   0.25000   0.00000  Uiso   1.00
C493   C     0.16669   0.91322   0.24948   0.00000  Uiso   1.00
C494   C     0.12456   0.84140   0.41060   0.00000  Uiso   1.00
C495   C     0.20535   0.97777   0.21306   0.00000  Uiso   1.00
C496   C     0.14053   0.83625   0.35190   0.00000  Uiso   1.00
C497   C     0.20458   0.68785   0.21367   0.00000  Uiso   1.00
C498   C     0.16726   0.70946   0.25129   0.00000  Uiso   1.00
C499   C     0.13070   0.68898   0.28951   0.00000  Uiso   1.00
C500   C     0.13041   0.97917   0.28756   0.00000  Uiso   1.00
C501   C     0.16698   0.95743   0.24910   0.00000  Uiso   1.00
C502   C     0.31508   0.79935   0.23116   0.00000  Uiso   1.00
C503   C     0.02986   0.79890   0.23128   0.00000  Uiso   1.00
C504   C     0.14713   0.83903   0.49106   0.00000  Uiso   1.00
C505   C     0.01764   0.86795   0.26764   0.00000  Uiso   1.00
C506   C     0.30374   0.86783   0.26653   0.00000  Uiso   1.00
C507   C     0.16684   0.75352   0.25026   0.00000  Uiso   1.00
C508   C     0.19291   0.83185   0.14847   0.00000  Uiso   1.00
C509   C     0.26335   0.86052   0.01055   0.00000  Uiso   1.00
C510   C     0.20965   0.83202   0.09068   0.00000  Uiso   1.00
C511   C     0.07816   0.83033   0.44049   0.00000  Uiso   1.00
C512   C     0.06522   0.82689   0.49578   0.00000  Uiso   1.00
C513   C     0.09953   0.83046   0.02098   0.00000  Uiso   1.00
C514   C     0.10672   0.71684   0.37367   0.00000  Uiso   1.00
C515   C     0.15731   0.85165   0.43756   0.00000  Uiso   1.00
C516   C     0.04054   0.72689   0.22882   0.00000  Uiso   1.00
C517   C     0.03120   0.90520   0.29253   0.00000  Uiso   1.00
C518   C     0.30363   0.83076   0.38472   0.00000  Uiso   1.00
C519   C     0.15624   0.77634   0.07576   0.00000  Uiso   1.00
C520   C     0.18174   0.93442   0.38354   0.00000  Uiso   1.00
C521   C     0.28502   0.96218   0.18078   0.00000  Uiso   1.00
C522   C     0.18433   0.83765   0.01359   0.00000  Uiso   1.00
C523   C     0.22880   0.85515   0.48550   0.00000  Uiso   1.00
C524   C     0.23824   0.86749   0.43281   0.00000  Uiso   1.00
C525   C     0.20102   0.87188   0.41220   0.00000  Uiso   1.00
C526   C     0.18011   0.81790   0.06223   0.00000  Uiso   1.00
C527   C     0.25238   0.85166   0.06418   0.00000  Uiso   1.00
H528   H     0.27663   0.86107   0.08510   0.00000  Uiso   1.00
H529   H     0.11088   0.68622   0.39162   0.00000  Uiso   1.00
H530   H     0.07772   0.73489   0.40358   0.00000  Uiso   1.00
H531   H     0.13972   0.73536   0.36562   0.00000  Uiso   1.00
H532   H     0.02223   0.72849   0.27292   0.00000  Uiso   1.00
H533   H     0.06966   0.70310   0.22108   0.00000  Uiso   1.00
H534   H     0.01613   0.71566   0.20762   0.00000  Uiso   1.00
H535   H     0.02852   0.96853   0.29991   0.00000  Uiso   1.00
H536   H     0.28561   0.81465   0.35911   0.00000  Uiso   1.00
H537   H     0.30157   0.81104   0.41980   0.00000  Uiso   1.00
H538   H     0.00843   0.83251   0.36166   0.00000  Uiso   1.00
H539   H     0.23208   0.70472   0.18422   0.00000  Uiso   1.00
H540   H     0.13844   0.72817   0.12697   0.00000  Uiso   1.00
H541   H     0.18849   0.94990   0.41844   0.00000  Uiso   1.00
H542   H     0.14314   0.92897   0.39248   0.00000  Uiso   1.00
H543   H     0.19293   0.95650   0.34989   0.00000  Uiso   1.00
H544   H     0.31051   0.93757   0.15775   0.00000  Uiso   1.00
H545   H     0.28370   0.96017   0.22333   0.00000  Uiso   1.00
H546   H     0.29892   0.99304   0.16429   0.00000  Uiso   1.00
H547   H     0.10274   0.96276   0.31708   0.00000  Uiso   1.00
H548   H     0.30143   0.77292   0.21494   0.00000  Uiso   1.00
H549   H     0.28082   0.89509   0.28077   0.00000  Uiso   1.00
H550   H     0.29702   0.87494   0.49015   0.00000  Uiso   1.00
H551   H     0.05227   0.82313   0.42107   0.00000  Uiso   1.00
H552   H     0.08866   0.82627   0.06382   0.00000  Uiso   1.00
H553   H     0.02912   0.81919   0.01878   0.00000  Uiso   1.00
N554   N     0.04760   0.83334   0.25002   0.00000  Uiso   1.00
N555   N     0.28573   0.83331   0.25001   0.00000  Uiso   1.00
O556   O     0.12846   0.89442   0.25001   0.00000  Uiso   1.00
O557   O     0.06050   0.76561   0.20838   0.00000  Uiso   1.00
O558   O     0.04800   0.90124   0.32875   0.00000  Uiso   1.00
O559   O     0.02078   0.94521   0.27771   0.00000  Uiso   1.00
O560   O     0.28446   0.87185   0.39964   0.00000  Uiso   1.00
O561   O     0.14273   0.75735   0.04289   0.00000  Uiso   1.00
O562   O     0.15338   0.75686   0.12378   0.00000  Uiso   1.00
O563   O     0.20826   0.89667   0.36780   0.00000  Uiso   1.00
O564   O     0.24038   0.95484   0.17455   0.00000  Uiso   1.00
O565   O     0.20490   0.89441   0.25001   0.00000  Uiso   1.00
O566   O     0.10947   0.83333   0.32681   0.00000  Uiso   1.00
O567   O     0.18591   0.83332   0.32681   0.00000  Uiso   1.00
O568   O     0.12843   0.77226   0.25000   0.00000  Uiso   1.00
O569   O     0.20488   0.77225   0.25000   0.00000  Uiso   1.00
O570   O     0.14742   0.83335   0.17319   0.00000  Uiso   1.00
O571   O     0.22387   0.83334   0.17319   0.00000  Uiso   1.00
O572   O     0.09421   0.71103   0.32694   0.00000  Uiso   1.00
Zn573  Zn    0.11562   0.83334   0.25000   0.00000  Uiso   1.00
Zn574  Zn    0.21771   0.83333   0.25000   0.00000  Uiso   1.00
C575   C     0.50002   0.91322   0.24948   0.00000  Uiso   1.00
C576   C     0.45790   0.84140   0.41060   0.00000  Uiso   1.00
C577   C     0.53868   0.97777   0.21306   0.00000  Uiso   1.00
C578   C     0.47386   0.83625   0.35190   0.00000  Uiso   1.00
C579   C     0.53791   0.68785   0.21367   0.00000  Uiso   1.00
C580   C     0.50059   0.70946   0.25129   0.00000  Uiso   1.00
C581   C     0.46403   0.68898   0.28951   0.00000  Uiso   1.00
C582   C     0.46375   0.97917   0.28756   0.00000  Uiso   1.00
C583   C     0.50031   0.95743   0.24910   0.00000  Uiso   1.00
C584   C     0.64842   0.79935   0.23116   0.00000  Uiso   1.00
C585   C     0.36319   0.79890   0.23128   0.00000  Uiso   1.00
C586   C     0.48046   0.83903   0.49106   0.00000  Uiso   1.00
C587   C     0.35097   0.86795   0.26764   0.00000  Uiso   1.00
C588   C     0.63707   0.86783   0.26653   0.00000  Uiso   1.00
C589   C     0.50017   0.75352   0.25026   0.00000  Uiso   1.00
C590   C     0.52624   0.83185   0.14847   0.00000  Uiso   1.00
C591   C     0.59669   0.86052   0.01055   0.00000  Uiso   1.00
C592   C     0.54298   0.83202   0.09068   0.00000  Uiso   1.00
C593   C     0.41149   0.83033   0.44049   0.00000  Uiso   1.00
C594   C     0.39855   0.82689   0.49578   0.00000  Uiso   1.00
C595   C     0.43287   0.83046   0.02098   0.00000  Uiso   1.00
C596   C     0.44005   0.71684   0.37367   0.00000  Uiso   1.00
C597   C     0.49064   0.85165   0.43756   0.00000  Uiso   1.00
C598   C     0.37388   0.72689   0.22882   0.00000  Uiso   1.00
C599   C     0.36454   0.90520   0.29253   0.00000  Uiso   1.00
C600   C     0.63696   0.83076   0.38472   0.00000  Uiso   1.00
C601   C     0.48957   0.77634   0.07576   0.00000  Uiso   1.00
C602   C     0.51507   0.93442   0.38354   0.00000  Uiso   1.00
C603   C     0.61835   0.96218   0.18078   0.00000  Uiso   1.00
C604   C     0.51767   0.83765   0.01359   0.00000  Uiso   1.00
C605   C     0.56214   0.85515   0.48550   0.00000  Uiso   1.00
C606   C     0.57157   0.86749   0.43281   0.00000  Uiso   1.00
C607   C     0.53435   0.87188   0.41220   0.00000  Uiso   1.00
C608   C     0.51344   0.81790   0.06223   0.00000  Uiso   1.00
C609   C     0.58572   0.85166   0.06418   0.00000  Uiso   1.00
H610   H     0.60997   0.86107   0.08510   0.00000  Uiso   1.00
H611   H     0.44421   0.68622   0.39162   0.00000  Uiso   1.00
H612   H     0.41105   0.73489   0.40358   0.00000  Uiso   1.00
H613   H     0.47305   0.73536   0.36562   0.00000  Uiso   1.00
H614   H     0.35556   0.72849   0.27292   0.00000  Uiso   1.00
H615   H     0.40299   0.70310   0.22108   0.00000  Uiso   1.00
H616   H     0.34946   0.71566   0.20762   0.00000  Uiso   1.00
H617   H     0.36185   0.96853   0.29991   0.00000  Uiso   1.00
H618   H     0.61894   0.81465   0.35911   0.00000  Uiso   1.00
H619   H     0.63491   0.81104   0.41980   0.00000  Uiso   1.00
H620   H     0.34177   0.83251   0.36166   0.00000  Uiso   1.00
H621   H     0.56541   0.70472   0.18422   0.00000  Uiso   1.00
H622   H     0.47178   0.72817   0.12697   0.00000  Uiso   1.00
H623   H     0.52182   0.94990   0.41844   0.00000  Uiso   1.00
H624   H     0.47648   0.92897   0.39248   0.00000  Uiso   1.00
H625   H     0.52626   0.95650   0.34989   0.00000  Uiso   1.00
H626   H     0.64384   0.93757   0.15775   0.00000  Uiso   1.00
H627   H     0.61703   0.96017   0.22333   0.00000  Uiso   1.00
H628   H     0.63225   0.99304   0.16429   0.00000  Uiso   1.00
H629   H     0.43608   0.96276   0.31708   0.00000  Uiso   1.00
H630   H     0.63476   0.77292   0.21494   0.00000  Uiso   1.00
H631   H     0.61415   0.89509   0.28077   0.00000  Uiso   1.00
H632   H     0.63035   0.87494   0.49015   0.00000  Uiso   1.00
H633   H     0.38561   0.82313   0.42107   0.00000  Uiso   1.00
H634   H     0.42200   0.82627   0.06382   0.00000  Uiso   1.00
H635   H     0.36245   0.81919   0.01878   0.00000  Uiso   1.00
N636   N     0.38093   0.83334   0.25002   0.00000  Uiso   1.00
N637   N     0.61906   0.83331   0.25001   0.00000  Uiso   1.00
O638   O     0.46179   0.89442   0.25001   0.00000  Uiso   1.00
O639   O     0.39383   0.76561   0.20838   0.00000  Uiso   1.00
O640   O     0.38133   0.90124   0.32875   0.00000  Uiso   1.00
O641   O     0.35412   0.94521   0.27771   0.00000  Uiso   1.00
O642   O     0.61779   0.87185   0.39964   0.00000  Uiso   1.00
O643   O     0.47606   0.75735   0.04289   0.00000  Uiso   1.00
O644   O     0.48672   0.75686   0.12378   0.00000  Uiso   1.00
O645   O     0.54159   0.89667   0.36780   0.00000  Uiso   1.00
O646   O     0.57371   0.95484   0.17455   0.00000  Uiso   1.00
O647   O     0.53823   0.89441   0.25001   0.00000  Uiso   1.00
O648   O     0.44280   0.83333   0.32681   0.00000  Uiso   1.00
O649   O     0.51924   0.83332   0.32681   0.00000  Uiso   1.00
O650   O     0.46177   0.77226   0.25000   0.00000  Uiso   1.00
O651   O     0.53821   0.77225   0.25000   0.00000  Uiso   1.00
O652   O     0.48076   0.83335   0.17319   0.00000  Uiso   1.00
O653   O     0.55720   0.83334   0.17319   0.00000  Uiso   1.00
O654   O     0.42754   0.71103   0.32694   0.00000  Uiso   1.00
Zn655  Zn    0.44896   0.83334   0.25000   0.00000  Uiso   1.00
Zn656  Zn    0.55104   0.83333   0.25000   0.00000  Uiso   1.00
C657   C     0.83336   0.91322   0.24948   0.00000  Uiso   1.00
C658   C     0.79123   0.84140   0.41060   0.00000  Uiso   1.00
C659   C     0.87201   0.97777   0.21306   0.00000  Uiso   1.00
C660   C     0.80719   0.83625   0.35190   0.00000  Uiso   1.00
C661   C     0.87125   0.68785   0.21367   0.00000  Uiso   1.00
C662   C     0.83393   0.70946   0.25129   0.00000  Uiso   1.00
C663   C     0.79737   0.68898   0.28951   0.00000  Uiso   1.00
C664   C     0.79708   0.97917   0.28756   0.00000  Uiso   1.00
C665   C     0.83365   0.95743   0.24910   0.00000  Uiso   1.00
C666   C     0.98175   0.79935   0.23116   0.00000  Uiso   1.00
C667   C     0.69652   0.79890   0.23128   0.00000  Uiso   1.00
C668   C     0.81379   0.83903   0.49106   0.00000  Uiso   1.00
C669   C     0.68431   0.86795   0.26764   0.00000  Uiso   1.00
C670   C     0.97040   0.86783   0.26653   0.00000  Uiso   1.00
C671   C     0.83351   0.75352   0.25026   0.00000  Uiso   1.00
C672   C     0.85958   0.83185   0.14847   0.00000  Uiso   1.00
C673   C     0.93002   0.86052   0.01055   0.00000  Uiso   1.00
C674   C     0.87632   0.83202   0.09068   0.00000  Uiso   1.00
C675   C     0.74482   0.83033   0.44049   0.00000  Uiso   1.00
C676   C     0.73188   0.82689   0.49578   0.00000  Uiso   1.00
C677   C     0.76620   0.83046   0.02098   0.00000  Uiso   1.00
C678   C     0.77339   0.71684   0.37367   0.00000  Uiso   1.00
C679   C     0.82398   0.85165   0.43756   0.00000  Uiso   1.00
C680   C     0.70721   0.72689   0.22882   0.00000  Uiso   1.00
C681   C     0.69787   0.90520   0.29253   0.00000  Uiso   1.00
C682   C     0.97029   0.83076   0.38472   0.00000  Uiso   1.00
C683   C     0.82290   0.77634   0.07576   0.00000  Uiso   1.00
C684   C     0.84840   0.93442   0.38354   0.00000  Uiso   1.00
C685   C     0.95168   0.96218   0.18078   0.00000  Uiso   1.00
C686   C     0.85100   0.83765   0.01359   0.00000  Uiso   1.00
C687   C     0.89547   0.85515   0.48550   0.00000  Uiso   1.00
C688   C     0.90490   0.86749   0.43281   0.00000  Uiso   1.00
C689   C     0.86768   0.87188   0.41220   0.00000  Uiso   1.00
C690   C     0.84677   0.81790   0.06223   0.00000  Uiso   1.00
C691   C     0.91905   0.85166   0.06418   0.00000  Uiso   1.00
H692   H     0.94330   0.86107   0.08510   0.00000  Uiso   1.00
H693   H     0.77754   0.68622   0.39162   0.00000  Uiso   1.00
H694   H     0.74438   0.73489   0.40358   0.00000  Uiso   1.00
H695   H     0.80639   0.73536   0.36562   0.00000  Uiso   1.00
H696   H     0.68890   0.72849   0.27292   0.00000  Uiso   1.00
H697   H     0.73633   0.70310   0.22108   0.00000  Uiso   1.00
H698   H     0.68280   0.71566   0.20762   0.00000  Uiso   1.00
H699   H     0.69519   0.96853   0.29991   0.00000  Uiso   1.00
H700   H     0.95228   0.81465   0.35911   0.00000  Uiso   1.00
H701   H     0.96824   0.81104   0.41980   0.00000  Uiso   1.00
H702   H     0.67510   0.83251   0.36166   0.00000  Uiso   1.00
H703   H     0.89875   0.70472   0.18422   0.00000  Uiso   1.00
H704   H     0.80511   0.72817   0.12697   0.00000  Uiso   1.00
H705   H     0.85515   0.94990   0.41844   0.00000  Uiso   1.00
H706   H     0.80981   0.92897   0.39248   0.00000  Uiso   1.00
H707   H     0.85960   0.95650   0.34989   0.00000  Uiso   1.00
H708   H     0.97718   0.93757   0.15775   0.00000  Uiso   1.00
H709   H     0.95037   0.96017   0.22333   0.00000  Uiso   1.00
H710   H     0.96559   0.99304   0.16429   0.00000  Uiso   1.00
H711   H     0.76941   0.96276   0.31708   0.00000  Uiso   1.00
H712   H     0.96810   0.77292   0.21494   0.00000  Uiso   1.00
H713   H     0.94748   0.89509   0.28077   0.00000  Uiso   1.00
H714   H     0.96368   0.87494   0.49015   0.00000  Uiso   1.00
H715   H     0.71894   0.82313   0.42107   0.00000  Uiso   1.00
H716   H     0.75533   0.82627   0.06382   0.00000  Uiso   1.00
H717   H     0.69578   0.81919   0.01878   0.00000  Uiso   1.00
N718   N     0.71426   0.83334   0.25002   0.00000  Uiso   1.00
N719   N     0.95239   0.83331   0.25001   0.00000  Uiso   1.00
O720   O     0.79512   0.89442   0.25001   0.00000  Uiso   1.00
O721   O     0.72717   0.76561   0.20838   0.00000  Uiso   1.00
O722   O     0.71467   0.90124   0.32875   0.00000  Uiso   1.00
O723   O     0.68745   0.94521   0.27771   0.00000  Uiso   1.00
O724   O     0.95112   0.87185   0.39964   0.00000  Uiso   1.00
O725   O     0.80940   0.75735   0.04289   0.00000  Uiso   1.00
O726   O     0.82005   0.75686   0.12378   0.00000  Uiso   1.00
O727   O     0.87493   0.89667   0.36780   0.00000  Uiso   1.00
O728   O     0.90705   0.95484   0.17455   0.00000  Uiso   1.00
O729   O     0.87157   0.89441   0.25001   0.00000  Uiso   1.00
O730   O     0.77613   0.83333   0.32681   0.00000  Uiso   1.00
O731   O     0.85258   0.83332   0.32681   0.00000  Uiso   1.00
O732   O     0.79510   0.77226   0.25000   0.00000  Uiso   1.00
O733   O     0.87154   0.77225   0.25000   0.00000  Uiso   1.00
O734   O     0.81409   0.83335   0.17319   0.00000  Uiso   1.00
O735   O     0.89053   0.83334   0.17319   0.00000  Uiso   1.00
O736   O     0.76087   0.71103   0.32694   0.00000  Uiso   1.00
Zn737  Zn    0.78229   0.83334   0.25000   0.00000  Uiso   1.00
Zn738  Zn    0.88438   0.83333   0.25000   0.00000  Uiso   1.00
C739   C     0.16669   0.24655   0.74948   0.00000  Uiso   1.00
C740   C     0.12456   0.17473   0.91060   0.00000  Uiso   1.00
C741   C     0.20535   0.31110   0.71306   0.00000  Uiso   1.00
C742   C     0.14053   0.16958   0.85190   0.00000  Uiso   1.00
C743   C     0.20458   0.02118   0.71367   0.00000  Uiso   1.00
C744   C     0.16726   0.04280   0.75129   0.00000  Uiso   1.00
C745   C     0.13070   0.02232   0.78951   0.00000  Uiso   1.00
C746   C     0.13041   0.31251   0.78756   0.00000  Uiso   1.00
C747   C     0.16698   0.29076   0.74910   0.00000  Uiso   1.00
C748   C     0.31508   0.13269   0.73116   0.00000  Uiso   1.00
C749   C     0.02986   0.13223   0.73128   0.00000  Uiso   1.00
C750   C     0.14713   0.17236   0.99106   0.00000  Uiso   1.00
C751   C     0.01764   0.20128   0.76764   0.00000  Uiso   1.00
C752   C     0.30374   0.20117   0.76653   0.00000  Uiso   1.00
C753   C     0.16684   0.08685   0.75026   0.00000  Uiso   1.00
C754   C     0.19291   0.16518   0.64847   0.00000  Uiso   1.00
C755   C     0.26335   0.19385   0.51055   0.00000  Uiso   1.00
C756   C     0.20965   0.16535   0.59068   0.00000  Uiso   1.00
C757   C     0.07816   0.16367   0.94049   0.00000  Uiso   1.00
C758   C     0.06522   0.16023   0.99578   0.00000  Uiso   1.00
C759   C     0.09953   0.16380   0.52098   0.00000  Uiso   1.00
C760   C     0.10672   0.05017   0.87367   0.00000  Uiso   1.00
C761   C     0.15731   0.18499   0.93756   0.00000  Uiso   1.00
C762   C     0.04054   0.06022   0.72882   0.00000  Uiso   1.00
C763   C     0.03120   0.23854   0.79253   0.00000  Uiso   1.00
C764   C     0.30363   0.16409   0.88472   0.00000  Uiso   1.00
C765   C     0.15624   0.10968   0.57576   0.00000  Uiso   1.00
C766   C     0.18174   0.26776   0.88354   0.00000  Uiso   1.00
C767   C     0.28502   0.29551   0.68078   0.00000  Uiso   1.00
C768   C     0.18433   0.17099   0.51359   0.00000  Uiso   1.00
C769   C     0.22880   0.18848   0.98550   0.00000  Uiso   1.00
C770   C     0.23824   0.20082   0.93281   0.00000  Uiso   1.00
C771   C     0.20102   0.20521   0.91220   0.00000  Uiso   1.00
C772   C     0.18011   0.15123   0.56223   0.00000  Uiso   1.00
C773   C     0.25238   0.18499   0.56418   0.00000  Uiso   1.00
H774   H     0.27663   0.19441   0.58510   0.00000  Uiso   1.00
H775   H     0.11088   0.01955   0.89162   0.00000  Uiso   1.00
H776   H     0.07772   0.06822   0.90358   0.00000  Uiso   1.00
H777   H     0.13972   0.06869   0.86562   0.00000  Uiso   1.00
H778   H     0.02223   0.06182   0.77292   0.00000  Uiso   1.00
H779   H     0.06966   0.03643   0.72108   0.00000  Uiso   1.00
H780   H     0.01613   0.04899   0.70762   0.00000  Uiso   1.00
H781   H     0.02852   0.30186   0.79991   0.00000  Uiso   1.00
H782   H     0.28561   0.14799   0.85911   0.00000  Uiso   1.00
H783   H     0.30157   0.14438   0.91980   0.00000  Uiso   1.00
H784   H     0.00843   0.16584   0.86166   0.00000  Uiso   1.00
H785   H     0.23208   0.03805   0.68422   0.00000  Uiso   1.00
H786   H     0.13844   0.06150   0.62697   0.00000  Uiso   1.00
H787   H     0.18849   0.28324   0.91844   0.00000  Uiso   1.00
H788   H     0.14314   0.26231   0.89248   0.00000  Uiso   1.00
H789   H     0.19293   0.28983   0.84989   0.00000  Uiso   1.00
H790   H     0.31051   0.27090   0.65775   0.00000  Uiso   1.00
H791   H     0.28370   0.29351   0.72333   0.00000  Uiso   1.00
H792   H     0.29892   0.32638   0.66429   0.00000  Uiso   1.00
H793   H     0.10274   0.29609   0.81708   0.00000  Uiso   1.00
H794   H     0.30143   0.10626   0.71494   0.00000  Uiso   1.00
H795   H     0.28082   0.22842   0.78077   0.00000  Uiso   1.00
H796   H     0.29702   0.20828   0.99015   0.00000  Uiso   1.00
H797   H     0.05227   0.15646   0.92107   0.00000  Uiso   1.00
H798   H     0.08866   0.15961   0.56382   0.00000  Uiso   1.00
H799   H     0.02912   0.15252   0.51878   0.00000  Uiso   1.00
N800   N     0.04760   0.16668   0.75002   0.00000  Uiso   1.00
N801   N     0.28573   0.16665   0.75001   0.00000  Uiso   1.00
O802   O     0.12846   0.22775   0.75001   0.00000  Uiso   1.00
O803   O     0.06050   0.09894   0.70838   0.00000  Uiso   1.00
O804   O     0.04800   0.23457   0.82875   0.00000  Uiso   1.00
O805   O     0.02078   0.27854   0.77771   0.00000  Uiso   1.00
O806   O     0.28446   0.20518   0.89964   0.00000  Uiso   1.00
O807   O     0.14273   0.09068   0.54289   0.00000  Uiso   1.00
O808   O     0.15338   0.09019   0.62378   0.00000  Uiso   1.00
O809   O     0.20826   0.23001   0.86780   0.00000  Uiso   1.00
O810   O     0.24038   0.28817   0.67455   0.00000  Uiso   1.00
O811   O     0.20490   0.22774   0.75001   0.00000  Uiso   1.00
O812   O     0.10947   0.16666   0.82681   0.00000  Uiso   1.00
O813   O     0.18591   0.16665   0.82681   0.00000  Uiso   1.00
O814   O     0.12843   0.10559   0.75000   0.00000  Uiso   1.00
O815   O     0.20488   0.10558   0.75000   0.00000  Uiso   1.00
O816   O     0.14742   0.16668   0.67319   0.00000  Uiso   1.00
O817   O     0.22387   0.16667   0.67319   0.00000  Uiso   1.00
O818   O     0.09421   0.04437   0.82694   0.00000  Uiso   1.00
Zn819  Zn    0.11562   0.16667   0.75000   0.00000  Uiso   1.00
Zn820  Zn    0.21771   0.16666   0.75000   0.00000  Uiso   1.00
C821   C     0.50002   0.24655   0.74948   0.00000  Uiso   1.00
C822   C     0.45790   0.17473   0.91060   0.00000  Uiso   1.00
C823   C     0.53868   0.31110   0.71306   0.00000  Uiso   1.00
C824   C     0.47386   0.16958   0.85190   0.00000  Uiso   1.00
C825   C     0.53791   0.02118   0.71367   0.00000  Uiso   1.00
C826   C     0.50059   0.04280   0.75129   0.00000  Uiso   1.00
C827   C     0.46403   0.02232   0.78951   0.00000  Uiso   1.00
C828   C     0.46375   0.31251   0.78756   0.00000  Uiso   1.00
C829   C     0.50031   0.29076   0.74910   0.00000  Uiso   1.00
C830   C     0.64842   0.13269   0.73116   0.00000  Uiso   1.00
C831   C     0.36319   0.13223   0.73128   0.00000  Uiso   1.00
C832   C     0.48046   0.17236   0.99106   0.00000  Uiso   1.00
C833   C     0.35097   0.20128   0.76764   0.00000  Uiso   1.00
C834   C     0.63707   0.20117   0.76653   0.00000  Uiso   1.00
C835   C     0.50017   0.08685   0.75026   0.00000  Uiso   1.00
C836   C     0.52624   0.16518   0.64847   0.00000  Uiso   1.00
C837   C     0.59669   0.19385   0.51055   0.00000  Uiso   1.00
C838   C     0.54298   0.16535   0.59068   0.00000  Uiso   1.00
C839   C     0.41149   0.16367   0.94049   0.00000  Uiso   1.00
C840   C     0.39855   0.16023   0.99578   0.00000  Uiso   1.00
C841   C     0.43287   0.16380   0.52098   0.00000  Uiso   1.00
C842   C     0.44005   0.05017   0.87367   0.00000  Uiso   1.00
C843   C     0.49064   0.18499   0.93756   0.00000  Uiso   1.00
C844   C     0.37388   0.06022   0.72882   0.00000  Uiso   1.00
C845   C     0.36454   0.23854   0.79253   0.00000  Uiso   1.00
C846   C     0.63696   0.16409   0.88472   0.00000  Uiso   1.00
C847   C     0.48957   0.10968   0.57576   0.00000  Uiso   1.00
C848   C     0.51507   0.26776   0.88354   0.00000  Uiso   1.00
C849   C     0.61835   0.29551   0.68078   0.00000  Uiso   1.00
C850   C     0.51767   0.17099   0.51359   0.00000  Uiso   1.00
C851   C     0.56214   0.18848   0.98550   0.00000  Uiso   1.00
C852   C     0.57157   0.20082   0.93281   0.00000  Uiso   1.00
C853   C     0.53435   0.20521   0.91220   0.00000  Uiso   1.00
C854   C     0.51344   0.15123   0.56223   0.00000  Uiso   1.00
C855   C     0.58572   0.18499   0.56418   0.00000  Uiso   1.00
H856   H     0.60997   0.19441   0.58510   0.00000  Uiso   1.00
H857   H     0.44421   0.01955   0.89162   0.00000  Uiso   1.00
H858   H     0.41105   0.06822   0.90358   0.00000  Uiso   1.00
H859   H     0.47305   0.06869   0.86562   0.00000  Uiso   1.00
H860   H     0.35556   0.06182   0.77292   0.00000  Uiso   1.00
H861   H     0.40299   0.03643   0.72108   0.00000  Uiso   1.00
H862   H     0.34946   0.04899   0.70762   0.00000  Uiso   1.00
H863   H     0.36185   0.30186   0.79991   0.00000  Uiso   1.00
H864   H     0.61894   0.14799   0.85911   0.00000  Uiso   1.00
H865   H     0.63491   0.14438   0.91980   0.00000  Uiso   1.00
H866   H     0.34177   0.16584   0.86166   0.00000  Uiso   1.00
H867   H     0.56541   0.03805   0.68422   0.00000  Uiso   1.00
H868   H     0.47178   0.06150   0.62697   0.00000  Uiso   1.00
H869   H     0.52182   0.28324   0.91844   0.00000  Uiso   1.00
H870   H     0.47648   0.26231   0.89248   0.00000  Uiso   1.00
H871   H     0.52626   0.28983   0.84989   0.00000  Uiso   1.00
H872   H     0.64384   0.27090   0.65775   0.00000  Uiso   1.00
H873   H     0.61703   0.29351   0.72333   0.00000  Uiso   1.00
H874   H     0.63225   0.32638   0.66429   0.00000  Uiso   1.00
H875   H     0.43608   0.29609   0.81708   0.00000  Uiso   1.00
H876   H     0.63476   0.10626   0.71494   0.00000  Uiso   1.00
H877   H     0.61415   0.22842   0.78077   0.00000  Uiso   1.00
H878   H     0.63035   0.20828   0.99015   0.00000  Uiso   1.00
H879   H     0.38561   0.15646   0.92107   0.00000  Uiso   1.00
H880   H     0.42200   0.15961   0.56382   0.00000  Uiso   1.00
H881   H     0.36245   0.15252   0.51878   0.00000  Uiso   1.00
N882   N     0.38093   0.16668   0.75002   0.00000  Uiso   1.00
N883   N     0.61906   0.16665   0.75001   0.00000  Uiso   1.00
O884   O     0.46179   0.22775   0.75001   0.00000  Uiso   1.00
O885   O     0.39383   0.09894   0.70838   0.00000  Uiso   1.00
O886   O     0.38133   0.23457   0.82875   0.00000  Uiso   1.00
O887   O     0.35412   0.27854   0.77771   0.00000  Uiso   1.00
O888   O     0.61779   0.20518   0.89964   0.00000  Uiso   1.00
O889   O     0.47606   0.09068   0.54289   0.00000  Uiso   1.00
O890   O     0.48672   0.09019   0.62378   0.00000  Uiso   1.00
O891   O     0.54159   0.23001   0.86780   0.00000  Uiso   1.00
O892   O     0.57371   0.28817   0.67455   0.00000  Uiso   1.00
O893   O     0.53823   0.22774   0.75001   0.00000  Uiso   1.00
O894   O     0.44280   0.16666   0.82681   0.00000  Uiso   1.00
O895   O     0.51924   0.16665   0.82681   0.00000  Uiso   1.00
O896   O     0.46177   0.10559   0.75000   0.00000  Uiso   1.00
O897   O     0.53821   0.10558   0.75000   0.00000  Uiso   1.00
O898   O     0.48076   0.16668   0.67319   0.00000  Uiso   1.00
O899   O     0.55720   0.16667   0.67319   0.00000  Uiso   1.00
O900   O     0.42754   0.04437   0.82694   0.00000  Uiso   1.00
Zn901  Zn    0.44896   0.16667   0.75000   0.00000  Uiso   1.00
Zn902  Zn    0.55104   0.16666   0.75000   0.00000  Uiso   1.00
C903   C     0.83336   0.24655   0.74948   0.00000  Uiso   1.00
C904   C     0.79123   0.17473   0.91060   0.00000  Uiso   1.00
C905   C     0.87201   0.31110   0.71306   0.00000  Uiso   1.00
C906   C     0.80719   0.16958   0.85190   0.00000  Uiso   1.00
C907   C     0.87125   0.02118   0.71367   0.00000  Uiso   1.00
C908   C     0.83393   0.04280   0.75129   0.00000  Uiso   1.00
C909   C     0.79737   0.02232   0.78951   0.00000  Uiso   1.00
C910   C     0.79708   0.31251   0.78756   0.00000  Uiso   1.00
C911   C     0.83365   0.29076   0.74910   0.00000  Uiso   1.00
C912   C     0.98175   0.13269   0.73116   0.00000  Uiso   1.00
C913   C     0.69652   0.13223   0.73128   0.00000  Uiso   1.00
C914   C     0.81379   0.17236   0.99106   0.00000  Uiso   1.00
C915   C     0.68431   0.20128   0.76764   0.00000  Uiso   1.00
C916   C     0.97040   0.20117   0.76653   0.00000  Uiso   1.00
C917   C     0.83351   0.08685   0.75026   0.00000  Uiso   1.00
C918   C     0.85958   0.16518   0.64847   0.00000  Uiso   1.00
C919   C     0.93002   0.19385   0.51055   0.00000  Uiso   1.00
C920   C     0.87632   0.16535   0.59068   0.00000  Uiso   1.00
C921   C     0.74482   0.16367   0.94049   0.00000  Uiso   1.00
C922   C     0.73188   0.16023   0.99578   0.00000  Uiso   1.00
C923   C     0.76620   0.16380   0.52098   0.00000  Uiso   1.00
C924   C     0.77339   0.05017   0.87367   0.00000  Uiso   1.00
C925   C     0.82398   0.18499   0.93756   0.00000  Uiso   1.00
C926   C     0.70721   0.06022   0.72882   0.00000  Uiso   1.00
C927   C     0.69787   0.23854   0.79253   0.00000  Uiso   1.00
C928   C     0.97029   0.16409   0.88472   0.00000  Uiso   1.00
C929   C     0.82290   0.10968   0.57576   0.00000  Uiso   1.00
C930   C     0.84840   0.26776   0.88354   0.00000  Uiso   1.00
C931   C     0.95168   0.29551   0.68078   0.00000  Uiso   1.00
C932   C     0.85100   0.17099   0.51359   0.00000  Uiso   1.00
C933   C     0.89547   0.18848   0.98550   0.00000  Uiso   1.00
C934   C     0.90490   0.20082   0.93281   0.00000  Uiso   1.00
C935   C     0.86768   0.20521   0.91220   0.00000  Uiso   1.00
C936   C     0.84677   0.15123   0.56223   0.00000  Uiso   1.00
C937   C     0.91905   0.18499   0.56418   0.00000  Uiso   1.00
H938   H     0.94330   0.19441   0.58510   0.00000  Uiso   1.00
H939   H     0.77754   0.01955   0.89162   0.00000  Uiso   1.00
H940   H     0.74438   0.06822   0.90358   0.00000  Uiso   1.00
H941   H     0.80639   0.06869   0.86562   0.00000  Uiso   1.00
H942   H     0.68890   0.06182   0.77292   0.00000  Uiso   1.00
H943   H     0.73633   0.03643   0.72108   0.00000  Uiso   1.00
H944   H     0.68280   0.04899   0.70762   0.00000  Uiso   1.00
H945   H     0.69519   0.30186   0.79991   0.00000  Uiso   1.00
H946   H     0.95228   0.14799   0.85911   0.00000  Uiso   1.00
H947   H     0.96824   0.14438   0.91980   0.00000  Uiso   1.00
H948   H     0.67510   0.16584   0.86166   0.00000  Uiso   1.00
H949   H     0.89875   0.03805   0.68422   0.00000  Uiso   1.00
H950   H     0.80511   0.06150   0.62697   0.00000  Uiso   1.00
H951   H     0.85515   0.28324   0.91844   0.00000  Uiso   1.00
H952   H     0.80981   0.26231   0.89248   0.00000  Uiso   1.00
H953   H     0.85960   0.28983   0.84989   0.00000  Uiso   1.00
H954   H     0.97718   0.27090   0.65775   0.00000  Uiso   1.00
H955   H     0.95037   0.29351   0.72333   0.00000  Uiso   1.00
H956   H     0.96559   0.32638   0.66429   0.00000  Uiso   1.00
H957   H     0.76941   0.29609   0.81708   0.00000  Uiso   1.00
H958   H     0.96810   0.10626   0.71494   0.00000  Uiso   1.00
H959   H     0.94748   0.22842   0.78077   0.00000  Uiso   1.00
H960   H     0.96368   0.20828   0.99015   0.00000  Uiso   1.00
H961   H     0.71894   0.15646   0.92107   0.00000  Uiso   1.00
H962   H     0.75533   0.15961   0.56382   0.00000  Uiso   1.00
H963   H     0.69578   0.15252   0.51878   0.00000  Uiso   1.00
N964   N     0.71426   0.16668   0.75002   0.00000  Uiso   1.00
N965   N     0.95239   0.16665   0.75001   0.00000  Uiso   1.00
O966   O     0.79512   0.22775   0.75001   0.00000  Uiso   1.00
O967   O     0.72717   0.09894   0.70838   0.00000  Uiso   1.00
O968   O     0.71467   0.23457   0.82875   0.00000  Uiso   1.00
O969   O     0.68745   0.27854   0.77771   0.00000  Uiso   1.00
O970   O     0.95112   0.20518   0.89964   0.00000  Uiso   1.00
O971   O     0.80940   0.09068   0.54289   0.00000  Uiso   1.00
O972   O     0.82005   0.09019   0.62378   0.00000  Uiso   1.00
O973   O     0.87493   0.23001   0.86780   0.00000  Uiso   1.00
O974   O     0.90705   0.28817   0.67455   0.00000  Uiso   1.00
O975   O     0.87157   0.22774   0.75001   0.00000  Uiso   1.00
O976   O     0.77613   0.16666   0.82681   0.00000  Uiso   1.00
O977   O     0.85258   0.16665   0.82681   0.00000  Uiso   1.00
O978   O     0.79510   0.10559   0.75000   0.00000  Uiso   1.00
O979   O     0.87154   0.10558   0.75000   0.00000  Uiso   1.00
O980   O     0.81409   0.16668   0.67319   0.00000  Uiso   1.00
O981   O     0.89053   0.16667   0.67319   0.00000  Uiso   1.00
O982   O     0.76087   0.04437   0.82694   0.00000  Uiso   1.00
Zn983  Zn    0.78229   0.16667   0.75000   0.00000  Uiso   1.00
Zn984  Zn    0.88438   0.16666   0.75000   0.00000  Uiso   1.00
C985   C     0.16669   0.57988   0.74948   0.00000  Uiso   1.00
C986   C     0.12456   0.50807   0.91060   0.00000  Uiso   1.00
C987   C     0.20535   0.64443   0.71306   0.00000  Uiso   1.00
C988   C     0.14053   0.50291   0.85190   0.00000  Uiso   1.00
C989   C     0.20458   0.35452   0.71367   0.00000  Uiso   1.00
C990   C     0.16726   0.37613   0.75129   0.00000  Uiso   1.00
C991   C     0.13070   0.35565   0.78951   0.00000  Uiso   1.00
C992   C     0.13041   0.64584   0.78756   0.00000  Uiso   1.00
C993   C     0.16698   0.62409   0.74910   0.00000  Uiso   1.00
C994   C     0.31508   0.46602   0.73116   0.00000  Uiso   1.00
C995   C     0.02986   0.46556   0.73128   0.00000  Uiso   1.00
C996   C     0.14713   0.50569   0.99106   0.00000  Uiso   1.00
C997   C     0.01764   0.53461   0.76764   0.00000  Uiso   1.00
C998   C     0.30374   0.53450   0.76653   0.00000  Uiso   1.00
C999   C     0.16684   0.42019   0.75026   0.00000  Uiso   1.00
C1000  C     0.19291   0.49851   0.64847   0.00000  Uiso   1.00
C1001  C     0.26335   0.52719   0.51055   0.00000  Uiso   1.00
C1002  C     0.20965   0.49868   0.59068   0.00000  Uiso   1.00
C1003  C     0.07816   0.49700   0.94049   0.00000  Uiso   1.00
C1004  C     0.06522   0.49356   0.99578   0.00000  Uiso   1.00
C1005  C     0.09953   0.49713   0.52098   0.00000  Uiso   1.00
C1006  C     0.10672   0.38350   0.87367   0.00000  Uiso   1.00
C1007  C     0.15731   0.51832   0.93756   0.00000  Uiso   1.00
C1008  C     0.04054   0.39356   0.72882   0.00000  Uiso   1.00
C1009  C     0.03120   0.57187   0.79253   0.00000  Uiso   1.00
C1010  C     0.30363   0.49742   0.88472   0.00000  Uiso   1.00
C1011  C     0.15624   0.44301   0.57576   0.00000  Uiso   1.00
C1012  C     0.18174   0.60109   0.88354   0.00000  Uiso   1.00
C1013  C     0.28502   0.62885   0.68078   0.00000  Uiso   1.00
C1014  C     0.18433   0.50432   0.51359   0.00000  Uiso   1.00
C1015  C     0.22880   0.52181   0.98550   0.00000  Uiso   1.00
C1016  C     0.23824   0.53415   0.93281   0.00000  Uiso   1.00
C1017  C     0.20102   0.53855   0.91220   0.00000  Uiso   1.00
C1018  C     0.18011   0.48457   0.56223   0.00000  Uiso   1.00
C1019  C     0.25238   0.51832   0.56418   0.00000  Uiso   1.00
H1020  H     0.27663   0.52774   0.58510   0.00000  Uiso   1.00
H1021  H     0.11088   0.35288   0.89162   0.00000  Uiso   1.00
H1022  H     0.07772   0.40155   0.90358   0.00000  Uiso   1.00
H1023  H     0.13972   0.40203   0.86562   0.00000  Uiso   1.00
H1024  H     0.02223   0.39515   0.77292   0.00000  Uiso   1.00
H1025  H     0.06966   0.36976   0.72108   0.00000  Uiso   1.00
H1026  H     0.01613   0.38233   0.70762   0.00000  Uiso   1.00
H1027  H     0.02852   0.63520   0.79991   0.00000  Uiso   1.00
H1028  H     0.28561   0.48132   0.85911   0.00000  Uiso   1.00
H1029  H     0.30157   0.47771   0.91980   0.00000  Uiso   1.00
H1030  H     0.00843   0.49917   0.86166   0.00000  Uiso   1.00
H1031  H     0.23208   0.37138   0.68422   0.00000  Uiso   1.00
H1032  H     0.13844   0.39483   0.62697   0.00000  Uiso   1.00
H1033  H     0.18849   0.61657   0.91844   0.00000  Uiso   1.00
H1034  H     0.14314   0.59564   0.89248   0.00000  Uiso   1.00
H1035  H     0.19293   0.62317   0.84989   0.00000  Uiso   1.00
H1036  H     0.31051   0.60423   0.65775   0.00000  Uiso   1.00
H1037  H     0.28370   0.62684   0.72333   0.00000  Uiso   1.00
H1038  H     0.29892   0.65971   0.66429   0.00000  Uiso   1.00
H1039  H     0.10274   0.62943   0.81708   0.00000  Uiso   1.00
H1040  H     0.30143   0.43959   0.71494   0.00000  Uiso   1.00
H1041  H     0.28082   0.56176   0.78077   0.00000  Uiso   1.00
H1042  H     0.29702   0.54161   0.99015   0.00000  Uiso   1.00
H1043  H     0.05227   0.48980   0.92107   0.00000  Uiso   1.00
H1044  H     0.08866   0.49294   0.56382   0.00000  Uiso   1.00
H1045  H     0.02912   0.48585   0.51878   0.00000  Uiso   1.00
N1046  N     0.04760   0.50001   0.75002   0.00000  Uiso   1.00
N1047  N     0.28573   0.49998   0.75001   0.00000  Uiso   1.00
O1048  O     0.12846   0.56108   0.75001   0.00000  Uiso   1.00
O1049  O     0.06050   0.43228   0.70838   0.00000  Uiso   1.00
O1050  O     0.04800   0.56791   0.82875   0.00000  Uiso   1.00
O1051  O     0.02078   0.61188   0.77771   0.00000  Uiso   1.00
O1052  O     0.28446   0.53852   0.89964   0.00000  Uiso   1.00
O1053  O     0.14273   0.42401   0.54289   0.00000  Uiso   1.00
O1054  O     0.15338   0.42353   0.62378   0.00000  Uiso   1.00
O1055  O     0.20826   0.56334   0.86780   0.00000  Uiso   1.00
O1056  O     0.24038   0.62150   0.67455   0.00000  Uiso   1.00
O1057  O     0.20490   0.56107   0.75001   0.00000  Uiso   1.00
O1058  O     0.10947   0.50000   0.82681   0.00000  Uiso   1.00
O1059  O     0.18591   0.49999   0.82681   0.00000  Uiso   1.00
O1060  O     0.12843   0.43893   0.75000   0.00000  Uiso   1.00
O1061  O     0.20488   0.43892   0.75000   0.00000  Uiso   1.00
O1062  O     0.14742   0.50001   0.67319   0.00000  Uiso   1.00
O1063  O     0.22387   0.50000   0.67319   0.00000  Uiso   1.00
O1064  O     0.09421   0.37770   0.82694   0.00000  Uiso   1.00
Zn1065 Zn    0.11562   0.50001   0.75000   0.00000  Uiso   1.00
Zn1066 Zn    0.21771   0.49999   0.75000   0.00000  Uiso   1.00
C1067  C     0.50002   0.57988   0.74948   0.00000  Uiso   1.00
C1068  C     0.45790   0.50807   0.91060   0.00000  Uiso   1.00
C1069  C     0.53868   0.64443   0.71306   0.00000  Uiso   1.00
C1070  C     0.47386   0.50291   0.85190   0.00000  Uiso   1.00
C1071  C     0.53791   0.35452   0.71367   0.00000  Uiso   1.00
C1072  C     0.50059   0.37613   0.75129   0.00000  Uiso   1.00
C1073  C     0.46403   0.35565   0.78951   0.00000  Uiso   1.00
C1074  C     0.46375   0.64584   0.78756   0.00000  Uiso   1.00
C1075  C     0.50031   0.62409   0.74910   0.00000  Uiso   1.00
C1076  C     0.64842   0.46602   0.73116   0.00000  Uiso   1.00
C1077  C     0.36319   0.46556   0.73128   0.00000  Uiso   1.00
C1078  C     0.48046   0.50569   0.99106   0.00000  Uiso   1.00
C1079  C     0.35097   0.53461   0.76764   0.00000  Uiso   1.00
C1080  C     0.63707   0.53450   0.76653   0.00000  Uiso   1.00
C1081  C     0.50017   0.42019   0.75026   0.00000  Uiso   1.00
C1082  C     0.52624   0.49851   0.64847   0.00000  Uiso   1.00
C1083  C     0.59669   0.52719   0.51055   0.00000  Uiso   1.00
C1084  C     0.54298   0.49868   0.59068   0.00000  Uiso   1.00
C1085  C     0.41149   0.49700   0.94049   0.00000  Uiso   1.00
C1086  C     0.39855   0.49356   0.99578   0.00000  Uiso   1.00
C1087  C     0.43287   0.49713   0.52098   0.00000  Uiso   1.00
C1088  C     0.44005   0.38350   0.87367   0.00000  Uiso   1.00
C1089  C     0.49064   0.51832   0.93756   0.00000  Uiso   1.00
C1090  C     0.37388   0.39356   0.72882   0.00000  Uiso   1.00
C1091  C     0.36454   0.57187   0.79253   0.00000  Uiso   1.00
C1092  C     0.63696   0.49742   0.88472   0.00000  Uiso   1.00
C1093  C     0.48957   0.44301   0.57576   0.00000  Uiso   1.00
C1094  C     0.51507   0.60109   0.88354   0.00000  Uiso   1.00
C1095  C     0.61835   0.62885   0.68078   0.00000  Uiso   1.00
C1096  C     0.51767   0.50432   0.51359   0.00000  Uiso   1.00
C1097  C     0.56214   0.52181   0.98550   0.00000  Uiso   1.00
C1098  C     0.57157   0.53415   0.93281   0.00000  Uiso   1.00
C1099  C     0.53435   0.53855   0.91220   0.00000  Uiso   1.00
C1100  C     0.51344   0.48457   0.56223   0.00000  Uiso   1.00
C1101  C     0.58572   0.51832   0.56418   0.00000  Uiso   1.00
H1102  H     0.60997   0.52774   0.58510   0.00000  Uiso   1.00
H1103  H     0.44421   0.35288   0.89162   0.00000  Uiso   1.00
H1104  H     0.41105   0.40155   0.90358   0.00000  Uiso   1.00
H1105  H     0.47305   0.40203   0.86562   0.00000  Uiso   1.00
H1106  H     0.35556   0.39515   0.77292   0.00000  Uiso   1.00
H1107  H     0.40299   0.36976   0.72108   0.00000  Uiso   1.00
H1108  H     0.34946   0.38233   0.70762   0.00000  Uiso   1.00
H1109  H     0.36185   0.63520   0.79991   0.00000  Uiso   1.00
H1110  H     0.61894   0.48132   0.85911   0.00000  Uiso   1.00
H1111  H     0.63491   0.47771   0.91980   0.00000  Uiso   1.00
H1112  H     0.34177   0.49917   0.86166   0.00000  Uiso   1.00
H1113  H     0.56541   0.37138   0.68422   0.00000  Uiso   1.00
H1114  H     0.47178   0.39483   0.62697   0.00000  Uiso   1.00
H1115  H     0.52182   0.61657   0.91844   0.00000  Uiso   1.00
H1116  H     0.47648   0.59564   0.89248   0.00000  Uiso   1.00
H1117  H     0.52626   0.62317   0.84989   0.00000  Uiso   1.00
H1118  H     0.64384   0.60423   0.65775   0.00000  Uiso   1.00
H1119  H     0.61703   0.62684   0.72333   0.00000  Uiso   1.00
H1120  H     0.63225   0.65971   0.66429   0.00000  Uiso   1.00
H1121  H     0.43608   0.62943   0.81708   0.00000  Uiso   1.00
H1122  H     0.63476   0.43959   0.71494   0.00000  Uiso   1.00
H1123  H     0.61415   0.56176   0.78077   0.00000  Uiso   1.00
H1124  H     0.63035   0.54161   0.99015   0.00000  Uiso   1.00
H1125  H     0.38561   0.48980   0.92107   0.00000  Uiso   1.00
H1126  H     0.42200   0.49294   0.56382   0.00000  Uiso   1.00
H1127  H     0.36245   0.48585   0.51878   0.00000  Uiso   1.00
N1128  N     0.38093   0.50001   0.75002   0.00000  Uiso   1.00
N1129  N     0.61906   0.49998   0.75001   0.00000  Uiso   1.00
O1130  O     0.46179   0.56108   0.75001   0.00000  Uiso   1.00
O1131  O     0.39383   0.43228   0.70838   0.00000  Uiso   1.00
O1132  O     0.38133   0.56791   0.82875   0.00000  Uiso   1.00
O1133  O     0.35412   0.61188   0.77771   0.00000  Uiso   1.00
O1134  O     0.61779   0.53852   0.89964   0.00000  Uiso   1.00
O1135  O     0.47606   0.42401   0.54289   0.00000  Uiso   1.00
O1136  O     0.48672   0.42353   0.62378   0.00000  Uiso   1.00
O1137  O     0.54159   0.56334   0.86780   0.00000  Uiso   1.00
O1138  O     0.57371   0.62150   0.67455   0.00000  Uiso   1.00
O1139  O     0.53823   0.56107   0.75001   0.00000  Uiso   1.00
O1140  O     0.44280   0.50000   0.82681   0.00000  Uiso   1.00
O1141  O     0.51924   0.49999   0.82681   0.00000  Uiso   1.00
O1142  O     0.46177   0.43893   0.75000   0.00000  Uiso   1.00
O1143  O     0.53821   0.43892   0.75000   0.00000  Uiso   1.00
O1144  O     0.48076   0.50001   0.67319   0.00000  Uiso   1.00
O1145  O     0.55720   0.50000   0.67319   0.00000  Uiso   1.00
O1146  O     0.42754   0.37770   0.82694   0.00000  Uiso   1.00
Zn1147 Zn    0.44896   0.50001   0.75000   0.00000  Uiso   1.00
Zn1148 Zn    0.55104   0.49999   0.75000   0.00000  Uiso   1.00
C1149  C     0.83336   0.57988   0.74948   0.00000  Uiso   1.00
C1150  C     0.79123   0.50807   0.91060   0.00000  Uiso   1.00
C1151  C     0.87201   0.64443   0.71306   0.00000  Uiso   1.00
C1152  C     0.80719   0.50291   0.85190   0.00000  Uiso   1.00
C1153  C     0.87125   0.35452   0.71367   0.00000  Uiso   1.00
C1154  C     0.83393   0.37613   0.75129   0.00000  Uiso   1.00
C1155  C     0.79737   0.35565   0.78951   0.00000  Uiso   1.00
C1156  C     0.79708   0.64584   0.78756   0.00000  Uiso   1.00
C1157  C     0.83365   0.62409   0.74910   0.00000  Uiso   1.00
C1158  C     0.98175   0.46602   0.73116   0.00000  Uiso   1.00
C1159  C     0.69652   0.46556   0.73128   0.00000  Uiso   1.00
C1160  C     0.81379   0.50569   0.99106   0.00000  Uiso   1.00
C1161  C     0.68431   0.53461   0.76764   0.00000  Uiso   1.00
C1162  C     0.97040   0.53450   0.76653   0.00000  Uiso   1.00
C1163  C     0.83351   0.42019   0.75026   0.00000  Uiso   1.00
C1164  C     0.85958   0.49851   0.64847   0.00000  Uiso   1.00
C1165  C     0.93002   0.52719   0.51055   0.00000  Uiso   1.00
C1166  C     0.87632   0.49868   0.59068   0.00000  Uiso   1.00
C1167  C     0.74482   0.49700   0.94049   0.00000  Uiso   1.00
C1168  C     0.73188   0.49356   0.99578   0.00000  Uiso   1.00
C1169  C     0.76620   0.49713   0.52098   0.00000  Uiso   1.00
C1170  C     0.77339   0.38350   0.87367   0.00000  Uiso   1.00
C1171  C     0.82398   0.51832   0.93756   0.00000  Uiso   1.00
C1172  C     0.70721   0.39356   0.72882   0.00000  Uiso   1.00
C1173  C     0.69787   0.57187   0.79253   0.00000  Uiso   1.00
C1174  C     0.97029   0.49742   0.88472   0.00000  Uiso   1.00
C1175  C     0.82290   0.44301   0.57576   0.00000  Uiso   1.00
C1176  C     0.84840   0.60109   0.88354   0.00000  Uiso   1.00
C1177  C     0.95168   0.62885   0.68078   0.00000  Uiso   1.00
C1178  C     0.85100   0.50432   0.51359   0.00000  Uiso   1.00
C1179  C     0.89547   0.52181   0.98550   0.00000  Uiso   1.00
C1180  C     0.90490   0.53415   0.93281   0.00000  Uiso   1.00
C1181  C     0.86768   0.53855   0.91220   0.00000  Uiso   1.00
C1182  C     0.84677   0.48457   0.56223   0.00000  Uiso   1.00
C1183  C     0.91905   0.51832   0.56418   0.00000  Uiso   1.00
H1184  H     0.94330   0.52774   0.58510   0.00000  Uiso   1.00
H1185  H     0.77754   0.35288   0.89162   0.00000  Uiso   1.00
H1186  H     0.74438   0.40155   0.90358   0.00000  Uiso   1.00
H1187  H     0.80639   0.40203   0.86562   0.00000  Uiso   1.00
H1188  H     0.68890   0.39515   0.77292   0.00000  Uiso   1.00
H1189  H     0.73633   0.36976   0.72108   0.00000  Uiso   1.00
H1190  H     0.68280   0.38233   0.70762   0.00000  Uiso   1.00
H1191  H     0.69519   0.63520   0.79991   0.00000  Uiso   1.00
H1192  H     0.95228   0.48132   0.85911   0.00000  Uiso   1.00
H1193  H     0.96824   0.47771   0.91980   0.00000  Uiso   1.00
H1194  H     0.67510   0.49917   0.86166   0.00000  Uiso   1.00
H1195  H     0.89875   0.37138   0.68422   0.00000  Uiso   1.00
H1196  H     0.80511   0.39483   0.62697   0.00000  Uiso   1.00
H1197  H     0.85515   0.61657   0.91844   0.00000  Uiso   1.00
H1198  H     0.80981   0.59564   0.89248   0.00000  Uiso   1.00
H1199  H     0.85960   0.62317   0.84989   0.00000  Uiso   1.00
H1200  H     0.97718   0.60423   0.65775   0.00000  Uiso   1.00
H1201  H     0.95037   0.62684   0.72333   0.00000  Uiso   1.00
H1202  H     0.96559   0.65971   0.66429   0.00000  Uiso   1.00
H1203  H     0.76941   0.62943   0.81708   0.00000  Uiso   1.00
H1204  H     0.96810   0.43959   0.71494   0.00000  Uiso   1.00
H1205  H     0.94748   0.56176   0.78077   0.00000  Uiso   1.00
H1206  H     0.96368   0.54161   0.99015   0.00000  Uiso   1.00
H1207  H     0.71894   0.48980   0.92107   0.00000  Uiso   1.00
H1208  H     0.75533   0.49294   0.56382   0.00000  Uiso   1.00
H1209  H     0.69578   0.48585   0.51878   0.00000  Uiso   1.00
N1210  N     0.71426   0.50001   0.75002   0.00000  Uiso   1.00
N1211  N     0.95239   0.49998   0.75001   0.00000  Uiso   1.00
O1212  O     0.79512   0.56108   0.75001   0.00000  Uiso   1.00
O1213  O     0.72717   0.43228   0.70838   0.00000  Uiso   1.00
O1214  O     0.71467   0.56791   0.82875   0.00000  Uiso   1.00
O1215  O     0.68745   0.61188   0.77771   0.00000  Uiso   1.00
O1216  O     0.95112   0.53852   0.89964   0.00000  Uiso   1.00
O1217  O     0.80940   0.42401   0.54289   0.00000  Uiso   1.00
O1218  O     0.82005   0.42353   0.62378   0.00000  Uiso   1.00
O1219  O     0.87493   0.56334   0.86780   0.00000  Uiso   1.00
O1220  O     0.90705   0.62150   0.67455   0.00000  Uiso   1.00
O1221  O     0.87157   0.56107   0.75001   0.00000  Uiso   1.00
O1222  O     0.77613   0.50000   0.82681   0.00000  Uiso   1.00
O1223  O     0.85258   0.49999   0.82681   0.00000  Uiso   1.00
O1224  O     0.79510   0.43893   0.75000   0.00000  Uiso   1.00
O1225  O     0.87154   0.43892   0.75000   0.00000  Uiso   1.00
O1226  O     0.81409   0.50001   0.67319   0.00000  Uiso   1.00
O1227  O     0.89053   0.50000   0.67319   0.00000  Uiso   1.00
O1228  O     0.76087   0.37770   0.82694   0.00000  Uiso   1.00
Zn1229 Zn    0.78229   0.50001   0.75000   0.00000  Uiso   1.00
Zn1230 Zn    0.88438   0.49999   0.75000   0.00000  Uiso   1.00
C1231  C     0.16669   0.91322   0.74948   0.00000  Uiso   1.00
C1232  C     0.12456   0.84140   0.91060   0.00000  Uiso   1.00
C1233  C     0.20535   0.97777   0.71306   0.00000  Uiso   1.00
C1234  C     0.14053   0.83625   0.85190   0.00000  Uiso   1.00
C1235  C     0.20458   0.68785   0.71367   0.00000  Uiso   1.00
C1236  C     0.16726   0.70946   0.75129   0.00000  Uiso   1.00
C1237  C     0.13070   0.68898   0.78951   0.00000  Uiso   1.00
C1238  C     0.13041   0.97917   0.78756   0.00000  Uiso   1.00
C1239  C     0.16698   0.95743   0.74910   0.00000  Uiso   1.00
C1240  C     0.31508   0.79935   0.73116   0.00000  Uiso   1.00
C1241  C     0.02986   0.79890   0.73128   0.00000  Uiso   1.00
C1242  C     0.14713   0.83903   0.99106   0.00000  Uiso   1.00
C1243  C     0.01764   0.86795   0.76764   0.00000  Uiso   1.00
C1244  C     0.30374   0.86783   0.76653   0.00000  Uiso   1.00
C1245  C     0.16684   0.75352   0.75026   0.00000  Uiso   1.00
C1246  C     0.19291   0.83185   0.64847   0.00000  Uiso   1.00
C1247  C     0.26335   0.86052   0.51055   0.00000  Uiso   1.00
C1248  C     0.20965   0.83202   0.59068   0.00000  Uiso   1.00
C1249  C     0.07816   0.83033   0.94049   0.00000  Uiso   1.00
C1250  C     0.06522   0.82689   0.99578   0.00000  Uiso   1.00
C1251  C     0.09953   0.83046   0.52098   0.00000  Uiso   1.00
C1252  C     0.10672   0.71684   0.87367   0.00000  Uiso   1.00
C1253  C     0.15731   0.85165   0.93756   0.00000  Uiso   1.00
C1254  C     0.04054   0.72689   0.72882   0.00000  Uiso   1.00
C1255  C     0.03120   0.90520   0.79253   0.00000  Uiso   1.00
C1256  C     0.30363   0.83076   0.88472   0.00000  Uiso   1.00
C1257  C     0.15624   0.77634   0.57576   0.00000  Uiso   1.00
C1258  C     0.18174   0.93442   0.88354   0.00000  Uiso   1.00
C1259  C     0.28502   0.96218   0.68078   0.00000  Uiso   1.00
C1260  C     0.18433   0.83765   0.51359   0.00000  Uiso   1.00
C1261  C     0.22880   0.85515   0.98550   0.00000  Uiso   1.00
C1262  C     0.23824   0.86749   0.93281   0.00000  Uiso   1.00
C1263  C     0.20102   0.87188   0.91220   0.00000  Uiso   1.00
C1264  C     0.18011   0.81790   0.56223   0.00000  Uiso   1.00
C1265  C     0.25238   0.85166   0.56418   0.00000  Uiso   1.00
H1266  H     0.27663   0.86107   0.58510   0.00000  Uiso   1.00
H1267  H     0.11088   0.68622   0.89162   0.00000  Uiso   1.00
H1268  H     0.07772   0.73489   0.90358   0.00000  Uiso   1.00
H1269  H     0.13972   0.73536   0.86562   0.00000  Uiso   1.00
H1270  H     0.02223   0.72849   0.77292   0.00000  Uiso   1.00
H1271  H     0.06966   0.70310   0.72108   0.00000  Uiso   1.00
H1272  H     0.01613   0.71566   0.70762   0.00000  Uiso   1.00
H1273  H     0.02852   0.96853   0.79991   0.00000  Uiso   1.00
H1274  H     0.28561   0.81465   0.85911   0.00000  Uiso   1.00
H1275  H     0.30157   0.81104   0.91980   0.00000  Uiso   1.00
H1276  H     0.00843   0.83251   0.86166   0.00000  Uiso   1.00
H1277  H     0.23208   0.70472   0.68422   0.00000  Uiso   1.00
H1278  H     0.13844   0.72817   0.62697   0.00000  Uiso   1.00
H1279  H     0.18849   0.94990   0.91844   0.00000  Uiso   1.00
H1280  H     0.14314   0.92897   0.89248   0.00000  Uiso   1.00
H1281  H     0.19293   0.95650   0.84989   0.00000  Uiso   1.00
H1282  H     0.31051   0.93757   0.65775   0.00000  Uiso   1.00
H1283  H     0.28370   0.96017   0.72333   0.00000  Uiso   1.00
H1284  H     0.29892   0.99304   0.66429   0.00000  Uiso   1.00
H1285  H     0.10274   0.96276   0.81708   0.00000  Uiso   1.00
H1286  H     0.30143   0.77292   0.71494   0.00000  Uiso   1.00
H1287  H     0.28082   0.89509   0.78077   0.00000  Uiso   1.00
H1288  H     0.29702   0.87494   0.99015   0.00000  Uiso   1.00
H1289  H     0.05227   0.82313   0.92107   0.00000  Uiso   1.00
H1290  H     0.08866   0.82627   0.56382   0.00000  Uiso   1.00
H1291  H     0.02912   0.81919   0.51878   0.00000  Uiso   1.00
N1292  N     0.04760   0.83334   0.75002   0.00000  Uiso   1.00
N1293  N     0.28573   0.83331   0.75001   0.00000  Uiso   1.00
O1294  O     0.12846   0.89442   0.75001   0.00000  Uiso   1.00
O1295  O     0.06050   0.76561   0.70838   0.00000  Uiso   1.00
O1296  O     0.04800   0.90124   0.82875   0.00000  Uiso   1.00
O1297  O     0.02078   0.94521   0.77771   0.00000  Uiso   1.00
O1298  O     0.28446   0.87185   0.89964   0.00000  Uiso   1.00
O1299  O     0.14273   0.75735   0.54289   0.00000  Uiso   1.00
O1300  O     0.15338   0.75686   0.62378   0.00000  Uiso   1.00
O1301  O     0.20826   0.89667   0.86780   0.00000  Uiso   1.00
O1302  O     0.24038   0.95484   0.67455   0.00000  Uiso   1.00
O1303  O     0.20490   0.89441   0.75001   0.00000  Uiso   1.00
O1304  O     0.10947   0.83333   0.82681   0.00000  Uiso   1.00
O1305  O     0.18591   0.83332   0.82681   0.00000  Uiso   1.00
O1306  O     0.12843   0.77226   0.75000   0.00000  Uiso   1.00
O1307  O     0.20488   0.77225   0.75000   0.00000  Uiso   1.00
O1308  O     0.14742   0.83335   0.67319   0.00000  Uiso   1.00
O1309  O     0.22387   0.83334   0.67319   0.00000  Uiso   1.00
O1310  O     0.09421   0.71103   0.82694   0.00000  Uiso   1.00
Zn1311 Zn    0.11562   0.83334   0.75000   0.00000  Uiso   1.00
Zn1312 Zn    0.21771   0.83333   0.75000   0.00000  Uiso   1.00
C1313  C     0.50002   0.91322   0.74948   0.00000  Uiso   1.00
C1314  C     0.45790   0.84140   0.91060   0.00000  Uiso   1.00
C1315  C     0.53868   0.97777   0.71306   0.00000  Uiso   1.00
C1316  C     0.47386   0.83625   0.85190   0.00000  Uiso   1.00
C1317  C     0.53791   0.68785   0.71367   0.00000  Uiso   1.00
C1318  C     0.50059   0.70946   0.75129   0.00000  Uiso   1.00
C1319  C     0.46403   0.68898   0.78951   0.00000  Uiso   1.00
C1320  C     0.46375   0.97917   0.78756   0.00000  Uiso   1.00
C1321  C     0.50031   0.95743   0.74910   0.00000  Uiso   1.00
C1322  C     0.64842   0.79935   0.73116   0.00000  Uiso   1.00
C1323  C     0.36319   0.79890   0.73128   0.00000  Uiso   1.00
C1324  C     0.48046   0.83903   0.99106   0.00000  Uiso   1.00
C1325  C     0.35097   0.86795   0.76764   0.00000  Uiso   1.00
C1326  C     0.63707   0.86783   0.76653   0.00000  Uiso   1.00
C1327  C     0.50017   0.75352   0.75026   0.00000  Uiso   1.00
C1328  C     0.52624   0.83185   0.64847   0.00000  Uiso   1.00
C1329  C     0.59669   0.86052   0.51055   0.00000  Uiso   1.00
C1330  C     0.54298   0.83202   0.59068   0.00000  Uiso   1.00
C1331  C     0.41149   0.83033   0.94049   0.00000  Uiso   1.00
C1332  C     0.39855   0.82689   0.99578   0.00000  Uiso   1.00
C1333  C     0.43287   0.83046   0.52098   0.00000  Uiso   1.00
C1334  C     0.44005   0.71684   0.87367   0.00000  Uiso   1.00
C1335  C     0.49064   0.85165   0.93756   0.00000  Uiso   1.00
C1336  C     0.37388   0.72689   0.72882   0.00000  Uiso   1.00
C1337  C     0.36454   0.90520   0.79253   0.00000  Uiso   1.00
C1338  C     0.63696   0.83076   0.88472   0.00000  Uiso   1.00
C1339  C     0.48957   0.77634   0.57576   0.00000  Uiso   1.00
C1340  C     0.51507   0.93442   0.88354   0.00000  Uiso   1.00
C1341  C     0.61835   0.96218   0.68078   0.00000  Uiso   1.00
C1342  C     0.51767   0.83765   0.51359   0.00000  Uiso   1.00
C1343  C     0.56214   0.85515   0.98550   0.00000  Uiso   1.00
C1344  C     0.57157   0.86749   0.93281   0.00000  Uiso   1.00
C1345  C     0.53435   0.87188   0.91220   0.00000  Uiso   1.00
C1346  C     0.51344   0.81790   0.56223   0.00000  Uiso   1.00
C1347  C     0.58572   0.85166   0.56418   0.00000  Uiso   1.00
H1348  H     0.60997   0.86107   0.58510   0.00000  Uiso   1.00
H1349  H     0.44421   0.68622   0.89162   0.00000  Uiso   1.00
H1350  H     0.41105   0.73489   0.90358   0.00000  Uiso   1.00
H1351  H     0.47305   0.73536   0.86562   0.00000  Uiso   1.00
H1352  H     0.35556   0.72849   0.77292   0.00000  Uiso   1.00
H1353  H     0.40299   0.70310   0.72108   0.00000  Uiso   1.00
H1354  H     0.34946   0.71566   0.70762   0.00000  Uiso   1.00
H1355  H     0.36185   0.96853   0.79991   0.00000  Uiso   1.00
H1356  H     0.61894   0.81465   0.85911   0.00000  Uiso   1.00
H1357  H     0.63491   0.81104   0.91980   0.00000  Uiso   1.00
H1358  H     0.34177   0.83251   0.86166   0.00000  Uiso   1.00
H1359  H     0.56541   0.70472   0.68422   0.00000  Uiso   1.00
H1360  H     0.47178   0.72817   0.62697   0.00000  Uiso   1.00
H1361  H     0.52182   0.94990   0.91844   0.00000  Uiso   1.00
H1362  H     0.47648   0.92897   0.89248   0.00000  Uiso   1.00
H1363  H     0.52626   0.95650   0.84989   0.00000  Uiso   1.00
H1364  H     0.64384   0.93757   0.65775   0.00000  Uiso   1.00
H1365  H     0.61703   0.96017   0.72333   0.00000  Uiso   1.00
H1366  H     0.63225   0.99304   0.66429   0.00000  Uiso   1.00
H1367  H     0.43608   0.96276   0.81708   0.00000  Uiso   1.00
H1368  H     0.63476   0.77292   0.71494   0.00000  Uiso   1.00
H1369  H     0.61415   0.89509   0.78077   0.00000  Uiso   1.00
H1370  H     0.63035   0.87494   0.99015   0.00000  Uiso   1.00
H1371  H     0.38561   0.82313   0.92107   0.00000  Uiso   1.00
H1372  H     0.42200   0.82627   0.56382   0.00000  Uiso   1.00
H1373  H     0.36245   0.81919   0.51878   0.00000  Uiso   1.00
N1374  N     0.38093   0.83334   0.75002   0.00000  Uiso   1.00
N1375  N     0.61906   0.83331   0.75001   0.00000  Uiso   1.00
O1376  O     0.46179   0.89442   0.75001   0.00000  Uiso   1.00
O1377  O     0.39383   0.76561   0.70838   0.00000  Uiso   1.00
O1378  O     0.38133   0.90124   0.82875   0.00000  Uiso   1.00
O1379  O     0.35412   0.94521   0.77771   0.00000  Uiso   1.00
O1380  O     0.61779   0.87185   0.89964   0.00000  Uiso   1.00
O1381  O     0.47606   0.75735   0.54289   0.00000  Uiso   1.00
O1382  O     0.48672   0.75686   0.62378   0.00000  Uiso   1.00
O1383  O     0.54159   0.89667   0.86780   0.00000  Uiso   1.00
O1384  O     0.57371   0.95484   0.67455   0.00000  Uiso   1.00
O1385  O     0.53823   0.89441   0.75001   0.00000  Uiso   1.00
O1386  O     0.44280   0.83333   0.82681   0.00000  Uiso   1.00
O1387  O     0.51924   0.83332   0.82681   0.00000  Uiso   1.00
O1388  O     0.46177   0.77226   0.75000   0.00000  Uiso   1.00
O1389  O     0.53821   0.77225   0.75000   0.00000  Uiso   1.00
O1390  O     0.48076   0.83335   0.67319   0.00000  Uiso   1.00
O1391  O     0.55720   0.83334   0.67319   0.00000  Uiso   1.00
O1392  O     0.42754   0.71103   0.82694   0.00000  Uiso   1.00
Zn1393 Zn    0.44896   0.83334   0.75000   0.00000  Uiso   1.00
Zn1394 Zn    0.55104   0.83333   0.75000   0.00000  Uiso   1.00
C1395  C     0.83336   0.91322   0.74948   0.00000  Uiso   1.00
C1396  C     0.79123   0.84140   0.91060   0.00000  Uiso   1.00
C1397  C     0.87201   0.97777   0.71306   0.00000  Uiso   1.00
C1398  C     0.80719   0.83625   0.85190   0.00000  Uiso   1.00
C1399  C     0.87125   0.68785   0.71367   0.00000  Uiso   1.00
C1400  C     0.83393   0.70946   0.75129   0.00000  Uiso   1.00
C1401  C     0.79737   0.68898   0.78951   0.00000  Uiso   1.00
C1402  C     0.79708   0.97917   0.78756   0.00000  Uiso   1.00
C1403  C     0.83365   0.95743   0.74910   0.00000  Uiso   1.00
C1404  C     0.98175   0.79935   0.73116   0.00000  Uiso   1.00
C1405  C     0.69652   0.79890   0.73128   0.00000  Uiso   1.00
C1406  C     0.81379   0.83903   0.99106   0.00000  Uiso   1.00
C1407  C     0.68431   0.86795   0.76764   0.00000  Uiso   1.00
C1408  C     0.97040   0.86783   0.76653   0.00000  Uiso   1.00
C1409  C     0.83351   0.75352   0.75026   0.00000  Uiso   1.00
C1410  C     0.85958   0.83185   0.64847   0.00000  Uiso   1.00
C1411  C     0.93002   0.86052   0.51055   0.00000  Uiso   1.00
C1412  C     0.87632   0.83202   0.59068   0.00000  Uiso   1.00
C1413  C     0.74482   0.83033   0.94049   0.00000  Uiso   1.00
C1414  C     0.73188   0.82689   0.99578   0.00000  Uiso   1.00
C1415  C     0.76620   0.83046   0.52098   0.00000  Uiso   1.00
C1416  C     0.77339   0.71684   0.87367   0.00000  Uiso   1.00
C1417  C     0.82398   0.85165   0.93756   0.00000  Uiso   1.00
C1418  C     0.70721   0.72689   0.72882   0.00000  Uiso   1.00
C1419  C     0.69787   0.90520   0.79253   0.00000  Uiso   1.00
C1420  C     0.97029   0.83076   0.88472   0.00000  Uiso   1.00
C1421  C     0.82290   0.77634   0.57576   0.00000  Uiso   1.00
C1422  C     0.84840   0.93442   0.88354   0.00000  Uiso   1.00
C1423  C     0.95168   0.96218   0.68078   0.00000  Uiso   1.00
C1424  C     0.85100   0.83765   0.51359   0.00000  Uiso   1.00
C1425  C     0.89547   0.85515   0.98550   0.00000  Uiso   1.00
C1426  C     0.90490   0.86749   0.93281   0.00000  Uiso   1.00
C1427  C     0.86768   0.87188   0.91220   0.00000  Uiso   1.00
C1428  C     0.84677   0.81790   0.56223   0.00000  Uiso   1.00
C1429  C     0.91905   0.85166   0.56418   0.00000  Uiso   1.00
H1430  H     0.94330   0.86107   0.58510   0.00000  Uiso   1.00
H1431  H     0.77754   0.68622   0.89162   0.00000  Uiso   1.00
H1432  H     0.74438   0.73489   0.90358   0.00000  Uiso   1.00
H1433  H     0.80639   0.73536   0.86562   0.00000  Uiso   1.00
H1434  H     0.68890   0.72849   0.77292   0.00000  Uiso   1.00
H1435  H     0.73633   0.70310   0.72108   0.00000  Uiso   1.00
H1436  H     0.68280   0.71566   0.70762   0.00000  Uiso   1.00
H1437  H     0.69519   0.96853   0.79991   0.00000  Uiso   1.00
H1438  H     0.95228   0.81465   0.85911   0.00000  Uiso   1.00
H1439  H     0.96824   0.81104   0.91980   0.00000  Uiso   1.00
H1440  H     0.67510   0.83251   0.86166   0.00000  Uiso   1.00
H1441  H     0.89875   0.70472   0.68422   0.00000  Uiso   1.00
H1442  H     0.80511   0.72817   0.62697   0.00000  Uiso   1.00
H1443  H     0.85515   0.94990   0.91844   0.00000  Uiso   1.00
H1444  H     0.80981   0.92897   0.89248   0.00000  Uiso   1.00
H1445  H     0.85960   0.95650   0.84989   0.00000  Uiso   1.00
H1446  H     0.97718   0.93757   0.65775   0.00000  Uiso   1.00
H1447  H     0.95037   0.96017   0.72333   0.00000  Uiso   1.00
H1448  H     0.96559   0.99304   0.66429   0.00000  Uiso   1.00
H1449  H     0.76941   0.96276   0.81708   0.00000  Uiso   1.00
H1450  H     0.96810   0.77292   0.71494   0.00000  Uiso   1.00
H1451  H     0.94748   0.89509   0.78077   0.00000  Uiso   1.00
H1452  H     0.96368   0.87494   0.99015   0.00000  Uiso   1.00
H1453  H     0.71894   0.82313   0.92107   0.00000  Uiso   1.00
H1454  H     0.75533   0.82627   0.56382   0.00000  Uiso   1.00
H1455  H     0.69578   0.81919   0.51878   0.00000  Uiso   1.00
N1456  N     0.71426   0.83334   0.75002   0.00000  Uiso   1.00
N1457  N     0.95239   0.83331   0.75001   0.00000  Uiso   1.00
O1458  O     0.79512   0.89442   0.75001   0.00000  Uiso   1.00
O1459  O     0.72717   0.76561   0.70838   0.00000  Uiso   1.00
O1460  O     0.71467   0.90124   0.82875   0.00000  Uiso   1.00
O1461  O     0.68745   0.94521   0.77771   0.00000  Uiso   1.00
O1462  O     0.95112   0.87185   0.89964   0.00000  Uiso   1.00
O1463  O     0.80940   0.75735   0.54289   0.00000  Uiso   1.00
O1464  O     0.82005   0.75686   0.62378   0.00000  Uiso   1.00
O1465  O     0.87493   0.89667   0.86780   0.00000  Uiso   1.00
O1466  O     0.90705   0.95484   0.67455   0.00000  Uiso   1.00
O1467  O     0.87157   0.89441   0.75001   0.00000  Uiso   1.00
O1468  O     0.77613   0.83333   0.82681   0.00000  Uiso   1.00
O1469  O     0.85258   0.83332   0.82681   0.00000  Uiso   1.00
O1470  O     0.79510   0.77226   0.75000   0.00000  Uiso   1.00
O1471  O     0.87154   0.77225   0.75000   0.00000  Uiso   1.00
O1472  O     0.81409   0.83335   0.67319   0.00000  Uiso   1.00
O1473  O     0.89053   0.83334   0.67319   0.00000  Uiso   1.00
O1474  O     0.76087   0.71103   0.82694   0.00000  Uiso   1.00
Zn1475 Zn    0.78229   0.83334   0.75000   0.00000  Uiso   1.00
Zn1476 Zn    0.88438   0.83333   0.75000   0.00000  Uiso   1.00
loop_
_geom_bond_atom_site_label_1
_geom_bond_atom_site_label_2
_geom_bond_distance
_geom_bond_site_symmetry_2
_ccdc_geom_bond_type
C1     C9      1.408   .     S
C1     O64     1.288   .     A
C1     O73     1.282   .     A
C2     C4      1.473   .     S
C2     C19     1.403   .     A
C2     C23     1.419   .     A
C3     C9      1.401   .     A
C3     O72     1.387   .     S
C3     C251    1.382   .     S
C4     O75     1.299   .     A
C4     O74     1.303   .     A
C5     H47     1.084   .     S
C5     C6      1.392   .     A
C5     C495    1.382   1_545 S
C6     C15     1.404   .     S
C6     C7      1.398   .     A
C7     O80     1.383   .     S
C7     C500    1.374   1_545 S
C8     C9      1.392   .     A
C8     H55     1.080   .     S
C8     C253    1.374   .     S
C10    N63     1.363   .     A
C10    H56     1.080   .     S
C10    C93     1.432   .     S
C11    N62     1.376   .     A
C11    O65     1.385   .     S
C11    C174    1.432   1_455 S
C12    C23     1.412   .     A
C12    C759    1.413   .     S
C12    C768    1.417   .     S
C13    N62     1.384   .     A
C13    C25     1.470   .     S
C13    C178    1.415   1_455 S
C14    N63     1.356   .     A
C14    H57     1.081   .     S
C14    C95     1.415   .     S
C15    O76     1.284   .     A
C15    O77     1.284   .     A
C16    O79     1.291   .     A
C16    O78     1.298   .     A
C16    C18     1.444   .     S
C17    C35     1.381   .     A
C17    C769    1.401   1_554 S
C17    H796    1.084   1_554 S
C18    C35     1.398   .     A
C18    C34     1.402   .     A
C19    C20     1.391   .     A
C19    H59     1.079   .     S
C20    C759    1.392   .     S
C20    H799    1.083   .     S
C21    H60     1.082   .     S
C21    C758    1.392   1_554 S
C21    C750    1.413   1_554 S
C22    H38     1.109   .     S
C22    H37     1.114   .     S
C22    H39     1.114   .     S
C22    O80     1.410   .     S
C23    C33     1.423   .     A
C24    H42     1.110   .     S
C24    H41     1.109   .     S
C24    O65     1.413   .     S
C24    H40     1.115   .     S
C25    O67     1.399   .     S
C25    O66     1.221   .     D
C26    H44     1.113   .     S
C26    H45     1.113   .     S
C26    O68     1.419   .     S
C26    H128    1.103   .     S
C27    O69     1.223   .     D
C27    C34     1.503   .     S
C27    O70     1.399   .     S
C28    H51     1.109   .     S
C28    H50     1.111   .     S
C28    H49     1.114   .     S
C28    O71     1.410   .     S
C29    H54     1.111   .     S
C29    O72     1.412   .     S
C29    H53     1.115   .     S
C29    H52     1.109   .     S
C30    C34     1.409   .     A
C30    C750    1.417   1_554 S
C30    C769    1.417   1_554 S
C31    C32     1.392   .     A
C31    C755    1.401   .     S
C31    C768    1.417   .     S
C32    O68     1.381   .     S
C32    C33     1.389   .     A
C33    O71     1.384   .     S
C35    H36     1.084   .     S
H43    O67     1.013   .     S
H46    C190    1.103   1_455 S
H48    O70     1.014   .     S
H58    C755    1.084   .     S
H61    C758    1.083   1_554 S
N62    Zn81    2.024   .     S
N63    Zn82    2.024   .     S
O64    Zn81    1.987   .     S
O73    Zn82    1.977   .     S
O74    Zn81    1.977   .     S
O75    Zn82    1.941   .     S
O76    Zn81    1.977   .     S
O77    Zn82    1.987   .     S
O78    Zn81    1.941   .     S
O79    Zn82    1.977   .     S
C83    C91     1.408   .     S
C83    O146    1.288   .     A
C83    O155    1.282   .     A
C84    C86     1.473   .     S
C84    C101    1.403   .     A
C84    C105    1.419   .     A
C85    C91     1.401   .     A
C85    O154    1.387   .     S
C85    C333    1.382   .     S
C86    O157    1.299   .     A
C86    O156    1.303   .     A
C87    H129    1.084   .     S
C87    C88     1.392   .     A
C87    C577    1.382   1_545 S
C88    C97     1.404   .     S
C88    C89     1.398   .     A
C89    O162    1.383   .     S
C89    C582    1.374   1_545 S
C90    C91     1.392   .     A
C90    H137    1.080   .     S
C90    C335    1.374   .     S
C92    N145    1.363   .     A
C92    H138    1.080   .     S
C92    C175    1.432   .     S
C93    N144    1.376   .     A
C93    O147    1.385   .     S
C94    C105    1.412   .     A
C94    C841    1.413   .     S
C94    C850    1.417   .     S
C95    N144    1.384   .     A
C95    C107    1.470   .     S
C96    N145    1.356   .     A
C96    H139    1.081   .     S
C96    C177    1.415   .     S
C97    O158    1.284   .     A
C97    O159    1.284   .     A
C98    O161    1.291   .     A
C98    O160    1.298   .     A
C98    C100    1.444   .     S
C99    C117    1.381   .     A
C99    C851    1.401   1_554 S
C99    H878    1.084   1_554 S
C100   C117    1.398   .     A
C100   C116    1.402   .     A
C101   C102    1.391   .     A
C101   H141    1.079   .     S
C102   C841    1.392   .     S
C102   H881    1.083   .     S
C103   H142    1.082   .     S
C103   C840    1.392   1_554 S
C103   C832    1.413   1_554 S
C104   H120    1.109   .     S
C104   H119    1.114   .     S
C104   H121    1.114   .     S
C104   O162    1.410   .     S
C105   C115    1.423   .     A
C106   H124    1.110   .     S
C106   H123    1.109   .     S
C106   O147    1.413   .     S
C106   H122    1.115   .     S
C107   O149    1.399   .     S
C107   O148    1.221   .     D
C108   H126    1.113   .     S
C108   H127    1.113   .     S
C108   O150    1.419   .     S
C108   H210    1.103   .     S
C109   O151    1.223   .     D
C109   C116    1.503   .     S
C109   O152    1.399   .     S
C110   H133    1.109   .     S
C110   H132    1.111   .     S
C110   H131    1.114   .     S
C110   O153    1.410   .     S
C111   H136    1.111   .     S
C111   O154    1.412   .     S
C111   H135    1.115   .     S
C111   H134    1.109   .     S
C112   C116    1.409   .     A
C112   C832    1.417   1_554 S
C112   C851    1.417   1_554 S
C113   C114    1.392   .     A
C113   C837    1.401   .     S
C113   C850    1.417   .     S
C114   O150    1.381   .     S
C114   C115    1.389   .     A
C115   O153    1.384   .     S
C117   H118    1.084   .     S
H125   O149    1.013   .     S
H130   O152    1.014   .     S
H140   C837    1.084   .     S
H143   C840    1.083   1_554 S
N144   Zn163   2.024   .     S
N145   Zn164   2.024   .     S
O146   Zn163   1.987   .     S
O155   Zn164   1.977   .     S
O156   Zn163   1.977   .     S
O157   Zn164   1.941   .     S
O158   Zn163   1.977   .     S
O159   Zn164   1.987   .     S
O160   Zn163   1.941   .     S
O161   Zn164   1.977   .     S
C165   C173    1.408   .     S
C165   O228    1.288   .     A
C165   O237    1.282   .     A
C166   C168    1.473   .     S
C166   C183    1.403   .     A
C166   C187    1.419   .     A
C167   C173    1.401   .     A
C167   O236    1.387   .     S
C167   C415    1.382   .     S
C168   O239    1.299   .     A
C168   O238    1.303   .     A
C169   H211    1.084   .     S
C169   C170    1.392   .     A
C169   C659    1.382   1_545 S
C170   C179    1.404   .     S
C170   C171    1.398   .     A
C171   O244    1.383   .     S
C171   C664    1.374   1_545 S
C172   C173    1.392   .     A
C172   H219    1.080   .     S
C172   C417    1.374   .     S
C174   N227    1.363   .     A
C174   H220    1.080   .     S
C174   C11     1.432   1_655 S
C175   N226    1.376   .     A
C175   O229    1.385   .     S
C176   C187    1.412   .     A
C176   C923    1.413   .     S
C176   C932    1.417   .     S
C177   N226    1.384   .     A
C177   C189    1.470   .     S
C178   N227    1.356   .     A
C178   H221    1.081   .     S
C178   C13     1.415   1_655 S
C179   O240    1.284   .     A
C179   O241    1.284   .     A
C180   O243    1.291   .     A
C180   O242    1.298   .     A
C180   C182    1.444   .     S
C181   C199    1.381   .     A
C181   C933    1.401   1_554 S
C181   H960    1.084   1_554 S
C182   C199    1.398   .     A
C182   C198    1.402   .     A
C183   C184    1.391   .     A
C183   H223    1.079   .     S
C184   C923    1.392   .     S
C184   H963    1.083   .     S
C185   H224    1.082   .     S
C185   C922    1.392   1_554 S
C185   C914    1.413   1_554 S
C186   H202    1.109   .     S
C186   H201    1.114   .     S
C186   H203    1.114   .     S
C186   O244    1.410   .     S
C187   C197    1.423   .     A
C188   H206    1.110   .     S
C188   H205    1.109   .     S
C188   O229    1.413   .     S
C188   H204    1.115   .     S
C189   O231    1.399   .     S
C189   O230    1.221   .     D
C190   H208    1.113   .     S
C190   H209    1.113   .     S
C190   O232    1.419   .     S
C190   H46     1.103   1_655 S
C191   O233    1.223   .     D
C191   C198    1.503   .     S
C191   O234    1.399   .     S
C192   H215    1.109   .     S
C192   H214    1.111   .     S
C192   H213    1.114   .     S
C192   O235    1.410   .     S
C193   H218    1.111   .     S
C193   O236    1.412   .     S
C193   H217    1.115   .     S
C193   H216    1.109   .     S
C194   C198    1.409   .     A
C194   C914    1.417   1_554 S
C194   C933    1.417   1_554 S
C195   C196    1.392   .     A
C195   C919    1.401   .     S
C195   C932    1.417   .     S
C196   O232    1.381   .     S
C196   C197    1.389   .     A
C197   O235    1.384   .     S
C199   H200    1.084   .     S
H207   O231    1.013   .     S
H212   O234    1.014   .     S
H222   C919    1.084   .     S
H225   C922    1.083   1_554 S
N226   Zn245   2.024   .     S
N227   Zn246   2.024   .     S
O228   Zn245   1.987   .     S
O237   Zn246   1.977   .     S
O238   Zn245   1.977   .     S
O239   Zn246   1.941   .     S
O240   Zn245   1.977   .     S
O241   Zn246   1.987   .     S
O242   Zn245   1.941   .     S
O243   Zn246   1.977   .     S
C247   C255    1.408   .     S
C247   O310    1.288   .     A
C247   O319    1.282   .     A
C248   C250    1.473   .     S
C248   C265    1.403   .     A
C248   C269    1.419   .     A
C249   C255    1.401   .     A
C249   O318    1.387   .     S
C249   C497    1.382   .     S
C250   O321    1.299   .     A
C250   O320    1.303   .     A
C251   H293    1.084   .     S
C251   C252    1.392   .     A
C252   C261    1.404   .     S
C252   C253    1.398   .     A
C253   O326    1.383   .     S
C254   C255    1.392   .     A
C254   H301    1.080   .     S
C254   C499    1.374   .     S
C256   N309    1.363   .     A
C256   H302    1.080   .     S
C256   C339    1.432   .     S
C257   N308    1.376   .     A
C257   O311    1.385   .     S
C257   C420    1.432   1_455 S
C258   C269    1.412   .     A
C258   C1005   1.413   .     S
C258   C1014   1.417   .     S
C259   N308    1.384   .     A
C259   C271    1.470   .     S
C259   C424    1.415   1_455 S
C260   N309    1.356   .     A
C260   H303    1.081   .     S
C260   C341    1.415   .     S
C261   O322    1.284   .     A
C261   O323    1.284   .     A
C262   O325    1.291   .     A
C262   O324    1.298   .     A
C262   C264    1.444   .     S
C263   C281    1.381   .     A
C263   C1015   1.401   1_554 S
C263   H1042   1.084   1_554 S
C264   C281    1.398   .     A
C264   C280    1.402   .     A
C265   C266    1.391   .     A
C265   H305    1.079   .     S
C266   C1005   1.392   .     S
C266   H1045   1.083   .     S
C267   H306    1.082   .     S
C267   C1004   1.392   1_554 S
C267   C996    1.413   1_554 S
C268   H284    1.109   .     S
C268   H283    1.114   .     S
C268   H285    1.114   .     S
C268   O326    1.410   .     S
C269   C279    1.423   .     A
C270   H288    1.110   .     S
C270   H287    1.109   .     S
C270   O311    1.413   .     S
C270   H286    1.115   .     S
C271   O313    1.399   .     S
C271   O312    1.221   .     D
C272   H290    1.113   .     S
C272   H291    1.113   .     S
C272   O314    1.419   .     S
C272   H374    1.103   .     S
C273   O315    1.223   .     D
C273   C280    1.503   .     S
C273   O316    1.399   .     S
C274   H297    1.109   .     S
C274   H296    1.111   .     S
C274   H295    1.114   .     S
C274   O317    1.410   .     S
C275   H300    1.111   .     S
C275   O318    1.412   .     S
C275   H299    1.115   .     S
C275   H298    1.109   .     S
C276   C280    1.409   .     A
C276   C996    1.417   1_554 S
C276   C1015   1.417   1_554 S
C277   C278    1.392   .     A
C277   C1001   1.401   .     S
C277   C1014   1.417   .     S
C278   O314    1.381   .     S
C278   C279    1.389   .     A
C279   O317    1.384   .     S
C281   H282    1.084   .     S
H289   O313    1.013   .     S
H292   C436    1.103   1_455 S
H294   O316    1.014   .     S
H304   C1001   1.084   .     S
H307   C1004   1.083   1_554 S
N308   Zn327   2.024   .     S
N309   Zn328   2.024   .     S
O310   Zn327   1.987   .     S
O319   Zn328   1.977   .     S
O320   Zn327   1.977   .     S
O321   Zn328   1.941   .     S
O322   Zn327   1.977   .     S
O323   Zn328   1.987   .     S
O324   Zn327   1.941   .     S
O325   Zn328   1.977   .     S
C329   C337    1.408   .     S
C329   O392    1.288   .     A
C329   O401    1.282   .     A
C330   C332    1.473   .     S
C330   C347    1.403   .     A
C330   C351    1.419   .     A
C331   C337    1.401   .     A
C331   O400    1.387   .     S
C331   C579    1.382   .     S
C332   O403    1.299   .     A
C332   O402    1.303   .     A
C333   H375    1.084   .     S
C333   C334    1.392   .     A
C334   C343    1.404   .     S
C334   C335    1.398   .     A
C335   O408    1.383   .     S
C336   C337    1.392   .     A
C336   H383    1.080   .     S
C336   C581    1.374   .     S
C338   N391    1.363   .     A
C338   H384    1.080   .     S
C338   C421    1.432   .     S
C339   N390    1.376   .     A
C339   O393    1.385   .     S
C340   C351    1.412   .     A
C340   C1087   1.413   .     S
C340   C1096   1.417   .     S
C341   N390    1.384   .     A
C341   C353    1.470   .     S
C342   N391    1.356   .     A
C342   H385    1.081   .     S
C342   C423    1.415   .     S
C343   O404    1.284   .     A
C343   O405    1.284   .     A
C344   O407    1.291   .     A
C344   O406    1.298   .     A
C344   C346    1.444   .     S
C345   C363    1.381   .     A
C345   C1097   1.401   1_554 S
C345   H1124   1.084   1_554 S
C346   C363    1.398   .     A
C346   C362    1.402   .     A
C347   C348    1.391   .     A
C347   H387    1.079   .     S
C348   C1087   1.392   .     S
C348   H1127   1.083   .     S
C349   H388    1.082   .     S
C349   C1086   1.392   1_554 S
C349   C1078   1.413   1_554 S
C350   H366    1.109   .     S
C350   H365    1.114   .     S
C350   H367    1.114   .     S
C350   O408    1.410   .     S
C351   C361    1.423   .     A
C352   H370    1.110   .     S
C352   H369    1.109   .     S
C352   O393    1.413   .     S
C352   H368    1.115   .     S
C353   O395    1.399   .     S
C353   O394    1.221   .     D
C354   H372    1.113   .     S
C354   H373    1.113   .     S
C354   O396    1.419   .     S
C354   H456    1.103   .     S
C355   O397    1.223   .     D
C355   C362    1.503   .     S
C355   O398    1.399   .     S
C356   H379    1.109   .     S
C356   H378    1.111   .     S
C356   H377    1.114   .     S
C356   O399    1.410   .     S
C357   H382    1.111   .     S
C357   O400    1.412   .     S
C357   H381    1.115   .     S
C357   H380    1.109   .     S
C358   C362    1.409   .     A
C358   C1078   1.417   1_554 S
C358   C1097   1.417   1_554 S
C359   C360    1.392   .     A
C359   C1083   1.401   .     S
C359   C1096   1.417   .     S
C360   O396    1.381   .     S
C360   C361    1.389   .     A
C361   O399    1.384   .     S
C363   H364    1.084   .     S
H371   O395    1.013   .     S
H376   O398    1.014   .     S
H386   C1083   1.084   .     S
H389   C1086   1.083   1_554 S
N390   Zn409   2.024   .     S
N391   Zn410   2.024   .     S
O392   Zn409   1.987   .     S
O401   Zn410   1.977   .     S
O402   Zn409   1.977   .     S
O403   Zn410   1.941   .     S
O404   Zn409   1.977   .     S
O405   Zn410   1.987   .     S
O406   Zn409   1.941   .     S
O407   Zn410   1.977   .     S
C411   C419    1.408   .     S
C411   O474    1.288   .     A
C411   O483    1.282   .     A
C412   C414    1.473   .     S
C412   C429    1.403   .     A
C412   C433    1.419   .     A
C413   C419    1.401   .     A
C413   O482    1.387   .     S
C413   C661    1.382   .     S
C414   O485    1.299   .     A
C414   O484    1.303   .     A
C415   H457    1.084   .     S
C415   C416    1.392   .     A
C416   C425    1.404   .     S
C416   C417    1.398   .     A
C417   O490    1.383   .     S
C418   C419    1.392   .     A
C418   H465    1.080   .     S
C418   C663    1.374   .     S
C420   N473    1.363   .     A
C420   H466    1.080   .     S
C420   C257    1.432   1_655 S
C421   N472    1.376   .     A
C421   O475    1.385   .     S
C422   C433    1.412   .     A
C422   C1169   1.413   .     S
C422   C1178   1.417   .     S
C423   N472    1.384   .     A
C423   C435    1.470   .     S
C424   N473    1.356   .     A
C424   H467    1.081   .     S
C424   C259    1.415   1_655 S
C425   O486    1.284   .     A
C425   O487    1.284   .     A
C426   O489    1.291   .     A
C426   O488    1.298   .     A
C426   C428    1.444   .     S
C427   C445    1.381   .     A
C427   C1179   1.401   1_554 S
C427   H1206   1.084   1_554 S
C428   C445    1.398   .     A
C428   C444    1.402   .     A
C429   C430    1.391   .     A
C429   H469    1.079   .     S
C430   C1169   1.392   .     S
C430   H1209   1.083   .     S
C431   H470    1.082   .     S
C431   C1168   1.392   1_554 S
C431   C1160   1.413   1_554 S
C432   H448    1.109   .     S
C432   H447    1.114   .     S
C432   H449    1.114   .     S
C432   O490    1.410   .     S
C433   C443    1.423   .     A
C434   H452    1.110   .     S
C434   H451    1.109   .     S
C434   O475    1.413   .     S
C434   H450    1.115   .     S
C435   O477    1.399   .     S
C435   O476    1.221   .     D
C436   H454    1.113   .     S
C436   H455    1.113   .     S
C436   O478    1.419   .     S
C436   H292    1.103   1_655 S
C437   O479    1.223   .     D
C437   C444    1.503   .     S
C437   O480    1.399   .     S
C438   H461    1.109   .     S
C438   H460    1.111   .     S
C438   H459    1.114   .     S
C438   O481    1.410   .     S
C439   H464    1.111   .     S
C439   O482    1.412   .     S
C439   H463    1.115   .     S
C439   H462    1.109   .     S
C440   C444    1.409   .     A
C440   C1160   1.417   1_554 S
C440   C1179   1.417   1_554 S
C441   C442    1.392   .     A
C441   C1165   1.401   .     S
C441   C1178   1.417   .     S
C442   O478    1.381   .     S
C442   C443    1.389   .     A
C443   O481    1.384   .     S
C445   H446    1.084   .     S
H453   O477    1.013   .     S
H458   O480    1.014   .     S
H468   C1165   1.084   .     S
H471   C1168   1.083   1_554 S
N472   Zn491   2.024   .     S
N473   Zn492   2.024   .     S
O474   Zn491   1.987   .     S
O483   Zn492   1.977   .     S
O484   Zn491   1.977   .     S
O485   Zn492   1.941   .     S
O486   Zn491   1.977   .     S
O487   Zn492   1.987   .     S
O488   Zn491   1.941   .     S
O489   Zn492   1.977   .     S
C493   C501    1.408   .     S
C493   O556    1.288   .     A
C493   O565    1.282   .     A
C494   C496    1.473   .     S
C494   C511    1.403   .     A
C494   C515    1.419   .     A
C495   C501    1.401   .     A
C495   O564    1.387   .     S
C495   C5      1.382   1_565 S
C496   O567    1.299   .     A
C496   O566    1.303   .     A
C497   H539    1.084   .     S
C497   C498    1.392   .     A
C498   C507    1.404   .     S
C498   C499    1.398   .     A
C499   O572    1.383   .     S
C500   C501    1.392   .     A
C500   H547    1.080   .     S
C500   C7      1.374   1_565 S
C502   N555    1.363   .     A
C502   H548    1.080   .     S
C502   C585    1.432   .     S
C503   N554    1.376   .     A
C503   O557    1.385   .     S
C503   C666    1.432   1_455 S
C504   C515    1.412   .     A
C504   C1251   1.413   .     S
C504   C1260   1.417   .     S
C505   N554    1.384   .     A
C505   C517    1.470   .     S
C505   C670    1.415   1_455 S
C506   N555    1.356   .     A
C506   H549    1.081   .     S
C506   C587    1.415   .     S
C507   O568    1.284   .     A
C507   O569    1.284   .     A
C508   O571    1.291   .     A
C508   O570    1.298   .     A
C508   C510    1.444   .     S
C509   C527    1.381   .     A
C509   C1261   1.401   1_554 S
C509   H1288   1.084   1_554 S
C510   C527    1.398   .     A
C510   C526    1.402   .     A
C511   C512    1.391   .     A
C511   H551    1.079   .     S
C512   C1251   1.392   .     S
C512   H1291   1.083   .     S
C513   H552    1.082   .     S
C513   C1250   1.392   1_554 S
C513   C1242   1.413   1_554 S
C514   H530    1.109   .     S
C514   H529    1.114   .     S
C514   H531    1.114   .     S
C514   O572    1.410   .     S
C515   C525    1.423   .     A
C516   H534    1.110   .     S
C516   H533    1.109   .     S
C516   O557    1.413   .     S
C516   H532    1.115   .     S
C517   O559    1.399   .     S
C517   O558    1.221   .     D
C518   H536    1.113   .     S
C518   H537    1.113   .     S
C518   O560    1.419   .     S
C518   H620    1.103   .     S
C519   O561    1.223   .     D
C519   C526    1.503   .     S
C519   O562    1.399   .     S
C520   H543    1.109   .     S
C520   H542    1.111   .     S
C520   H541    1.114   .     S
C520   O563    1.410   .     S
C521   H546    1.111   .     S
C521   O564    1.412   .     S
C521   H545    1.115   .     S
C521   H544    1.109   .     S
C522   C526    1.409   .     A
C522   C1242   1.417   1_554 S
C522   C1261   1.417   1_554 S
C523   C524    1.392   .     A
C523   C1247   1.401   .     S
C523   C1260   1.417   .     S
C524   O560    1.381   .     S
C524   C525    1.389   .     A
C525   O563    1.384   .     S
C527   H528    1.084   .     S
H535   O559    1.013   .     S
H538   C682    1.103   1_455 S
H540   O562    1.014   .     S
H550   C1247   1.084   .     S
H553   C1250   1.083   1_554 S
N554   Zn573   2.024   .     S
N555   Zn574   2.024   .     S
O556   Zn573   1.987   .     S
O565   Zn574   1.977   .     S
O566   Zn573   1.977   .     S
O567   Zn574   1.941   .     S
O568   Zn573   1.977   .     S
O569   Zn574   1.987   .     S
O570   Zn573   1.941   .     S
O571   Zn574   1.977   .     S
C575   C583    1.408   .     S
C575   O638    1.288   .     A
C575   O647    1.282   .     A
C576   C578    1.473   .     S
C576   C593    1.403   .     A
C576   C597    1.419   .     A
C577   C583    1.401   .     A
C577   O646    1.387   .     S
C577   C87     1.382   1_565 S
C578   O649    1.299   .     A
C578   O648    1.303   .     A
C579   H621    1.084   .     S
C579   C580    1.392   .     A
C580   C589    1.404   .     S
C580   C581    1.398   .     A
C581   O654    1.383   .     S
C582   C583    1.392   .     A
C582   H629    1.080   .     S
C582   C89     1.374   1_565 S
C584   N637    1.363   .     A
C584   H630    1.080   .     S
C584   C667    1.432   .     S
C585   N636    1.376   .     A
C585   O639    1.385   .     S
C586   C597    1.412   .     A
C586   C1333   1.413   .     S
C586   C1342   1.417   .     S
C587   N636    1.384   .     A
C587   C599    1.470   .     S
C588   N637    1.356   .     A
C588   H631    1.081   .     S
C588   C669    1.415   .     S
C589   O650    1.284   .     A
C589   O651    1.284   .     A
C590   O653    1.291   .     A
C590   O652    1.298   .     A
C590   C592    1.444   .     S
C591   C609    1.381   .     A
C591   C1343   1.401   1_554 S
C591   H1370   1.084   1_554 S
C592   C609    1.398   .     A
C592   C608    1.402   .     A
C593   C594    1.391   .     A
C593   H633    1.079   .     S
C594   C1333   1.392   .     S
C594   H1373   1.083   .     S
C595   H634    1.082   .     S
C595   C1332   1.392   1_554 S
C595   C1324   1.413   1_554 S
C596   H612    1.109   .     S
C596   H611    1.114   .     S
C596   H613    1.114   .     S
C596   O654    1.410   .     S
C597   C607    1.423   .     A
C598   H616    1.110   .     S
C598   H615    1.109   .     S
C598   O639    1.413   .     S
C598   H614    1.115   .     S
C599   O641    1.399   .     S
C599   O640    1.221   .     D
C600   H618    1.113   .     S
C600   H619    1.113   .     S
C600   O642    1.419   .     S
C600   H702    1.103   .     S
C601   O643    1.223   .     D
C601   C608    1.503   .     S
C601   O644    1.399   .     S
C602   H625    1.109   .     S
C602   H624    1.111   .     S
C602   H623    1.114   .     S
C602   O645    1.410   .     S
C603   H628    1.111   .     S
C603   O646    1.412   .     S
C603   H627    1.115   .     S
C603   H626    1.109   .     S
C604   C608    1.409   .     A
C604   C1324   1.417   1_554 S
C604   C1343   1.417   1_554 S
C605   C606    1.392   .     A
C605   C1329   1.401   .     S
C605   C1342   1.417   .     S
C606   O642    1.381   .     S
C606   C607    1.389   .     A
C607   O645    1.384   .     S
C609   H610    1.084   .     S
H617   O641    1.013   .     S
H622   O644    1.014   .     S
H632   C1329   1.084   .     S
H635   C1332   1.083   1_554 S
N636   Zn655   2.024   .     S
N637   Zn656   2.024   .     S
O638   Zn655   1.987   .     S
O647   Zn656   1.977   .     S
O648   Zn655   1.977   .     S
O649   Zn656   1.941   .     S
O650   Zn655   1.977   .     S
O651   Zn656   1.987   .     S
O652   Zn655   1.941   .     S
O653   Zn656   1.977   .     S
C657   C665    1.408   .     S
C657   O720    1.288   .     A
C657   O729    1.282   .     A
C658   C660    1.473   .     S
C658   C675    1.403   .     A
C658   C679    1.419   .     A
C659   C665    1.401   .     A
C659   O728    1.387   .     S
C659   C169    1.382   1_565 S
C660   O731    1.299   .     A
C660   O730    1.303   .     A
C661   H703    1.084   .     S
C661   C662    1.392   .     A
C662   C671    1.404   .     S
C662   C663    1.398   .     A
C663   O736    1.383   .     S
C664   C665    1.392   .     A
C664   H711    1.080   .     S
C664   C171    1.374   1_565 S
C666   N719    1.363   .     A
C666   H712    1.080   .     S
C666   C503    1.432   1_655 S
C667   N718    1.376   .     A
C667   O721    1.385   .     S
C668   C679    1.412   .     A
C668   C1415   1.413   .     S
C668   C1424   1.417   .     S
C669   N718    1.384   .     A
C669   C681    1.470   .     S
C670   N719    1.356   .     A
C670   H713    1.081   .     S
C670   C505    1.415   1_655 S
C671   O732    1.284   .     A
C671   O733    1.284   .     A
C672   O735    1.291   .     A
C672   O734    1.298   .     A
C672   C674    1.444   .     S
C673   C691    1.381   .     A
C673   C1425   1.401   1_554 S
C673   H1452   1.084   1_554 S
C674   C691    1.398   .     A
C674   C690    1.402   .     A
C675   C676    1.391   .     A
C675   H715    1.079   .     S
C676   C1415   1.392   .     S
C676   H1455   1.083   .     S
C677   H716    1.082   .     S
C677   C1414   1.392   1_554 S
C677   C1406   1.413   1_554 S
C678   H694    1.109   .     S
C678   H693    1.114   .     S
C678   H695    1.114   .     S
C678   O736    1.410   .     S
C679   C689    1.423   .     A
C680   H698    1.110   .     S
C680   H697    1.109   .     S
C680   O721    1.413   .     S
C680   H696    1.115   .     S
C681   O723    1.399   .     S
C681   O722    1.221   .     D
C682   H700    1.113   .     S
C682   H701    1.113   .     S
C682   O724    1.419   .     S
C682   H538    1.103   1_655 S
C683   O725    1.223   .     D
C683   C690    1.503   .     S
C683   O726    1.399   .     S
C684   H707    1.109   .     S
C684   H706    1.111   .     S
C684   H705    1.114   .     S
C684   O727    1.410   .     S
C685   H710    1.111   .     S
C685   O728    1.412   .     S
C685   H709    1.115   .     S
C685   H708    1.109   .     S
C686   C690    1.409   .     A
C686   C1406   1.417   1_554 S
C686   C1425   1.417   1_554 S
C687   C688    1.392   .     A
C687   C1411   1.401   .     S
C687   C1424   1.417   .     S
C688   O724    1.381   .     S
C688   C689    1.389   .     A
C689   O727    1.384   .     S
C691   H692    1.084   .     S
H699   O723    1.013   .     S
H704   O726    1.014   .     S
H714   C1411   1.084   .     S
H717   C1414   1.083   1_554 S
N718   Zn737   2.024   .     S
N719   Zn738   2.024   .     S
O720   Zn737   1.987   .     S
O729   Zn738   1.977   .     S
O730   Zn737   1.977   .     S
O731   Zn738   1.941   .     S
O732   Zn737   1.977   .     S
O733   Zn738   1.987   .     S
O734   Zn737   1.941   .     S
O735   Zn738   1.977   .     S
C739   C747    1.408   .     S
C739   O802    1.288   .     A
C739   O811    1.282   .     A
C740   C742    1.473   .     S
C740   C757    1.403   .     A
C740   C761    1.419   .     A
C741   C747    1.401   .     A
C741   O810    1.387   .     S
C741   C989    1.382   .     S
C742   O813    1.299   .     A
C742   O812    1.303   .     A
C743   H785    1.084   .     S
C743   C744    1.392   .     A
C743   C1233   1.382   1_545 S
C744   C753    1.404   .     S
C744   C745    1.398   .     A
C745   O818    1.383   .     S
C745   C1238   1.374   1_545 S
C746   C747    1.392   .     A
C746   H793    1.080   .     S
C746   C991    1.374   .     S
C748   N801    1.363   .     A
C748   H794    1.080   .     S
C748   C831    1.432   .     S
C749   N800    1.376   .     A
C749   O803    1.385   .     S
C749   C912    1.432   1_455 S
C750   C761    1.412   .     A
C750   C21     1.413   1_556 S
C750   C30     1.417   1_556 S
C751   N800    1.384   .     A
C751   C763    1.470   .     S
C751   C916    1.415   1_455 S
C752   N801    1.356   .     A
C752   H795    1.081   .     S
C752   C833    1.415   .     S
C753   O814    1.284   .     A
C753   O815    1.284   .     A
C754   O817    1.291   .     A
C754   O816    1.298   .     A
C754   C756    1.444   .     S
C755   C773    1.381   .     A
C756   C773    1.398   .     A
C756   C772    1.402   .     A
C757   C758    1.391   .     A
C757   H797    1.079   .     S
C758   C21     1.392   1_556 S
C758   H61     1.083   1_556 S
C759   H798    1.082   .     S
C760   H776    1.109   .     S
C760   H775    1.114   .     S
C760   H777    1.114   .     S
C760   O818    1.410   .     S
C761   C771    1.423   .     A
C762   H780    1.110   .     S
C762   H779    1.109   .     S
C762   O803    1.413   .     S
C762   H778    1.115   .     S
C763   O805    1.399   .     S
C763   O804    1.221   .     D
C764   H782    1.113   .     S
C764   H783    1.113   .     S
C764   O806    1.419   .     S
C764   H866    1.103   .     S
C765   O807    1.223   .     D
C765   C772    1.503   .     S
C765   O808    1.399   .     S
C766   H789    1.109   .     S
C766   H788    1.111   .     S
C766   H787    1.114   .     S
C766   O809    1.410   .     S
C767   H792    1.111   .     S
C767   O810    1.412   .     S
C767   H791    1.115   .     S
C767   H790    1.109   .     S
C768   C772    1.409   .     A
C769   C770    1.392   .     A
C769   C17     1.401   1_556 S
C769   C30     1.417   1_556 S
C770   O806    1.381   .     S
C770   C771    1.389   .     A
C771   O809    1.384   .     S
C773   H774    1.084   .     S
H781   O805    1.013   .     S
H784   C928    1.103   1_455 S
H786   O808    1.014   .     S
H796   C17     1.084   1_556 S
N800   Zn819   2.024   .     S
N801   Zn820   2.024   .     S
O802   Zn819   1.987   .     S
O811   Zn820   1.977   .     S
O812   Zn819   1.977   .     S
O813   Zn820   1.941   .     S
O814   Zn819   1.977   .     S
O815   Zn820   1.987   .     S
O816   Zn819   1.941   .     S
O817   Zn820   1.977   .     S
C821   C829    1.408   .     S
C821   O884    1.288   .     A
C821   O893    1.282   .     A
C822   C824    1.473   .     S
C822   C839    1.403   .     A
C822   C843    1.419   .     A
C823   C829    1.401   .     A
C823   O892    1.387   .     S
C823   C1071   1.382   .     S
C824   O895    1.299   .     A
C824   O894    1.303   .     A
C825   H867    1.084   .     S
C825   C826    1.392   .     A
C825   C1315   1.382   1_545 S
C826   C835    1.404   .     S
C826   C827    1.398   .     A
C827   O900    1.383   .     S
C827   C1320   1.374   1_545 S
C828   C829    1.392   .     A
C828   H875    1.080   .     S
C828   C1073   1.374   .     S
C830   N883    1.363   .     A
C830   H876    1.080   .     S
C830   C913    1.432   .     S
C831   N882    1.376   .     A
C831   O885    1.385   .     S
C832   C843    1.412   .     A
C832   C103    1.413   1_556 S
C832   C112    1.417   1_556 S
C833   N882    1.384   .     A
C833   C845    1.470   .     S
C834   N883    1.356   .     A
C834   H877    1.081   .     S
C834   C915    1.415   .     S
C835   O896    1.284   .     A
C835   O897    1.284   .     A
C836   O899    1.291   .     A
C836   O898    1.298   .     A
C836   C838    1.444   .     S
C837   C855    1.381   .     A
C838   C855    1.398   .     A
C838   C854    1.402   .     A
C839   C840    1.391   .     A
C839   H879    1.079   .     S
C840   C103    1.392   1_556 S
C840   H143    1.083   1_556 S
C841   H880    1.082   .     S
C842   H858    1.109   .     S
C842   H857    1.114   .     S
C842   H859    1.114   .     S
C842   O900    1.410   .     S
C843   C853    1.423   .     A
C844   H862    1.110   .     S
C844   H861    1.109   .     S
C844   O885    1.413   .     S
C844   H860    1.115   .     S
C845   O887    1.399   .     S
C845   O886    1.221   .     D
C846   H864    1.113   .     S
C846   H865    1.113   .     S
C846   O888    1.419   .     S
C846   H948    1.103   .     S
C847   O889    1.223   .     D
C847   C854    1.503   .     S
C847   O890    1.399   .     S
C848   H871    1.109   .     S
C848   H870    1.111   .     S
C848   H869    1.114   .     S
C848   O891    1.410   .     S
C849   H874    1.111   .     S
C849   O892    1.412   .     S
C849   H873    1.115   .     S
C849   H872    1.109   .     S
C850   C854    1.409   .     A
C851   C852    1.392   .     A
C851   C99     1.401   1_556 S
C851   C112    1.417   1_556 S
C852   O888    1.381   .     S
C852   C853    1.389   .     A
C853   O891    1.384   .     S
C855   H856    1.084   .     S
H863   O887    1.013   .     S
H868   O890    1.014   .     S
H878   C99     1.084   1_556 S
N882   Zn901   2.024   .     S
N883   Zn902   2.024   .     S
O884   Zn901   1.987   .     S
O893   Zn902   1.977   .     S
O894   Zn901   1.977   .     S
O895   Zn902   1.941   .     S
O896   Zn901   1.977   .     S
O897   Zn902   1.987   .     S
O898   Zn901   1.941   .     S
O899   Zn902   1.977   .     S
C903   C911    1.408   .     S
C903   O966    1.288   .     A
C903   O975    1.282   .     A
C904   C906    1.473   .     S
C904   C921    1.403   .     A
C904   C925    1.419   .     A
C905   C911    1.401   .     A
C905   O974    1.387   .     S
C905   C1153   1.382   .     S
C906   O977    1.299   .     A
C906   O976    1.303   .     A
C907   H949    1.084   .     S
C907   C908    1.392   .     A
C907   C1397   1.382   1_545 S
C908   C917    1.404   .     S
C908   C909    1.398   .     A
C909   O982    1.383   .     S
C909   C1402   1.374   1_545 S
C910   C911    1.392   .     A
C910   H957    1.080   .     S
C910   C1155   1.374   .     S
C912   N965    1.363   .     A
C912   H958    1.080   .     S
C912   C749    1.432   1_655 S
C913   N964    1.376   .     A
C913   O967    1.385   .     S
C914   C925    1.412   .     A
C914   C185    1.413   1_556 S
C914   C194    1.417   1_556 S
C915   N964    1.384   .     A
C915   C927    1.470   .     S
C916   N965    1.356   .     A
C916   H959    1.081   .     S
C916   C751    1.415   1_655 S
C917   O978    1.284   .     A
C917   O979    1.284   .     A
C918   O981    1.291   .     A
C918   O980    1.298   .     A
C918   C920    1.444   .     S
C919   C937    1.381   .     A
C920   C937    1.398   .     A
C920   C936    1.402   .     A
C921   C922    1.391   .     A
C921   H961    1.079   .     S
C922   C185    1.392   1_556 S
C922   H225    1.083   1_556 S
C923   H962    1.082   .     S
C924   H940    1.109   .     S
C924   H939    1.114   .     S
C924   H941    1.114   .     S
C924   O982    1.410   .     S
C925   C935    1.423   .     A
C926   H944    1.110   .     S
C926   H943    1.109   .     S
C926   O967    1.413   .     S
C926   H942    1.115   .     S
C927   O969    1.399   .     S
C927   O968    1.221   .     D
C928   H946    1.113   .     S
C928   H947    1.113   .     S
C928   O970    1.419   .     S
C928   H784    1.103   1_655 S
C929   O971    1.223   .     D
C929   C936    1.503   .     S
C929   O972    1.399   .     S
C930   H953    1.109   .     S
C930   H952    1.111   .     S
C930   H951    1.114   .     S
C930   O973    1.410   .     S
C931   H956    1.111   .     S
C931   O974    1.412   .     S
C931   H955    1.115   .     S
C931   H954    1.109   .     S
C932   C936    1.409   .     A
C933   C934    1.392   .     A
C933   C181    1.401   1_556 S
C933   C194    1.417   1_556 S
C934   O970    1.381   .     S
C934   C935    1.389   .     A
C935   O973    1.384   .     S
C937   H938    1.084   .     S
H945   O969    1.013   .     S
H950   O972    1.014   .     S
H960   C181    1.084   1_556 S
N964   Zn983   2.024   .     S
N965   Zn984   2.024   .     S
O966   Zn983   1.987   .     S
O975   Zn984   1.977   .     S
O976   Zn983   1.977   .     S
O977   Zn984   1.941   .     S
O978   Zn983   1.977   .     S
O979   Zn984   1.987   .     S
O980   Zn983   1.941   .     S
O981   Zn984   1.977   .     S
C985   C993    1.408   .     S
C985   O1048   1.288   .     A
C985   O1057   1.282   .     A
C986   C988    1.473   .     S
C986   C1003   1.403   .     A
C986   C1007   1.419   .     A
C987   C993    1.401   .     A
C987   O1056   1.387   .     S
C987   C1235   1.382   .     S
C988   O1059   1.299   .     A
C988   O1058   1.303   .     A
C989   H1031   1.084   .     S
C989   C990    1.392   .     A
C990   C999    1.404   .     S
C990   C991    1.398   .     A
C991   O1064   1.383   .     S
C992   C993    1.392   .     A
C992   H1039   1.080   .     S
C992   C1237   1.374   .     S
C994   N1047   1.363   .     A
C994   H1040   1.080   .     S
C994   C1077   1.432   .     S
C995   N1046   1.376   .     A
C995   O1049   1.385   .     S
C995   C1158   1.432   1_455 S
C996   C1007   1.412   .     A
C996   C267    1.413   1_556 S
C996   C276    1.417   1_556 S
C997   N1046   1.384   .     A
C997   C1009   1.470   .     S
C997   C1162   1.415   1_455 S
C998   N1047   1.356   .     A
C998   H1041   1.081   .     S
C998   C1079   1.415   .     S
C999   O1060   1.284   .     A
C999   O1061   1.284   .     A
C1000  O1063   1.291   .     A
C1000  O1062   1.298   .     A
C1000  C1002   1.444   .     S
C1001  C1019   1.381   .     A
C1002  C1019   1.398   .     A
C1002  C1018   1.402   .     A
C1003  C1004   1.391   .     A
C1003  H1043   1.079   .     S
C1004  C267    1.392   1_556 S
C1004  H307    1.083   1_556 S
C1005  H1044   1.082   .     S
C1006  H1022   1.109   .     S
C1006  H1021   1.114   .     S
C1006  H1023   1.114   .     S
C1006  O1064   1.410   .     S
C1007  C1017   1.423   .     A
C1008  H1026   1.110   .     S
C1008  H1025   1.109   .     S
C1008  O1049   1.413   .     S
C1008  H1024   1.115   .     S
C1009  O1051   1.399   .     S
C1009  O1050   1.221   .     D
C1010  H1028   1.113   .     S
C1010  H1029   1.113   .     S
C1010  O1052   1.419   .     S
C1010  H1112   1.103   .     S
C1011  O1053   1.223   .     D
C1011  C1018   1.503   .     S
C1011  O1054   1.399   .     S
C1012  H1035   1.109   .     S
C1012  H1034   1.111   .     S
C1012  H1033   1.114   .     S
C1012  O1055   1.410   .     S
C1013  H1038   1.111   .     S
C1013  O1056   1.412   .     S
C1013  H1037   1.115   .     S
C1013  H1036   1.109   .     S
C1014  C1018   1.409   .     A
C1015  C1016   1.392   .     A
C1015  C263    1.401   1_556 S
C1015  C276    1.417   1_556 S
C1016  O1052   1.381   .     S
C1016  C1017   1.389   .     A
C1017  O1055   1.384   .     S
C1019  H1020   1.084   .     S
H1027  O1051   1.013   .     S
H1030  C1174   1.103   1_455 S
H1032  O1054   1.014   .     S
H1042  C263    1.084   1_556 S
N1046  Zn1065  2.024   .     S
N1047  Zn1066  2.024   .     S
O1048  Zn1065  1.987   .     S
O1057  Zn1066  1.977   .     S
O1058  Zn1065  1.977   .     S
O1059  Zn1066  1.941   .     S
O1060  Zn1065  1.977   .     S
O1061  Zn1066  1.987   .     S
O1062  Zn1065  1.941   .     S
O1063  Zn1066  1.977   .     S
C1067  C1075   1.408   .     S
C1067  O1130   1.288   .     A
C1067  O1139   1.282   .     A
C1068  C1070   1.473   .     S
C1068  C1085   1.403   .     A
C1068  C1089   1.419   .     A
C1069  C1075   1.401   .     A
C1069  O1138   1.387   .     S
C1069  C1317   1.382   .     S
C1070  O1141   1.299   .     A
C1070  O1140   1.303   .     A
C1071  H1113   1.084   .     S
C1071  C1072   1.392   .     A
C1072  C1081   1.404   .     S
C1072  C1073   1.398   .     A
C1073  O1146   1.383   .     S
C1074  C1075   1.392   .     A
C1074  H1121   1.080   .     S
C1074  C1319   1.374   .     S
C1076  N1129   1.363   .     A
C1076  H1122   1.080   .     S
C1076  C1159   1.432   .     S
C1077  N1128   1.376   .     A
C1077  O1131   1.385   .     S
C1078  C1089   1.412   .     A
C1078  C349    1.413   1_556 S
C1078  C358    1.417   1_556 S
C1079  N1128   1.384   .     A
C1079  C1091   1.470   .     S
C1080  N1129   1.356   .     A
C1080  H1123   1.081   .     S
C1080  C1161   1.415   .     S
C1081  O1142   1.284   .     A
C1081  O1143   1.284   .     A
C1082  O1145   1.291   .     A
C1082  O1144   1.298   .     A
C1082  C1084   1.444   .     S
C1083  C1101   1.381   .     A
C1084  C1101   1.398   .     A
C1084  C1100   1.402   .     A
C1085  C1086   1.391   .     A
C1085  H1125   1.079   .     S
C1086  C349    1.392   1_556 S
C1086  H389    1.083   1_556 S
C1087  H1126   1.082   .     S
C1088  H1104   1.109   .     S
C1088  H1103   1.114   .     S
C1088  H1105   1.114   .     S
C1088  O1146   1.410   .     S
C1089  C1099   1.423   .     A
C1090  H1108   1.110   .     S
C1090  H1107   1.109   .     S
C1090  O1131   1.413   .     S
C1090  H1106   1.115   .     S
C1091  O1133   1.399   .     S
C1091  O1132   1.221   .     D
C1092  H1110   1.113   .     S
C1092  H1111   1.113   .     S
C1092  O1134   1.419   .     S
C1092  H1194   1.103   .     S
C1093  O1135   1.223   .     D
C1093  C1100   1.503   .     S
C1093  O1136   1.399   .     S
C1094  H1117   1.109   .     S
C1094  H1116   1.111   .     S
C1094  H1115   1.114   .     S
C1094  O1137   1.410   .     S
C1095  H1120   1.111   .     S
C1095  O1138   1.412   .     S
C1095  H1119   1.115   .     S
C1095  H1118   1.109   .     S
C1096  C1100   1.409   .     A
C1097  C1098   1.392   .     A
C1097  C345    1.401   1_556 S
C1097  C358    1.417   1_556 S
C1098  O1134   1.381   .     S
C1098  C1099   1.389   .     A
C1099  O1137   1.384   .     S
C1101  H1102   1.084   .     S
H1109  O1133   1.013   .     S
H1114  O1136   1.014   .     S
H1124  C345    1.084   1_556 S
N1128  Zn1147  2.024   .     S
N1129  Zn1148  2.024   .     S
O1130  Zn1147  1.987   .     S
O1139  Zn1148  1.977   .     S
O1140  Zn1147  1.977   .     S
O1141  Zn1148  1.941   .     S
O1142  Zn1147  1.977   .     S
O1143  Zn1148  1.987   .     S
O1144  Zn1147  1.941   .     S
O1145  Zn1148  1.977   .     S
C1149  C1157   1.408   .     S
C1149  O1212   1.288   .     A
C1149  O1221   1.282   .     A
C1150  C1152   1.473   .     S
C1150  C1167   1.403   .     A
C1150  C1171   1.419   .     A
C1151  C1157   1.401   .     A
C1151  O1220   1.387   .     S
C1151  C1399   1.382   .     S
C1152  O1223   1.299   .     A
C1152  O1222   1.303   .     A
C1153  H1195   1.084   .     S
C1153  C1154   1.392   .     A
C1154  C1163   1.404   .     S
C1154  C1155   1.398   .     A
C1155  O1228   1.383   .     S
C1156  C1157   1.392   .     A
C1156  H1203   1.080   .     S
C1156  C1401   1.374   .     S
C1158  N1211   1.363   .     A
C1158  H1204   1.080   .     S
C1158  C995    1.432   1_655 S
C1159  N1210   1.376   .     A
C1159  O1213   1.385   .     S
C1160  C1171   1.412   .     A
C1160  C431    1.413   1_556 S
C1160  C440    1.417   1_556 S
C1161  N1210   1.384   .     A
C1161  C1173   1.470   .     S
C1162  N1211   1.356   .     A
C1162  H1205   1.081   .     S
C1162  C997    1.415   1_655 S
C1163  O1224   1.284   .     A
C1163  O1225   1.284   .     A
C1164  O1227   1.291   .     A
C1164  O1226   1.298   .     A
C1164  C1166   1.444   .     S
C1165  C1183   1.381   .     A
C1166  C1183   1.398   .     A
C1166  C1182   1.402   .     A
C1167  C1168   1.391   .     A
C1167  H1207   1.079   .     S
C1168  C431    1.392   1_556 S
C1168  H471    1.083   1_556 S
C1169  H1208   1.082   .     S
C1170  H1186   1.109   .     S
C1170  H1185   1.114   .     S
C1170  H1187   1.114   .     S
C1170  O1228   1.410   .     S
C1171  C1181   1.423   .     A
C1172  H1190   1.110   .     S
C1172  H1189   1.109   .     S
C1172  O1213   1.413   .     S
C1172  H1188   1.115   .     S
C1173  O1215   1.399   .     S
C1173  O1214   1.221   .     D
C1174  H1192   1.113   .     S
C1174  H1193   1.113   .     S
C1174  O1216   1.419   .     S
C1174  H1030   1.103   1_655 S
C1175  O1217   1.223   .     D
C1175  C1182   1.503   .     S
C1175  O1218   1.399   .     S
C1176  H1199   1.109   .     S
C1176  H1198   1.111   .     S
C1176  H1197   1.114   .     S
C1176  O1219   1.410   .     S
C1177  H1202   1.111   .     S
C1177  O1220   1.412   .     S
C1177  H1201   1.115   .     S
C1177  H1200   1.109   .     S
C1178  C1182   1.409   .     A
C1179  C1180   1.392   .     A
C1179  C427    1.401   1_556 S
C1179  C440    1.417   1_556 S
C1180  O1216   1.381   .     S
C1180  C1181   1.389   .     A
C1181  O1219   1.384   .     S
C1183  H1184   1.084   .     S
H1191  O1215   1.013   .     S
H1196  O1218   1.014   .     S
H1206  C427    1.084   1_556 S
N1210  Zn1229  2.024   .     S
N1211  Zn1230  2.024   .     S
O1212  Zn1229  1.987   .     S
O1221  Zn1230  1.977   .     S
O1222  Zn1229  1.977   .     S
O1223  Zn1230  1.941   .     S
O1224  Zn1229  1.977   .     S
O1225  Zn1230  1.987   .     S
O1226  Zn1229  1.941   .     S
O1227  Zn1230  1.977   .     S
C1231  C1239   1.408   .     S
C1231  O1294   1.288   .     A
C1231  O1303   1.282   .     A
C1232  C1234   1.473   .     S
C1232  C1249   1.403   .     A
C1232  C1253   1.419   .     A
C1233  C1239   1.401   .     A
C1233  O1302   1.387   .     S
C1233  C743    1.382   1_565 S
C1234  O1305   1.299   .     A
C1234  O1304   1.303   .     A
C1235  H1277   1.084   .     S
C1235  C1236   1.392   .     A
C1236  C1245   1.404   .     S
C1236  C1237   1.398   .     A
C1237  O1310   1.383   .     S
C1238  C1239   1.392   .     A
C1238  H1285   1.080   .     S
C1238  C745    1.374   1_565 S
C1240  N1293   1.363   .     A
C1240  H1286   1.080   .     S
C1240  C1323   1.432   .     S
C1241  N1292   1.376   .     A
C1241  O1295   1.385   .     S
C1241  C1404   1.432   1_455 S
C1242  C1253   1.412   .     A
C1242  C513    1.413   1_556 S
C1242  C522    1.417   1_556 S
C1243  N1292   1.384   .     A
C1243  C1255   1.470   .     S
C1243  C1408   1.415   1_455 S
C1244  N1293   1.356   .     A
C1244  H1287   1.081   .     S
C1244  C1325   1.415   .     S
C1245  O1306   1.284   .     A
C1245  O1307   1.284   .     A
C1246  O1309   1.291   .     A
C1246  O1308   1.298   .     A
C1246  C1248   1.444   .     S
C1247  C1265   1.381   .     A
C1248  C1265   1.398   .     A
C1248  C1264   1.402   .     A
C1249  C1250   1.391   .     A
C1249  H1289   1.079   .     S
C1250  C513    1.392   1_556 S
C1250  H553    1.083   1_556 S
C1251  H1290   1.082   .     S
C1252  H1268   1.109   .     S
C1252  H1267   1.114   .     S
C1252  H1269   1.114   .     S
C1252  O1310   1.410   .     S
C1253  C1263   1.423   .     A
C1254  H1272   1.110   .     S
C1254  H1271   1.109   .     S
C1254  O1295   1.413   .     S
C1254  H1270   1.115   .     S
C1255  O1297   1.399   .     S
C1255  O1296   1.221   .     D
C1256  H1274   1.113   .     S
C1256  H1275   1.113   .     S
C1256  O1298   1.419   .     S
C1256  H1358   1.103   .     S
C1257  O1299   1.223   .     D
C1257  C1264   1.503   .     S
C1257  O1300   1.399   .     S
C1258  H1281   1.109   .     S
C1258  H1280   1.111   .     S
C1258  H1279   1.114   .     S
C1258  O1301   1.410   .     S
C1259  H1284   1.111   .     S
C1259  O1302   1.412   .     S
C1259  H1283   1.115   .     S
C1259  H1282   1.109   .     S
C1260  C1264   1.409   .     A
C1261  C1262   1.392   .     A
C1261  C509    1.401   1_556 S
C1261  C522    1.417   1_556 S
C1262  O1298   1.381   .     S
C1262  C1263   1.389   .     A
C1263  O1301   1.384   .     S
C1265  H1266   1.084   .     S
H1273  O1297   1.013   .     S
H1276  C1420   1.103   1_455 S
H1278  O1300   1.014   .     S
H1288  C509    1.084   1_556 S
N1292  Zn1311  2.024   .     S
N1293  Zn1312  2.024   .     S
O1294  Zn1311  1.987   .     S
O1303  Zn1312  1.977   .     S
O1304  Zn1311  1.977   .     S
O1305  Zn1312  1.941   .     S
O1306  Zn1311  1.977   .     S
O1307  Zn1312  1.987   .     S
O1308  Zn1311  1.941   .     S
O1309  Zn1312  1.977   .     S
C1313  C1321   1.408   .     S
C1313  O1376   1.288   .     A
C1313  O1385   1.282   .     A
C1314  C1316   1.473   .     S
C1314  C1331   1.403   .     A
C1314  C1335   1.419   .     A
C1315  C1321   1.401   .     A
C1315  O1384   1.387   .     S
C1315  C825    1.382   1_565 S
C1316  O1387   1.299   .     A
C1316  O1386   1.303   .     A
C1317  H1359   1.084   .     S
C1317  C1318   1.392   .     A
C1318  C1327   1.404   .     S
C1318  C1319   1.398   .     A
C1319  O1392   1.383   .     S
C1320  C1321   1.392   .     A
C1320  H1367   1.080   .     S
C1320  C827    1.374   1_565 S
C1322  N1375   1.363   .     A
C1322  H1368   1.080   .     S
C1322  C1405   1.432   .     S
C1323  N1374   1.376   .     A
C1323  O1377   1.385   .     S
C1324  C1335   1.412   .     A
C1324  C595    1.413   1_556 S
C1324  C604    1.417   1_556 S
C1325  N1374   1.384   .     A
C1325  C1337   1.470   .     S
C1326  N1375   1.356   .     A
C1326  H1369   1.081   .     S
C1326  C1407   1.415   .     S
C1327  O1388   1.284   .     A
C1327  O1389   1.284   .     A
C1328  O1391   1.291   .     A
C1328  O1390   1.298   .     A
C1328  C1330   1.444   .     S
C1329  C1347   1.381   .     A
C1330  C1347   1.398   .     A
C1330  C1346   1.402   .     A
C1331  C1332   1.391   .     A
C1331  H1371   1.079   .     S
C1332  C595    1.392   1_556 S
C1332  H635    1.083   1_556 S
C1333  H1372   1.082   .     S
C1334  H1350   1.109   .     S
C1334  H1349   1.114   .     S
C1334  H1351   1.114   .     S
C1334  O1392   1.410   .     S
C1335  C1345   1.423   .     A
C1336  H1354   1.110   .     S
C1336  H1353   1.109   .     S
C1336  O1377   1.413   .     S
C1336  H1352   1.115   .     S
C1337  O1379   1.399   .     S
C1337  O1378   1.221   .     D
C1338  H1356   1.113   .     S
C1338  H1357   1.113   .     S
C1338  O1380   1.419   .     S
C1338  H1440   1.103   .     S
C1339  O1381   1.223   .     D
C1339  C1346   1.503   .     S
C1339  O1382   1.399   .     S
C1340  H1363   1.109   .     S
C1340  H1362   1.111   .     S
C1340  H1361   1.114   .     S
C1340  O1383   1.410   .     S
C1341  H1366   1.111   .     S
C1341  O1384   1.412   .     S
C1341  H1365   1.115   .     S
C1341  H1364   1.109   .     S
C1342  C1346   1.409   .     A
C1343  C1344   1.392   .     A
C1343  C591    1.401   1_556 S
C1343  C604    1.417   1_556 S
C1344  O1380   1.381   .     S
C1344  C1345   1.389   .     A
C1345  O1383   1.384   .     S
C1347  H1348   1.084   .     S
H1355  O1379   1.013   .     S
H1360  O1382   1.014   .     S
H1370  C591    1.084   1_556 S
N1374  Zn1393  2.024   .     S
N1375  Zn1394  2.024   .     S
O1376  Zn1393  1.987   .     S
O1385  Zn1394  1.977   .     S
O1386  Zn1393  1.977   .     S
O1387  Zn1394  1.941   .     S
O1388  Zn1393  1.977   .     S
O1389  Zn1394  1.987   .     S
O1390  Zn1393  1.941   .     S
O1391  Zn1394  1.977   .     S
C1395  C1403   1.408   .     S
C1395  O1458   1.288   .     A
C1395  O1467   1.282   .     A
C1396  C1398   1.473   .     S
C1396  C1413   1.403   .     A
C1396  C1417   1.419   .     A
C1397  C1403   1.401   .     A
C1397  O1466   1.387   .     S
C1397  C907    1.382   1_565 S
C1398  O1469   1.299   .     A
C1398  O1468   1.303   .     A
C1399  H1441   1.084   .     S
C1399  C1400   1.392   .     A
C1400  C1409   1.404   .     S
C1400  C1401   1.398   .     A
C1401  O1474   1.383   .     S
C1402  C1403   1.392   .     A
C1402  H1449   1.080   .     S
C1402  C909    1.374   1_565 S
C1404  N1457   1.363   .     A
C1404  H1450   1.080   .     S
C1404  C1241   1.432   1_655 S
C1405  N1456   1.376   .     A
C1405  O1459   1.385   .     S
C1406  C1417   1.412   .     A
C1406  C677    1.413   1_556 S
C1406  C686    1.417   1_556 S
C1407  N1456   1.384   .     A
C1407  C1419   1.470   .     S
C1408  N1457   1.356   .     A
C1408  H1451   1.081   .     S
C1408  C1243   1.415   1_655 S
C1409  O1470   1.284   .     A
C1409  O1471   1.284   .     A
C1410  O1473   1.291   .     A
C1410  O1472   1.298   .     A
C1410  C1412   1.444   .     S
C1411  C1429   1.381   .     A
C1412  C1429   1.398   .     A
C1412  C1428   1.402   .     A
C1413  C1414   1.391   .     A
C1413  H1453   1.079   .     S
C1414  C677    1.392   1_556 S
C1414  H717    1.083   1_556 S
C1415  H1454   1.082   .     S
C1416  H1432   1.109   .     S
C1416  H1431   1.114   .     S
C1416  H1433   1.114   .     S
C1416  O1474   1.410   .     S
C1417  C1427   1.423   .     A
C1418  H1436   1.110   .     S
C1418  H1435   1.109   .     S
C1418  O1459   1.413   .     S
C1418  H1434   1.115   .     S
C1419  O1461   1.399   .     S
C1419  O1460   1.221   .     D
C1420  H1438   1.113   .     S
C1420  H1439   1.113   .     S
C1420  O1462   1.419   .     S
C1420  H1276   1.103   1_655 S
C1421  O1463   1.223   .     D
C1421  C1428   1.503   .     S
C1421  O1464   1.399   .     S
C1422  H1445   1.109   .     S
C1422  H1444   1.111   .     S
C1422  H1443   1.114   .     S
C1422  O1465   1.410   .     S
C1423  H1448   1.111   .     S
C1423  O1466   1.412   .     S
C1423  H1447   1.115   .     S
C1423  H1446   1.109   .     S
C1424  C1428   1.409   .     A
C1425  C1426   1.392   .     A
C1425  C673    1.401   1_556 S
C1425  C686    1.417   1_556 S
C1426  O1462   1.381   .     S
C1426  C1427   1.389   .     A
C1427  O1465   1.384   .     S
C1429  H1430   1.084   .     S
H1437  O1461   1.013   .     S
H1442  O1464   1.014   .     S
H1452  C673    1.084   1_556 S
N1456  Zn1475  2.024   .     S
N1457  Zn1476  2.024   .     S
O1458  Zn1475  1.987   .     S
O1467  Zn1476  1.977   .     S
O1468  Zn1475  1.977   .     S
O1469  Zn1476  1.941   .     S
O1470  Zn1475  1.977   .     S
O1471  Zn1476  1.987   .     S
O1472  Zn1475  1.941   .     S
O1473  Zn1476  1.977   .     S
