data_str_m1_o10_o16_pcu_sym.54
_audit_creation_date              2020-01-03
_audit_creation_method            'Materials Studio'
_symmetry_space_group_name_H-M    'P1'
_symmetry_Int_Tables_number       1
_symmetry_cell_setting            triclinic
loop_
_symmetry_equiv_pos_as_xyz
  x,y,z
_cell_length_a                    32.6789
_cell_length_b                    32.4961
_cell_length_c                    30.9620
_cell_angle_alpha                 96.2517
_cell_angle_beta                  74.5681
_cell_angle_gamma                 98.2443
loop_
_atom_site_label
_atom_site_type_symbol
_atom_site_fract_x
_atom_site_fract_y
_atom_site_fract_z
_atom_site_U_iso_or_equiv
_atom_site_adp_type
_atom_site_occupancy
C1     C     0.05313   0.16017   0.25935   0.00000  Uiso   1.00
C2     C     0.16657   0.15242   0.05735   0.00000  Uiso   1.00
C3     C     0.23629   0.13481   0.05731   0.00000  Uiso   1.00
C4     C     0.28072   0.17366   0.24024   0.00000  Uiso   1.00
C5     C     0.14467   0.19766   0.41970   0.00000  Uiso   1.00
C6     C     0.32618   0.17650   0.23784   0.00000  Uiso   1.00
C7     C     0.00769   0.15600   0.26508   0.00000  Uiso   1.00
C8     C     0.18049   0.32252   0.23650   0.00000  Uiso   1.00
C9     C     0.15209   0.01183   0.26418   0.00000  Uiso   1.00
C10    C     0.15620   0.05591   0.26028   0.00000  Uiso   1.00
C11    C     0.17661   0.27794   0.24019   0.00000  Uiso   1.00
C12    C     0.09989   0.22192   0.49148   0.00000  Uiso   1.00
C13    C     0.18539   0.14842   0.12927   0.00000  Uiso   1.00
C14    C     0.14993   0.18625   0.37083   0.00000  Uiso   1.00
C15    C     0.25096   0.13912   0.01131   0.00000  Uiso   1.00
C16    C     0.19490   0.14235   0.08047   0.00000  Uiso   1.00
C17    C     0.10904   0.21797   0.44478   0.00000  Uiso   1.00
C18    C     0.32805   0.11918   0.33389   0.00000  Uiso   1.00
C19    C     0.32581   0.16489   0.48960   0.00000  Uiso   1.00
C20    C     0.09782   0.11092   0.06589   0.00000  Uiso   1.00
C21    C     0.09889   0.27828   0.41192   0.00000  Uiso   1.00
C22    C     0.24708   0.24156   0.38012   0.00000  Uiso   1.00
C23    C     0.12406   0.20467   0.01376   0.00000  Uiso   1.00
C24    C     0.15919   0.18365   0.48995   0.00000  Uiso   1.00
C25    C     0.17334   0.18639   0.44274   0.00000  Uiso   1.00
C26    C     0.18288   0.16351   0.01221   0.00000  Uiso   1.00
C27    C     0.22479   0.15463   0.48868   0.00000  Uiso   1.00
C28    C     0.24079   0.16332   0.44360   0.00000  Uiso   1.00
C29    C     0.21644   0.18039   0.42094   0.00000  Uiso   1.00
H30    H     0.20668   0.00371   0.21102   0.00000  Uiso   1.00
H31    H     0.02307   0.10177   0.32333   0.00000  Uiso   1.00
H32    H     0.12559   0.33143   0.28984   0.00000  Uiso   1.00
H33    H     0.30078   0.10347   0.49845   0.00000  Uiso   1.00
H34    H     0.32885   0.17309   0.02451   0.00000  Uiso   1.00
H35    H     0.31806   0.19247   0.47643   0.00000  Uiso   1.00
H36    H     0.02359   0.15632   0.46822   0.00000  Uiso   1.00
H37    H     0.11333   0.15770   0.11237   0.00000  Uiso   1.00
H38    H     0.06320   0.11219   0.08149   0.00000  Uiso   1.00
H39    H     0.10789   0.08385   0.07775   0.00000  Uiso   1.00
H40    H     0.10274   0.10682   0.02883   0.00000  Uiso   1.00
H41    H     0.27333   0.15861   0.42598   0.00000  Uiso   1.00
H42    H     0.05109   0.23323   0.44043   0.00000  Uiso   1.00
H43    H     0.07881   0.28889   0.39246   0.00000  Uiso   1.00
H44    H     0.13239   0.28014   0.39093   0.00000  Uiso   1.00
H45    H     0.09756   0.29938   0.44291   0.00000  Uiso   1.00
H46    H     0.26367   0.18191   0.36083   0.00000  Uiso   1.00
H47    H     0.26180   0.25129   0.34554   0.00000  Uiso   1.00
H48    H     0.26984   0.25232   0.40120   0.00000  Uiso   1.00
H49    H     0.21738   0.25661   0.39386   0.00000  Uiso   1.00
H50    H     0.11641   0.21090   0.04975   0.00000  Uiso   1.00
H51    H     0.07362   0.23850   0.01078   0.00000  Uiso   1.00
H52    H     0.01493   0.19649   0.21374   0.00000  Uiso   1.00
H53    H     0.25782   0.12663   0.07542   0.00000  Uiso   1.00
H54    H     0.30242   0.10010   0.27893   0.00000  Uiso   1.00
H55    H     0.30184   0.10027   0.35673   0.00000  Uiso   1.00
H56    H     0.00262   0.14914   0.35261   0.00000  Uiso   1.00
N57    N     0.31416   0.12683   0.29510   0.00000  Uiso   1.00
N58    N     0.29302   0.13007   0.48863   0.00000  Uiso   1.00
N59    N     0.12186   0.14915   0.07846   0.00000  Uiso   1.00
N60    N     0.08298   0.23592   0.42345   0.00000  Uiso   1.00
N61    N     0.23770   0.19662   0.37867   0.00000  Uiso   1.00
O62    O     0.16667   0.16667   0.25000   0.00000  Uiso   1.00
O63    O     0.15451   0.12637   0.15458   0.00000  Uiso   1.00
O64    O     0.12940   0.20391   0.34968   0.00000  Uiso   1.00
O65    O     0.20824   0.17759   0.14606   0.00000  Uiso   1.00
O66    O     0.17451   0.15880   0.34968   0.00000  Uiso   1.00
O67    O     0.17930   0.08019   0.28213   0.00000  Uiso   1.00
O68    O     0.14632   0.26085   0.27013   0.00000  Uiso   1.00
O69    O     0.07412   0.13291   0.23413   0.00000  Uiso   1.00
O70    O     0.26693   0.19272   0.21360   0.00000  Uiso   1.00
O71    O     0.07071   0.18878   0.28213   0.00000  Uiso   1.00
O72    O     0.25491   0.15226   0.27013   0.00000  Uiso   1.00
O73    O     0.13760   0.06944   0.23413   0.00000  Uiso   1.00
O74    O     0.20345   0.25620   0.21360   0.00000  Uiso   1.00
Zn75   Zn    0.19338   0.13994   0.28734   0.00000  Uiso   1.00
Zn76   Zn    0.13379   0.12458   0.21875   0.00000  Uiso   1.00
Zn77   Zn    0.21056   0.19775   0.20657   0.00000  Uiso   1.00
Zn78   Zn    0.12893   0.20439   0.28733   0.00000  Uiso   1.00
C79    C     0.38647   0.16017   0.25935   0.00000  Uiso   1.00
C80    C     0.49991   0.15242   0.05735   0.00000  Uiso   1.00
C81    C     0.56962   0.13481   0.05731   0.00000  Uiso   1.00
C82    C     0.61405   0.17366   0.24024   0.00000  Uiso   1.00
C83    C     0.47800   0.19766   0.41970   0.00000  Uiso   1.00
C84    C     0.65952   0.17650   0.23784   0.00000  Uiso   1.00
C85    C     0.34103   0.15600   0.26508   0.00000  Uiso   1.00
C86    C     0.51383   0.32252   0.23650   0.00000  Uiso   1.00
C87    C     0.48543   0.01183   0.26418   0.00000  Uiso   1.00
C88    C     0.48954   0.05591   0.26028   0.00000  Uiso   1.00
C89    C     0.50995   0.27794   0.24019   0.00000  Uiso   1.00
C90    C     0.43323   0.22192   0.49148   0.00000  Uiso   1.00
C91    C     0.51873   0.14842   0.12927   0.00000  Uiso   1.00
C92    C     0.48326   0.18625   0.37083   0.00000  Uiso   1.00
C93    C     0.58429   0.13912   0.01131   0.00000  Uiso   1.00
C94    C     0.52823   0.14235   0.08047   0.00000  Uiso   1.00
C95    C     0.44238   0.21797   0.44478   0.00000  Uiso   1.00
C96    C     0.66138   0.11918   0.33389   0.00000  Uiso   1.00
C97    C     0.65914   0.16489   0.48960   0.00000  Uiso   1.00
C98    C     0.43115   0.11092   0.06589   0.00000  Uiso   1.00
C99    C     0.43222   0.27828   0.41192   0.00000  Uiso   1.00
C100   C     0.58041   0.24156   0.38012   0.00000  Uiso   1.00
C101   C     0.45739   0.20467   0.01376   0.00000  Uiso   1.00
C102   C     0.49252   0.18365   0.48995   0.00000  Uiso   1.00
C103   C     0.50667   0.18639   0.44274   0.00000  Uiso   1.00
C104   C     0.51621   0.16351   0.01221   0.00000  Uiso   1.00
C105   C     0.55813   0.15463   0.48868   0.00000  Uiso   1.00
C106   C     0.57412   0.16332   0.44360   0.00000  Uiso   1.00
C107   C     0.54977   0.18039   0.42094   0.00000  Uiso   1.00
H108   H     0.54002   0.00371   0.21102   0.00000  Uiso   1.00
H109   H     0.35641   0.10177   0.32333   0.00000  Uiso   1.00
H110   H     0.45892   0.33143   0.28984   0.00000  Uiso   1.00
H111   H     0.63411   0.10347   0.49845   0.00000  Uiso   1.00
H112   H     0.66218   0.17309   0.02451   0.00000  Uiso   1.00
H113   H     0.65139   0.19247   0.47643   0.00000  Uiso   1.00
H114   H     0.35692   0.15632   0.46822   0.00000  Uiso   1.00
H115   H     0.44667   0.15770   0.11237   0.00000  Uiso   1.00
H116   H     0.39653   0.11219   0.08149   0.00000  Uiso   1.00
H117   H     0.44122   0.08385   0.07775   0.00000  Uiso   1.00
H118   H     0.43608   0.10682   0.02883   0.00000  Uiso   1.00
H119   H     0.60667   0.15861   0.42598   0.00000  Uiso   1.00
H120   H     0.38442   0.23323   0.44043   0.00000  Uiso   1.00
H121   H     0.41214   0.28889   0.39246   0.00000  Uiso   1.00
H122   H     0.46572   0.28014   0.39093   0.00000  Uiso   1.00
H123   H     0.43089   0.29938   0.44291   0.00000  Uiso   1.00
H124   H     0.59700   0.18191   0.36083   0.00000  Uiso   1.00
H125   H     0.59513   0.25129   0.34554   0.00000  Uiso   1.00
H126   H     0.60317   0.25232   0.40120   0.00000  Uiso   1.00
H127   H     0.55071   0.25661   0.39386   0.00000  Uiso   1.00
H128   H     0.44975   0.21090   0.04975   0.00000  Uiso   1.00
H129   H     0.40696   0.23850   0.01078   0.00000  Uiso   1.00
H130   H     0.34826   0.19649   0.21374   0.00000  Uiso   1.00
H131   H     0.59115   0.12663   0.07542   0.00000  Uiso   1.00
H132   H     0.63575   0.10010   0.27893   0.00000  Uiso   1.00
H133   H     0.63517   0.10027   0.35673   0.00000  Uiso   1.00
H134   H     0.33595   0.14914   0.35261   0.00000  Uiso   1.00
N135   N     0.64750   0.12683   0.29510   0.00000  Uiso   1.00
N136   N     0.62636   0.13007   0.48863   0.00000  Uiso   1.00
N137   N     0.45519   0.14915   0.07846   0.00000  Uiso   1.00
N138   N     0.41632   0.23592   0.42345   0.00000  Uiso   1.00
N139   N     0.57103   0.19662   0.37867   0.00000  Uiso   1.00
O140   O     0.50000   0.16667   0.25000   0.00000  Uiso   1.00
O141   O     0.48784   0.12637   0.15458   0.00000  Uiso   1.00
O142   O     0.46274   0.20391   0.34968   0.00000  Uiso   1.00
O143   O     0.54157   0.17759   0.14606   0.00000  Uiso   1.00
O144   O     0.50785   0.15880   0.34968   0.00000  Uiso   1.00
O145   O     0.51264   0.08019   0.28213   0.00000  Uiso   1.00
O146   O     0.47965   0.26085   0.27013   0.00000  Uiso   1.00
O147   O     0.40745   0.13291   0.23413   0.00000  Uiso   1.00
O148   O     0.60026   0.19272   0.21360   0.00000  Uiso   1.00
O149   O     0.40405   0.18878   0.28213   0.00000  Uiso   1.00
O150   O     0.58824   0.15226   0.27013   0.00000  Uiso   1.00
O151   O     0.47093   0.06944   0.23413   0.00000  Uiso   1.00
O152   O     0.53678   0.25620   0.21360   0.00000  Uiso   1.00
Zn153  Zn    0.52672   0.13994   0.28734   0.00000  Uiso   1.00
Zn154  Zn    0.46713   0.12458   0.21875   0.00000  Uiso   1.00
Zn155  Zn    0.54389   0.19775   0.20657   0.00000  Uiso   1.00
Zn156  Zn    0.46226   0.20439   0.28733   0.00000  Uiso   1.00
C157   C     0.71980   0.16017   0.25935   0.00000  Uiso   1.00
C158   C     0.83324   0.15242   0.05735   0.00000  Uiso   1.00
C159   C     0.90295   0.13481   0.05731   0.00000  Uiso   1.00
C160   C     0.94739   0.17366   0.24024   0.00000  Uiso   1.00
C161   C     0.81134   0.19766   0.41970   0.00000  Uiso   1.00
C162   C     0.99285   0.17650   0.23784   0.00000  Uiso   1.00
C163   C     0.67436   0.15600   0.26508   0.00000  Uiso   1.00
C164   C     0.84716   0.32252   0.23650   0.00000  Uiso   1.00
C165   C     0.81876   0.01183   0.26418   0.00000  Uiso   1.00
C166   C     0.82287   0.05591   0.26028   0.00000  Uiso   1.00
C167   C     0.84328   0.27794   0.24019   0.00000  Uiso   1.00
C168   C     0.76656   0.22192   0.49148   0.00000  Uiso   1.00
C169   C     0.85206   0.14842   0.12927   0.00000  Uiso   1.00
C170   C     0.81660   0.18625   0.37083   0.00000  Uiso   1.00
C171   C     0.91762   0.13912   0.01131   0.00000  Uiso   1.00
C172   C     0.86157   0.14235   0.08047   0.00000  Uiso   1.00
C173   C     0.77571   0.21797   0.44478   0.00000  Uiso   1.00
C174   C     0.99472   0.11918   0.33389   0.00000  Uiso   1.00
C175   C     0.99248   0.16489   0.48960   0.00000  Uiso   1.00
C176   C     0.76448   0.11092   0.06589   0.00000  Uiso   1.00
C177   C     0.76555   0.27828   0.41192   0.00000  Uiso   1.00
C178   C     0.91375   0.24156   0.38012   0.00000  Uiso   1.00
C179   C     0.79072   0.20467   0.01376   0.00000  Uiso   1.00
C180   C     0.82586   0.18365   0.48995   0.00000  Uiso   1.00
C181   C     0.84001   0.18639   0.44274   0.00000  Uiso   1.00
C182   C     0.84955   0.16351   0.01221   0.00000  Uiso   1.00
C183   C     0.89146   0.15463   0.48868   0.00000  Uiso   1.00
C184   C     0.90746   0.16332   0.44360   0.00000  Uiso   1.00
C185   C     0.88310   0.18039   0.42094   0.00000  Uiso   1.00
H186   H     0.87335   0.00371   0.21102   0.00000  Uiso   1.00
H187   H     0.68974   0.10177   0.32333   0.00000  Uiso   1.00
H188   H     0.79226   0.33143   0.28984   0.00000  Uiso   1.00
H189   H     0.96744   0.10347   0.49845   0.00000  Uiso   1.00
H190   H     0.99552   0.17309   0.02451   0.00000  Uiso   1.00
H191   H     0.98473   0.19247   0.47643   0.00000  Uiso   1.00
H192   H     0.69026   0.15632   0.46822   0.00000  Uiso   1.00
H193   H     0.78000   0.15770   0.11237   0.00000  Uiso   1.00
H194   H     0.72987   0.11219   0.08149   0.00000  Uiso   1.00
H195   H     0.77455   0.08385   0.07775   0.00000  Uiso   1.00
H196   H     0.76941   0.10682   0.02883   0.00000  Uiso   1.00
H197   H     0.94000   0.15861   0.42598   0.00000  Uiso   1.00
H198   H     0.71775   0.23323   0.44043   0.00000  Uiso   1.00
H199   H     0.74548   0.28889   0.39246   0.00000  Uiso   1.00
H200   H     0.79906   0.28014   0.39093   0.00000  Uiso   1.00
H201   H     0.76422   0.29938   0.44291   0.00000  Uiso   1.00
H202   H     0.93034   0.18191   0.36083   0.00000  Uiso   1.00
H203   H     0.92847   0.25129   0.34554   0.00000  Uiso   1.00
H204   H     0.93650   0.25232   0.40120   0.00000  Uiso   1.00
H205   H     0.88404   0.25661   0.39386   0.00000  Uiso   1.00
H206   H     0.78308   0.21090   0.04975   0.00000  Uiso   1.00
H207   H     0.74029   0.23850   0.01078   0.00000  Uiso   1.00
H208   H     0.68160   0.19649   0.21374   0.00000  Uiso   1.00
H209   H     0.92448   0.12663   0.07542   0.00000  Uiso   1.00
H210   H     0.96908   0.10010   0.27893   0.00000  Uiso   1.00
H211   H     0.96851   0.10027   0.35673   0.00000  Uiso   1.00
H212   H     0.66928   0.14914   0.35261   0.00000  Uiso   1.00
N213   N     0.98083   0.12683   0.29510   0.00000  Uiso   1.00
N214   N     0.95969   0.13007   0.48863   0.00000  Uiso   1.00
N215   N     0.78852   0.14915   0.07846   0.00000  Uiso   1.00
N216   N     0.74965   0.23592   0.42345   0.00000  Uiso   1.00
N217   N     0.90436   0.19662   0.37867   0.00000  Uiso   1.00
O218   O     0.83333   0.16667   0.25000   0.00000  Uiso   1.00
O219   O     0.82118   0.12637   0.15458   0.00000  Uiso   1.00
O220   O     0.79607   0.20391   0.34968   0.00000  Uiso   1.00
O221   O     0.87491   0.17759   0.14606   0.00000  Uiso   1.00
O222   O     0.84118   0.15880   0.34968   0.00000  Uiso   1.00
O223   O     0.84597   0.08019   0.28213   0.00000  Uiso   1.00
O224   O     0.81298   0.26085   0.27013   0.00000  Uiso   1.00
O225   O     0.74078   0.13291   0.23413   0.00000  Uiso   1.00
O226   O     0.93360   0.19272   0.21360   0.00000  Uiso   1.00
O227   O     0.73738   0.18878   0.28213   0.00000  Uiso   1.00
O228   O     0.92158   0.15226   0.27013   0.00000  Uiso   1.00
O229   O     0.80426   0.06944   0.23413   0.00000  Uiso   1.00
O230   O     0.87012   0.25620   0.21360   0.00000  Uiso   1.00
Zn231  Zn    0.86005   0.13994   0.28734   0.00000  Uiso   1.00
Zn232  Zn    0.80046   0.12458   0.21875   0.00000  Uiso   1.00
Zn233  Zn    0.87723   0.19775   0.20657   0.00000  Uiso   1.00
Zn234  Zn    0.79560   0.20439   0.28733   0.00000  Uiso   1.00
C235   C     0.05313   0.49350   0.25935   0.00000  Uiso   1.00
C236   C     0.16657   0.48575   0.05735   0.00000  Uiso   1.00
C237   C     0.23629   0.46815   0.05731   0.00000  Uiso   1.00
C238   C     0.28072   0.50699   0.24024   0.00000  Uiso   1.00
C239   C     0.14467   0.53099   0.41970   0.00000  Uiso   1.00
C240   C     0.32618   0.50984   0.23784   0.00000  Uiso   1.00
C241   C     0.00769   0.48933   0.26508   0.00000  Uiso   1.00
C242   C     0.18049   0.65586   0.23650   0.00000  Uiso   1.00
C243   C     0.15209   0.34516   0.26418   0.00000  Uiso   1.00
C244   C     0.15620   0.38925   0.26028   0.00000  Uiso   1.00
C245   C     0.17661   0.61127   0.24019   0.00000  Uiso   1.00
C246   C     0.09989   0.55525   0.49148   0.00000  Uiso   1.00
C247   C     0.18539   0.48175   0.12927   0.00000  Uiso   1.00
C248   C     0.14993   0.51958   0.37083   0.00000  Uiso   1.00
C249   C     0.25096   0.47246   0.01131   0.00000  Uiso   1.00
C250   C     0.19490   0.47568   0.08047   0.00000  Uiso   1.00
C251   C     0.10904   0.55130   0.44478   0.00000  Uiso   1.00
C252   C     0.32805   0.45252   0.33389   0.00000  Uiso   1.00
C253   C     0.32581   0.49823   0.48960   0.00000  Uiso   1.00
C254   C     0.09782   0.44426   0.06589   0.00000  Uiso   1.00
C255   C     0.09889   0.61161   0.41192   0.00000  Uiso   1.00
C256   C     0.24708   0.57489   0.38012   0.00000  Uiso   1.00
C257   C     0.12406   0.53800   0.01376   0.00000  Uiso   1.00
C258   C     0.15919   0.51698   0.48995   0.00000  Uiso   1.00
C259   C     0.17334   0.51972   0.44274   0.00000  Uiso   1.00
C260   C     0.18288   0.49684   0.01221   0.00000  Uiso   1.00
C261   C     0.22479   0.48797   0.48868   0.00000  Uiso   1.00
C262   C     0.24079   0.49665   0.44360   0.00000  Uiso   1.00
C263   C     0.21644   0.51372   0.42094   0.00000  Uiso   1.00
H264   H     0.20668   0.33705   0.21102   0.00000  Uiso   1.00
H265   H     0.02307   0.43510   0.32333   0.00000  Uiso   1.00
H266   H     0.12559   0.66477   0.28984   0.00000  Uiso   1.00
H267   H     0.30078   0.43680   0.49845   0.00000  Uiso   1.00
H268   H     0.32885   0.50643   0.02451   0.00000  Uiso   1.00
H269   H     0.31806   0.52581   0.47643   0.00000  Uiso   1.00
H270   H     0.02359   0.48965   0.46822   0.00000  Uiso   1.00
H271   H     0.11333   0.49104   0.11237   0.00000  Uiso   1.00
H272   H     0.06320   0.44553   0.08149   0.00000  Uiso   1.00
H273   H     0.10789   0.41718   0.07775   0.00000  Uiso   1.00
H274   H     0.10274   0.44016   0.02883   0.00000  Uiso   1.00
H275   H     0.27333   0.49195   0.42598   0.00000  Uiso   1.00
H276   H     0.05109   0.56656   0.44043   0.00000  Uiso   1.00
H277   H     0.07881   0.62222   0.39246   0.00000  Uiso   1.00
H278   H     0.13239   0.61348   0.39093   0.00000  Uiso   1.00
H279   H     0.09756   0.63271   0.44291   0.00000  Uiso   1.00
H280   H     0.26367   0.51524   0.36083   0.00000  Uiso   1.00
H281   H     0.26180   0.58463   0.34554   0.00000  Uiso   1.00
H282   H     0.26984   0.58565   0.40120   0.00000  Uiso   1.00
H283   H     0.21738   0.58994   0.39386   0.00000  Uiso   1.00
H284   H     0.11641   0.54423   0.04975   0.00000  Uiso   1.00
H285   H     0.07362   0.57183   0.01078   0.00000  Uiso   1.00
H286   H     0.01493   0.52982   0.21374   0.00000  Uiso   1.00
H287   H     0.25782   0.45996   0.07542   0.00000  Uiso   1.00
H288   H     0.30242   0.43343   0.27893   0.00000  Uiso   1.00
H289   H     0.30184   0.43361   0.35673   0.00000  Uiso   1.00
H290   H     0.00262   0.48247   0.35261   0.00000  Uiso   1.00
N291   N     0.31416   0.46016   0.29510   0.00000  Uiso   1.00
N292   N     0.29302   0.46340   0.48863   0.00000  Uiso   1.00
N293   N     0.12186   0.48248   0.07846   0.00000  Uiso   1.00
N294   N     0.08298   0.56925   0.42345   0.00000  Uiso   1.00
N295   N     0.23770   0.52996   0.37867   0.00000  Uiso   1.00
O296   O     0.16667   0.50000   0.25000   0.00000  Uiso   1.00
O297   O     0.15451   0.45970   0.15458   0.00000  Uiso   1.00
O298   O     0.12940   0.53724   0.34968   0.00000  Uiso   1.00
O299   O     0.20824   0.51092   0.14606   0.00000  Uiso   1.00
O300   O     0.17451   0.49213   0.34968   0.00000  Uiso   1.00
O301   O     0.17930   0.41352   0.28213   0.00000  Uiso   1.00
O302   O     0.14632   0.59418   0.27013   0.00000  Uiso   1.00
O303   O     0.07412   0.46625   0.23413   0.00000  Uiso   1.00
O304   O     0.26693   0.52605   0.21360   0.00000  Uiso   1.00
O305   O     0.07071   0.52211   0.28213   0.00000  Uiso   1.00
O306   O     0.25491   0.48559   0.27013   0.00000  Uiso   1.00
O307   O     0.13760   0.40277   0.23413   0.00000  Uiso   1.00
O308   O     0.20345   0.58953   0.21360   0.00000  Uiso   1.00
Zn309  Zn    0.19338   0.47327   0.28734   0.00000  Uiso   1.00
Zn310  Zn    0.13379   0.45791   0.21875   0.00000  Uiso   1.00
Zn311  Zn    0.21056   0.53109   0.20657   0.00000  Uiso   1.00
Zn312  Zn    0.12893   0.53773   0.28733   0.00000  Uiso   1.00
C313   C     0.38647   0.49350   0.25935   0.00000  Uiso   1.00
C314   C     0.49991   0.48575   0.05735   0.00000  Uiso   1.00
C315   C     0.56962   0.46815   0.05731   0.00000  Uiso   1.00
C316   C     0.61405   0.50699   0.24024   0.00000  Uiso   1.00
C317   C     0.47800   0.53099   0.41970   0.00000  Uiso   1.00
C318   C     0.65952   0.50984   0.23784   0.00000  Uiso   1.00
C319   C     0.34103   0.48933   0.26508   0.00000  Uiso   1.00
C320   C     0.51383   0.65586   0.23650   0.00000  Uiso   1.00
C321   C     0.48543   0.34516   0.26418   0.00000  Uiso   1.00
C322   C     0.48954   0.38925   0.26028   0.00000  Uiso   1.00
C323   C     0.50995   0.61127   0.24019   0.00000  Uiso   1.00
C324   C     0.43323   0.55525   0.49148   0.00000  Uiso   1.00
C325   C     0.51873   0.48175   0.12927   0.00000  Uiso   1.00
C326   C     0.48326   0.51958   0.37083   0.00000  Uiso   1.00
C327   C     0.58429   0.47246   0.01131   0.00000  Uiso   1.00
C328   C     0.52823   0.47568   0.08047   0.00000  Uiso   1.00
C329   C     0.44238   0.55130   0.44478   0.00000  Uiso   1.00
C330   C     0.66138   0.45252   0.33389   0.00000  Uiso   1.00
C331   C     0.65914   0.49823   0.48960   0.00000  Uiso   1.00
C332   C     0.43115   0.44426   0.06589   0.00000  Uiso   1.00
C333   C     0.43222   0.61161   0.41192   0.00000  Uiso   1.00
C334   C     0.58041   0.57489   0.38012   0.00000  Uiso   1.00
C335   C     0.45739   0.53800   0.01376   0.00000  Uiso   1.00
C336   C     0.49252   0.51698   0.48995   0.00000  Uiso   1.00
C337   C     0.50667   0.51972   0.44274   0.00000  Uiso   1.00
C338   C     0.51621   0.49684   0.01221   0.00000  Uiso   1.00
C339   C     0.55813   0.48797   0.48868   0.00000  Uiso   1.00
C340   C     0.57412   0.49665   0.44360   0.00000  Uiso   1.00
C341   C     0.54977   0.51372   0.42094   0.00000  Uiso   1.00
H342   H     0.54002   0.33705   0.21102   0.00000  Uiso   1.00
H343   H     0.35641   0.43510   0.32333   0.00000  Uiso   1.00
H344   H     0.45892   0.66477   0.28984   0.00000  Uiso   1.00
H345   H     0.63411   0.43680   0.49845   0.00000  Uiso   1.00
H346   H     0.66218   0.50643   0.02451   0.00000  Uiso   1.00
H347   H     0.65139   0.52581   0.47643   0.00000  Uiso   1.00
H348   H     0.35692   0.48965   0.46822   0.00000  Uiso   1.00
H349   H     0.44667   0.49104   0.11237   0.00000  Uiso   1.00
H350   H     0.39653   0.44553   0.08149   0.00000  Uiso   1.00
H351   H     0.44122   0.41718   0.07775   0.00000  Uiso   1.00
H352   H     0.43608   0.44016   0.02883   0.00000  Uiso   1.00
H353   H     0.60667   0.49195   0.42598   0.00000  Uiso   1.00
H354   H     0.38442   0.56656   0.44043   0.00000  Uiso   1.00
H355   H     0.41214   0.62222   0.39246   0.00000  Uiso   1.00
H356   H     0.46572   0.61348   0.39093   0.00000  Uiso   1.00
H357   H     0.43089   0.63271   0.44291   0.00000  Uiso   1.00
H358   H     0.59700   0.51524   0.36083   0.00000  Uiso   1.00
H359   H     0.59513   0.58463   0.34554   0.00000  Uiso   1.00
H360   H     0.60317   0.58565   0.40120   0.00000  Uiso   1.00
H361   H     0.55071   0.58994   0.39386   0.00000  Uiso   1.00
H362   H     0.44975   0.54423   0.04975   0.00000  Uiso   1.00
H363   H     0.40696   0.57183   0.01078   0.00000  Uiso   1.00
H364   H     0.34826   0.52982   0.21374   0.00000  Uiso   1.00
H365   H     0.59115   0.45996   0.07542   0.00000  Uiso   1.00
H366   H     0.63575   0.43343   0.27893   0.00000  Uiso   1.00
H367   H     0.63517   0.43361   0.35673   0.00000  Uiso   1.00
H368   H     0.33595   0.48247   0.35261   0.00000  Uiso   1.00
N369   N     0.64750   0.46016   0.29510   0.00000  Uiso   1.00
N370   N     0.62636   0.46340   0.48863   0.00000  Uiso   1.00
N371   N     0.45519   0.48248   0.07846   0.00000  Uiso   1.00
N372   N     0.41632   0.56925   0.42345   0.00000  Uiso   1.00
N373   N     0.57103   0.52996   0.37867   0.00000  Uiso   1.00
O374   O     0.50000   0.50000   0.25000   0.00000  Uiso   1.00
O375   O     0.48784   0.45970   0.15458   0.00000  Uiso   1.00
O376   O     0.46274   0.53724   0.34968   0.00000  Uiso   1.00
O377   O     0.54157   0.51092   0.14606   0.00000  Uiso   1.00
O378   O     0.50785   0.49213   0.34968   0.00000  Uiso   1.00
O379   O     0.51264   0.41352   0.28213   0.00000  Uiso   1.00
O380   O     0.47965   0.59418   0.27013   0.00000  Uiso   1.00
O381   O     0.40745   0.46625   0.23413   0.00000  Uiso   1.00
O382   O     0.60026   0.52605   0.21360   0.00000  Uiso   1.00
O383   O     0.40405   0.52211   0.28213   0.00000  Uiso   1.00
O384   O     0.58824   0.48559   0.27013   0.00000  Uiso   1.00
O385   O     0.47093   0.40277   0.23413   0.00000  Uiso   1.00
O386   O     0.53678   0.58953   0.21360   0.00000  Uiso   1.00
Zn387  Zn    0.52672   0.47327   0.28734   0.00000  Uiso   1.00
Zn388  Zn    0.46713   0.45791   0.21875   0.00000  Uiso   1.00
Zn389  Zn    0.54389   0.53109   0.20657   0.00000  Uiso   1.00
Zn390  Zn    0.46226   0.53773   0.28733   0.00000  Uiso   1.00
C391   C     0.71980   0.49350   0.25935   0.00000  Uiso   1.00
C392   C     0.83324   0.48575   0.05735   0.00000  Uiso   1.00
C393   C     0.90295   0.46815   0.05731   0.00000  Uiso   1.00
C394   C     0.94739   0.50699   0.24024   0.00000  Uiso   1.00
C395   C     0.81134   0.53099   0.41970   0.00000  Uiso   1.00
C396   C     0.99285   0.50984   0.23784   0.00000  Uiso   1.00
C397   C     0.67436   0.48933   0.26508   0.00000  Uiso   1.00
C398   C     0.84716   0.65586   0.23650   0.00000  Uiso   1.00
C399   C     0.81876   0.34516   0.26418   0.00000  Uiso   1.00
C400   C     0.82287   0.38925   0.26028   0.00000  Uiso   1.00
C401   C     0.84328   0.61127   0.24019   0.00000  Uiso   1.00
C402   C     0.76656   0.55525   0.49148   0.00000  Uiso   1.00
C403   C     0.85206   0.48175   0.12927   0.00000  Uiso   1.00
C404   C     0.81660   0.51958   0.37083   0.00000  Uiso   1.00
C405   C     0.91762   0.47246   0.01131   0.00000  Uiso   1.00
C406   C     0.86157   0.47568   0.08047   0.00000  Uiso   1.00
C407   C     0.77571   0.55130   0.44478   0.00000  Uiso   1.00
C408   C     0.99472   0.45252   0.33389   0.00000  Uiso   1.00
C409   C     0.99248   0.49823   0.48960   0.00000  Uiso   1.00
C410   C     0.76448   0.44426   0.06589   0.00000  Uiso   1.00
C411   C     0.76555   0.61161   0.41192   0.00000  Uiso   1.00
C412   C     0.91375   0.57489   0.38012   0.00000  Uiso   1.00
C413   C     0.79072   0.53800   0.01376   0.00000  Uiso   1.00
C414   C     0.82586   0.51698   0.48995   0.00000  Uiso   1.00
C415   C     0.84001   0.51972   0.44274   0.00000  Uiso   1.00
C416   C     0.84955   0.49684   0.01221   0.00000  Uiso   1.00
C417   C     0.89146   0.48797   0.48868   0.00000  Uiso   1.00
C418   C     0.90746   0.49665   0.44360   0.00000  Uiso   1.00
C419   C     0.88310   0.51372   0.42094   0.00000  Uiso   1.00
H420   H     0.87335   0.33705   0.21102   0.00000  Uiso   1.00
H421   H     0.68974   0.43510   0.32333   0.00000  Uiso   1.00
H422   H     0.79226   0.66477   0.28984   0.00000  Uiso   1.00
H423   H     0.96744   0.43680   0.49845   0.00000  Uiso   1.00
H424   H     0.99552   0.50643   0.02451   0.00000  Uiso   1.00
H425   H     0.98473   0.52581   0.47643   0.00000  Uiso   1.00
H426   H     0.69026   0.48965   0.46822   0.00000  Uiso   1.00
H427   H     0.78000   0.49104   0.11237   0.00000  Uiso   1.00
H428   H     0.72987   0.44553   0.08149   0.00000  Uiso   1.00
H429   H     0.77455   0.41718   0.07775   0.00000  Uiso   1.00
H430   H     0.76941   0.44016   0.02883   0.00000  Uiso   1.00
H431   H     0.94000   0.49195   0.42598   0.00000  Uiso   1.00
H432   H     0.71775   0.56656   0.44043   0.00000  Uiso   1.00
H433   H     0.74548   0.62222   0.39246   0.00000  Uiso   1.00
H434   H     0.79906   0.61348   0.39093   0.00000  Uiso   1.00
H435   H     0.76422   0.63271   0.44291   0.00000  Uiso   1.00
H436   H     0.93034   0.51524   0.36083   0.00000  Uiso   1.00
H437   H     0.92847   0.58463   0.34554   0.00000  Uiso   1.00
H438   H     0.93650   0.58565   0.40120   0.00000  Uiso   1.00
H439   H     0.88404   0.58994   0.39386   0.00000  Uiso   1.00
H440   H     0.78308   0.54423   0.04975   0.00000  Uiso   1.00
H441   H     0.74029   0.57183   0.01078   0.00000  Uiso   1.00
H442   H     0.68160   0.52982   0.21374   0.00000  Uiso   1.00
H443   H     0.92448   0.45996   0.07542   0.00000  Uiso   1.00
H444   H     0.96908   0.43343   0.27893   0.00000  Uiso   1.00
H445   H     0.96851   0.43361   0.35673   0.00000  Uiso   1.00
H446   H     0.66928   0.48247   0.35261   0.00000  Uiso   1.00
N447   N     0.98083   0.46016   0.29510   0.00000  Uiso   1.00
N448   N     0.95969   0.46340   0.48863   0.00000  Uiso   1.00
N449   N     0.78852   0.48248   0.07846   0.00000  Uiso   1.00
N450   N     0.74965   0.56925   0.42345   0.00000  Uiso   1.00
N451   N     0.90436   0.52996   0.37867   0.00000  Uiso   1.00
O452   O     0.83333   0.50000   0.25000   0.00000  Uiso   1.00
O453   O     0.82118   0.45970   0.15458   0.00000  Uiso   1.00
O454   O     0.79607   0.53724   0.34968   0.00000  Uiso   1.00
O455   O     0.87491   0.51092   0.14606   0.00000  Uiso   1.00
O456   O     0.84118   0.49213   0.34968   0.00000  Uiso   1.00
O457   O     0.84597   0.41352   0.28213   0.00000  Uiso   1.00
O458   O     0.81298   0.59418   0.27013   0.00000  Uiso   1.00
O459   O     0.74078   0.46625   0.23413   0.00000  Uiso   1.00
O460   O     0.93360   0.52605   0.21360   0.00000  Uiso   1.00
O461   O     0.73738   0.52211   0.28213   0.00000  Uiso   1.00
O462   O     0.92158   0.48559   0.27013   0.00000  Uiso   1.00
O463   O     0.80426   0.40277   0.23413   0.00000  Uiso   1.00
O464   O     0.87012   0.58953   0.21360   0.00000  Uiso   1.00
Zn465  Zn    0.86005   0.47327   0.28734   0.00000  Uiso   1.00
Zn466  Zn    0.80046   0.45791   0.21875   0.00000  Uiso   1.00
Zn467  Zn    0.87723   0.53109   0.20657   0.00000  Uiso   1.00
Zn468  Zn    0.79560   0.53773   0.28733   0.00000  Uiso   1.00
C469   C     0.05313   0.82683   0.25935   0.00000  Uiso   1.00
C470   C     0.16657   0.81908   0.05735   0.00000  Uiso   1.00
C471   C     0.23629   0.80148   0.05731   0.00000  Uiso   1.00
C472   C     0.28072   0.84032   0.24024   0.00000  Uiso   1.00
C473   C     0.14467   0.86432   0.41970   0.00000  Uiso   1.00
C474   C     0.32618   0.84317   0.23784   0.00000  Uiso   1.00
C475   C     0.00769   0.82267   0.26508   0.00000  Uiso   1.00
C476   C     0.18049   0.98919   0.23650   0.00000  Uiso   1.00
C477   C     0.15209   0.67849   0.26418   0.00000  Uiso   1.00
C478   C     0.15620   0.72258   0.26028   0.00000  Uiso   1.00
C479   C     0.17661   0.94460   0.24019   0.00000  Uiso   1.00
C480   C     0.09989   0.88859   0.49148   0.00000  Uiso   1.00
C481   C     0.18539   0.81508   0.12927   0.00000  Uiso   1.00
C482   C     0.14993   0.85292   0.37083   0.00000  Uiso   1.00
C483   C     0.25096   0.80579   0.01131   0.00000  Uiso   1.00
C484   C     0.19490   0.80901   0.08047   0.00000  Uiso   1.00
C485   C     0.10904   0.88464   0.44478   0.00000  Uiso   1.00
C486   C     0.32805   0.78585   0.33389   0.00000  Uiso   1.00
C487   C     0.32581   0.83156   0.48960   0.00000  Uiso   1.00
C488   C     0.09782   0.77759   0.06589   0.00000  Uiso   1.00
C489   C     0.09889   0.94494   0.41192   0.00000  Uiso   1.00
C490   C     0.24708   0.90822   0.38012   0.00000  Uiso   1.00
C491   C     0.12406   0.87133   0.01376   0.00000  Uiso   1.00
C492   C     0.15919   0.85031   0.48995   0.00000  Uiso   1.00
C493   C     0.17334   0.85306   0.44274   0.00000  Uiso   1.00
C494   C     0.18288   0.83017   0.01221   0.00000  Uiso   1.00
C495   C     0.22479   0.82130   0.48868   0.00000  Uiso   1.00
C496   C     0.24079   0.82999   0.44360   0.00000  Uiso   1.00
C497   C     0.21644   0.84705   0.42094   0.00000  Uiso   1.00
H498   H     0.20668   0.67038   0.21102   0.00000  Uiso   1.00
H499   H     0.02307   0.76844   0.32333   0.00000  Uiso   1.00
H500   H     0.12559   0.99810   0.28984   0.00000  Uiso   1.00
H501   H     0.30078   0.77014   0.49845   0.00000  Uiso   1.00
H502   H     0.32885   0.83976   0.02451   0.00000  Uiso   1.00
H503   H     0.31806   0.85914   0.47643   0.00000  Uiso   1.00
H504   H     0.02359   0.82299   0.46822   0.00000  Uiso   1.00
H505   H     0.11333   0.82437   0.11237   0.00000  Uiso   1.00
H506   H     0.06320   0.77886   0.08149   0.00000  Uiso   1.00
H507   H     0.10789   0.75051   0.07775   0.00000  Uiso   1.00
H508   H     0.10274   0.77349   0.02883   0.00000  Uiso   1.00
H509   H     0.27333   0.82528   0.42598   0.00000  Uiso   1.00
H510   H     0.05109   0.89990   0.44043   0.00000  Uiso   1.00
H511   H     0.07881   0.95555   0.39246   0.00000  Uiso   1.00
H512   H     0.13239   0.94681   0.39093   0.00000  Uiso   1.00
H513   H     0.09756   0.96605   0.44291   0.00000  Uiso   1.00
H514   H     0.26367   0.84858   0.36083   0.00000  Uiso   1.00
H515   H     0.26180   0.91796   0.34554   0.00000  Uiso   1.00
H516   H     0.26984   0.91898   0.40120   0.00000  Uiso   1.00
H517   H     0.21738   0.92327   0.39386   0.00000  Uiso   1.00
H518   H     0.11641   0.87757   0.04975   0.00000  Uiso   1.00
H519   H     0.07362   0.90516   0.01078   0.00000  Uiso   1.00
H520   H     0.01493   0.86315   0.21374   0.00000  Uiso   1.00
H521   H     0.25782   0.79329   0.07542   0.00000  Uiso   1.00
H522   H     0.30242   0.76677   0.27893   0.00000  Uiso   1.00
H523   H     0.30184   0.76694   0.35673   0.00000  Uiso   1.00
H524   H     0.00262   0.81581   0.35261   0.00000  Uiso   1.00
N525   N     0.31416   0.79349   0.29510   0.00000  Uiso   1.00
N526   N     0.29302   0.79673   0.48863   0.00000  Uiso   1.00
N527   N     0.12186   0.81582   0.07846   0.00000  Uiso   1.00
N528   N     0.08298   0.90258   0.42345   0.00000  Uiso   1.00
N529   N     0.23770   0.86329   0.37867   0.00000  Uiso   1.00
O530   O     0.16667   0.83333   0.25000   0.00000  Uiso   1.00
O531   O     0.15451   0.79304   0.15458   0.00000  Uiso   1.00
O532   O     0.12940   0.87058   0.34968   0.00000  Uiso   1.00
O533   O     0.20824   0.84425   0.14606   0.00000  Uiso   1.00
O534   O     0.17451   0.82546   0.34968   0.00000  Uiso   1.00
O535   O     0.17930   0.74686   0.28213   0.00000  Uiso   1.00
O536   O     0.14632   0.92751   0.27013   0.00000  Uiso   1.00
O537   O     0.07412   0.79958   0.23413   0.00000  Uiso   1.00
O538   O     0.26693   0.85939   0.21360   0.00000  Uiso   1.00
O539   O     0.07071   0.85544   0.28213   0.00000  Uiso   1.00
O540   O     0.25491   0.81892   0.27013   0.00000  Uiso   1.00
O541   O     0.13760   0.73610   0.23413   0.00000  Uiso   1.00
O542   O     0.20345   0.92286   0.21360   0.00000  Uiso   1.00
Zn543  Zn    0.19338   0.80661   0.28734   0.00000  Uiso   1.00
Zn544  Zn    0.13379   0.79124   0.21875   0.00000  Uiso   1.00
Zn545  Zn    0.21056   0.86442   0.20657   0.00000  Uiso   1.00
Zn546  Zn    0.12893   0.87106   0.28733   0.00000  Uiso   1.00
C547   C     0.38647   0.82683   0.25935   0.00000  Uiso   1.00
C548   C     0.49991   0.81908   0.05735   0.00000  Uiso   1.00
C549   C     0.56962   0.80148   0.05731   0.00000  Uiso   1.00
C550   C     0.61405   0.84032   0.24024   0.00000  Uiso   1.00
C551   C     0.47800   0.86432   0.41970   0.00000  Uiso   1.00
C552   C     0.65952   0.84317   0.23784   0.00000  Uiso   1.00
C553   C     0.34103   0.82267   0.26508   0.00000  Uiso   1.00
C554   C     0.51383   0.98919   0.23650   0.00000  Uiso   1.00
C555   C     0.48543   0.67849   0.26418   0.00000  Uiso   1.00
C556   C     0.48954   0.72258   0.26028   0.00000  Uiso   1.00
C557   C     0.50995   0.94460   0.24019   0.00000  Uiso   1.00
C558   C     0.43323   0.88859   0.49148   0.00000  Uiso   1.00
C559   C     0.51873   0.81508   0.12927   0.00000  Uiso   1.00
C560   C     0.48326   0.85292   0.37083   0.00000  Uiso   1.00
C561   C     0.58429   0.80579   0.01131   0.00000  Uiso   1.00
C562   C     0.52823   0.80901   0.08047   0.00000  Uiso   1.00
C563   C     0.44238   0.88464   0.44478   0.00000  Uiso   1.00
C564   C     0.66138   0.78585   0.33389   0.00000  Uiso   1.00
C565   C     0.65914   0.83156   0.48960   0.00000  Uiso   1.00
C566   C     0.43115   0.77759   0.06589   0.00000  Uiso   1.00
C567   C     0.43222   0.94494   0.41192   0.00000  Uiso   1.00
C568   C     0.58041   0.90822   0.38012   0.00000  Uiso   1.00
C569   C     0.45739   0.87133   0.01376   0.00000  Uiso   1.00
C570   C     0.49252   0.85031   0.48995   0.00000  Uiso   1.00
C571   C     0.50667   0.85306   0.44274   0.00000  Uiso   1.00
C572   C     0.51621   0.83017   0.01221   0.00000  Uiso   1.00
C573   C     0.55813   0.82130   0.48868   0.00000  Uiso   1.00
C574   C     0.57412   0.82999   0.44360   0.00000  Uiso   1.00
C575   C     0.54977   0.84705   0.42094   0.00000  Uiso   1.00
H576   H     0.54002   0.67038   0.21102   0.00000  Uiso   1.00
H577   H     0.35641   0.76844   0.32333   0.00000  Uiso   1.00
H578   H     0.45892   0.99810   0.28984   0.00000  Uiso   1.00
H579   H     0.63411   0.77014   0.49845   0.00000  Uiso   1.00
H580   H     0.66218   0.83976   0.02451   0.00000  Uiso   1.00
H581   H     0.65139   0.85914   0.47643   0.00000  Uiso   1.00
H582   H     0.35692   0.82299   0.46822   0.00000  Uiso   1.00
H583   H     0.44667   0.82437   0.11237   0.00000  Uiso   1.00
H584   H     0.39653   0.77886   0.08149   0.00000  Uiso   1.00
H585   H     0.44122   0.75051   0.07775   0.00000  Uiso   1.00
H586   H     0.43608   0.77349   0.02883   0.00000  Uiso   1.00
H587   H     0.60667   0.82528   0.42598   0.00000  Uiso   1.00
H588   H     0.38442   0.89990   0.44043   0.00000  Uiso   1.00
H589   H     0.41214   0.95555   0.39246   0.00000  Uiso   1.00
H590   H     0.46572   0.94681   0.39093   0.00000  Uiso   1.00
H591   H     0.43089   0.96605   0.44291   0.00000  Uiso   1.00
H592   H     0.59700   0.84858   0.36083   0.00000  Uiso   1.00
H593   H     0.59513   0.91796   0.34554   0.00000  Uiso   1.00
H594   H     0.60317   0.91898   0.40120   0.00000  Uiso   1.00
H595   H     0.55071   0.92327   0.39386   0.00000  Uiso   1.00
H596   H     0.44975   0.87757   0.04975   0.00000  Uiso   1.00
H597   H     0.40696   0.90516   0.01078   0.00000  Uiso   1.00
H598   H     0.34826   0.86315   0.21374   0.00000  Uiso   1.00
H599   H     0.59115   0.79329   0.07542   0.00000  Uiso   1.00
H600   H     0.63575   0.76677   0.27893   0.00000  Uiso   1.00
H601   H     0.63517   0.76694   0.35673   0.00000  Uiso   1.00
H602   H     0.33595   0.81581   0.35261   0.00000  Uiso   1.00
N603   N     0.64750   0.79349   0.29510   0.00000  Uiso   1.00
N604   N     0.62636   0.79673   0.48863   0.00000  Uiso   1.00
N605   N     0.45519   0.81582   0.07846   0.00000  Uiso   1.00
N606   N     0.41632   0.90258   0.42345   0.00000  Uiso   1.00
N607   N     0.57103   0.86329   0.37867   0.00000  Uiso   1.00
O608   O     0.50000   0.83333   0.25000   0.00000  Uiso   1.00
O609   O     0.48784   0.79304   0.15458   0.00000  Uiso   1.00
O610   O     0.46274   0.87058   0.34968   0.00000  Uiso   1.00
O611   O     0.54157   0.84425   0.14606   0.00000  Uiso   1.00
O612   O     0.50785   0.82546   0.34968   0.00000  Uiso   1.00
O613   O     0.51264   0.74686   0.28213   0.00000  Uiso   1.00
O614   O     0.47965   0.92751   0.27013   0.00000  Uiso   1.00
O615   O     0.40745   0.79958   0.23413   0.00000  Uiso   1.00
O616   O     0.60026   0.85939   0.21360   0.00000  Uiso   1.00
O617   O     0.40405   0.85544   0.28213   0.00000  Uiso   1.00
O618   O     0.58824   0.81892   0.27013   0.00000  Uiso   1.00
O619   O     0.47093   0.73610   0.23413   0.00000  Uiso   1.00
O620   O     0.53678   0.92286   0.21360   0.00000  Uiso   1.00
Zn621  Zn    0.52672   0.80661   0.28734   0.00000  Uiso   1.00
Zn622  Zn    0.46713   0.79124   0.21875   0.00000  Uiso   1.00
Zn623  Zn    0.54389   0.86442   0.20657   0.00000  Uiso   1.00
Zn624  Zn    0.46226   0.87106   0.28733   0.00000  Uiso   1.00
C625   C     0.71980   0.82683   0.25935   0.00000  Uiso   1.00
C626   C     0.83324   0.81908   0.05735   0.00000  Uiso   1.00
C627   C     0.90295   0.80148   0.05731   0.00000  Uiso   1.00
C628   C     0.94739   0.84032   0.24024   0.00000  Uiso   1.00
C629   C     0.81134   0.86432   0.41970   0.00000  Uiso   1.00
C630   C     0.99285   0.84317   0.23784   0.00000  Uiso   1.00
C631   C     0.67436   0.82267   0.26508   0.00000  Uiso   1.00
C632   C     0.84716   0.98919   0.23650   0.00000  Uiso   1.00
C633   C     0.81876   0.67849   0.26418   0.00000  Uiso   1.00
C634   C     0.82287   0.72258   0.26028   0.00000  Uiso   1.00
C635   C     0.84328   0.94460   0.24019   0.00000  Uiso   1.00
C636   C     0.76656   0.88859   0.49148   0.00000  Uiso   1.00
C637   C     0.85206   0.81508   0.12927   0.00000  Uiso   1.00
C638   C     0.81660   0.85292   0.37083   0.00000  Uiso   1.00
C639   C     0.91762   0.80579   0.01131   0.00000  Uiso   1.00
C640   C     0.86157   0.80901   0.08047   0.00000  Uiso   1.00
C641   C     0.77571   0.88464   0.44478   0.00000  Uiso   1.00
C642   C     0.99472   0.78585   0.33389   0.00000  Uiso   1.00
C643   C     0.99248   0.83156   0.48960   0.00000  Uiso   1.00
C644   C     0.76448   0.77759   0.06589   0.00000  Uiso   1.00
C645   C     0.76555   0.94494   0.41192   0.00000  Uiso   1.00
C646   C     0.91375   0.90822   0.38012   0.00000  Uiso   1.00
C647   C     0.79072   0.87133   0.01376   0.00000  Uiso   1.00
C648   C     0.82586   0.85031   0.48995   0.00000  Uiso   1.00
C649   C     0.84001   0.85306   0.44274   0.00000  Uiso   1.00
C650   C     0.84955   0.83017   0.01221   0.00000  Uiso   1.00
C651   C     0.89146   0.82130   0.48868   0.00000  Uiso   1.00
C652   C     0.90746   0.82999   0.44360   0.00000  Uiso   1.00
C653   C     0.88310   0.84705   0.42094   0.00000  Uiso   1.00
H654   H     0.87335   0.67038   0.21102   0.00000  Uiso   1.00
H655   H     0.68974   0.76844   0.32333   0.00000  Uiso   1.00
H656   H     0.79226   0.99810   0.28984   0.00000  Uiso   1.00
H657   H     0.96744   0.77014   0.49845   0.00000  Uiso   1.00
H658   H     0.99552   0.83976   0.02451   0.00000  Uiso   1.00
H659   H     0.98473   0.85914   0.47643   0.00000  Uiso   1.00
H660   H     0.69026   0.82299   0.46822   0.00000  Uiso   1.00
H661   H     0.78000   0.82437   0.11237   0.00000  Uiso   1.00
H662   H     0.72987   0.77886   0.08149   0.00000  Uiso   1.00
H663   H     0.77455   0.75051   0.07775   0.00000  Uiso   1.00
H664   H     0.76941   0.77349   0.02883   0.00000  Uiso   1.00
H665   H     0.94000   0.82528   0.42598   0.00000  Uiso   1.00
H666   H     0.71775   0.89990   0.44043   0.00000  Uiso   1.00
H667   H     0.74548   0.95555   0.39246   0.00000  Uiso   1.00
H668   H     0.79906   0.94681   0.39093   0.00000  Uiso   1.00
H669   H     0.76422   0.96605   0.44291   0.00000  Uiso   1.00
H670   H     0.93034   0.84858   0.36083   0.00000  Uiso   1.00
H671   H     0.92847   0.91796   0.34554   0.00000  Uiso   1.00
H672   H     0.93650   0.91898   0.40120   0.00000  Uiso   1.00
H673   H     0.88404   0.92327   0.39386   0.00000  Uiso   1.00
H674   H     0.78308   0.87757   0.04975   0.00000  Uiso   1.00
H675   H     0.74029   0.90516   0.01078   0.00000  Uiso   1.00
H676   H     0.68160   0.86315   0.21374   0.00000  Uiso   1.00
H677   H     0.92448   0.79329   0.07542   0.00000  Uiso   1.00
H678   H     0.96908   0.76677   0.27893   0.00000  Uiso   1.00
H679   H     0.96851   0.76694   0.35673   0.00000  Uiso   1.00
H680   H     0.66928   0.81581   0.35261   0.00000  Uiso   1.00
N681   N     0.98083   0.79349   0.29510   0.00000  Uiso   1.00
N682   N     0.95969   0.79673   0.48863   0.00000  Uiso   1.00
N683   N     0.78852   0.81582   0.07846   0.00000  Uiso   1.00
N684   N     0.74965   0.90258   0.42345   0.00000  Uiso   1.00
N685   N     0.90436   0.86329   0.37867   0.00000  Uiso   1.00
O686   O     0.83333   0.83333   0.25000   0.00000  Uiso   1.00
O687   O     0.82118   0.79304   0.15458   0.00000  Uiso   1.00
O688   O     0.79607   0.87058   0.34968   0.00000  Uiso   1.00
O689   O     0.87491   0.84425   0.14606   0.00000  Uiso   1.00
O690   O     0.84118   0.82546   0.34968   0.00000  Uiso   1.00
O691   O     0.84597   0.74686   0.28213   0.00000  Uiso   1.00
O692   O     0.81298   0.92751   0.27013   0.00000  Uiso   1.00
O693   O     0.74078   0.79958   0.23413   0.00000  Uiso   1.00
O694   O     0.93360   0.85939   0.21360   0.00000  Uiso   1.00
O695   O     0.73738   0.85544   0.28213   0.00000  Uiso   1.00
O696   O     0.92158   0.81892   0.27013   0.00000  Uiso   1.00
O697   O     0.80426   0.73610   0.23413   0.00000  Uiso   1.00
O698   O     0.87012   0.92286   0.21360   0.00000  Uiso   1.00
Zn699  Zn    0.86005   0.80661   0.28734   0.00000  Uiso   1.00
Zn700  Zn    0.80046   0.79124   0.21875   0.00000  Uiso   1.00
Zn701  Zn    0.87723   0.86442   0.20657   0.00000  Uiso   1.00
Zn702  Zn    0.79560   0.87106   0.28733   0.00000  Uiso   1.00
C703   C     0.05313   0.16017   0.75935   0.00000  Uiso   1.00
C704   C     0.16657   0.15242   0.55735   0.00000  Uiso   1.00
C705   C     0.23629   0.13481   0.55731   0.00000  Uiso   1.00
C706   C     0.28072   0.17366   0.74024   0.00000  Uiso   1.00
C707   C     0.14467   0.19766   0.91970   0.00000  Uiso   1.00
C708   C     0.32618   0.17650   0.73784   0.00000  Uiso   1.00
C709   C     0.00769   0.15600   0.76508   0.00000  Uiso   1.00
C710   C     0.18049   0.32252   0.73650   0.00000  Uiso   1.00
C711   C     0.15209   0.01183   0.76418   0.00000  Uiso   1.00
C712   C     0.15620   0.05591   0.76028   0.00000  Uiso   1.00
C713   C     0.17661   0.27794   0.74019   0.00000  Uiso   1.00
C714   C     0.09989   0.22192   0.99148   0.00000  Uiso   1.00
C715   C     0.18539   0.14842   0.62927   0.00000  Uiso   1.00
C716   C     0.14993   0.18625   0.87083   0.00000  Uiso   1.00
C717   C     0.25096   0.13912   0.51131   0.00000  Uiso   1.00
C718   C     0.19490   0.14235   0.58047   0.00000  Uiso   1.00
C719   C     0.10904   0.21797   0.94478   0.00000  Uiso   1.00
C720   C     0.32805   0.11918   0.83389   0.00000  Uiso   1.00
C721   C     0.32581   0.16489   0.98960   0.00000  Uiso   1.00
C722   C     0.09782   0.11092   0.56589   0.00000  Uiso   1.00
C723   C     0.09889   0.27828   0.91192   0.00000  Uiso   1.00
C724   C     0.24708   0.24156   0.88012   0.00000  Uiso   1.00
C725   C     0.12406   0.20467   0.51376   0.00000  Uiso   1.00
C726   C     0.15919   0.18365   0.98995   0.00000  Uiso   1.00
C727   C     0.17334   0.18639   0.94274   0.00000  Uiso   1.00
C728   C     0.18288   0.16351   0.51221   0.00000  Uiso   1.00
C729   C     0.22479   0.15463   0.98868   0.00000  Uiso   1.00
C730   C     0.24079   0.16332   0.94360   0.00000  Uiso   1.00
C731   C     0.21644   0.18039   0.92094   0.00000  Uiso   1.00
H732   H     0.20668   0.00371   0.71102   0.00000  Uiso   1.00
H733   H     0.02307   0.10177   0.82333   0.00000  Uiso   1.00
H734   H     0.12559   0.33143   0.78984   0.00000  Uiso   1.00
H735   H     0.30078   0.10347   0.99845   0.00000  Uiso   1.00
H736   H     0.32885   0.17309   0.52451   0.00000  Uiso   1.00
H737   H     0.31806   0.19247   0.97643   0.00000  Uiso   1.00
H738   H     0.02359   0.15632   0.96822   0.00000  Uiso   1.00
H739   H     0.11333   0.15770   0.61237   0.00000  Uiso   1.00
H740   H     0.06320   0.11219   0.58149   0.00000  Uiso   1.00
H741   H     0.10789   0.08385   0.57775   0.00000  Uiso   1.00
H742   H     0.10274   0.10682   0.52883   0.00000  Uiso   1.00
H743   H     0.27333   0.15861   0.92598   0.00000  Uiso   1.00
H744   H     0.05109   0.23323   0.94043   0.00000  Uiso   1.00
H745   H     0.07881   0.28889   0.89246   0.00000  Uiso   1.00
H746   H     0.13239   0.28014   0.89093   0.00000  Uiso   1.00
H747   H     0.09756   0.29938   0.94291   0.00000  Uiso   1.00
H748   H     0.26367   0.18191   0.86083   0.00000  Uiso   1.00
H749   H     0.26180   0.25129   0.84554   0.00000  Uiso   1.00
H750   H     0.26984   0.25232   0.90120   0.00000  Uiso   1.00
H751   H     0.21738   0.25661   0.89386   0.00000  Uiso   1.00
H752   H     0.11641   0.21090   0.54975   0.00000  Uiso   1.00
H753   H     0.07362   0.23850   0.51078   0.00000  Uiso   1.00
H754   H     0.01493   0.19649   0.71374   0.00000  Uiso   1.00
H755   H     0.25782   0.12663   0.57542   0.00000  Uiso   1.00
H756   H     0.30242   0.10010   0.77893   0.00000  Uiso   1.00
H757   H     0.30184   0.10027   0.85673   0.00000  Uiso   1.00
H758   H     0.00262   0.14914   0.85261   0.00000  Uiso   1.00
N759   N     0.31416   0.12683   0.79510   0.00000  Uiso   1.00
N760   N     0.29302   0.13007   0.98863   0.00000  Uiso   1.00
N761   N     0.12186   0.14915   0.57846   0.00000  Uiso   1.00
N762   N     0.08298   0.23592   0.92345   0.00000  Uiso   1.00
N763   N     0.23770   0.19662   0.87867   0.00000  Uiso   1.00
O764   O     0.16667   0.16667   0.75000   0.00000  Uiso   1.00
O765   O     0.15451   0.12637   0.65458   0.00000  Uiso   1.00
O766   O     0.12940   0.20391   0.84968   0.00000  Uiso   1.00
O767   O     0.20824   0.17759   0.64606   0.00000  Uiso   1.00
O768   O     0.17451   0.15880   0.84968   0.00000  Uiso   1.00
O769   O     0.17930   0.08019   0.78213   0.00000  Uiso   1.00
O770   O     0.14632   0.26085   0.77013   0.00000  Uiso   1.00
O771   O     0.07412   0.13291   0.73413   0.00000  Uiso   1.00
O772   O     0.26693   0.19272   0.71360   0.00000  Uiso   1.00
O773   O     0.07071   0.18878   0.78213   0.00000  Uiso   1.00
O774   O     0.25491   0.15226   0.77013   0.00000  Uiso   1.00
O775   O     0.13760   0.06944   0.73413   0.00000  Uiso   1.00
O776   O     0.20345   0.25620   0.71360   0.00000  Uiso   1.00
Zn777  Zn    0.19338   0.13994   0.78734   0.00000  Uiso   1.00
Zn778  Zn    0.13379   0.12458   0.71875   0.00000  Uiso   1.00
Zn779  Zn    0.21056   0.19775   0.70657   0.00000  Uiso   1.00
Zn780  Zn    0.12893   0.20439   0.78733   0.00000  Uiso   1.00
C781   C     0.38647   0.16017   0.75935   0.00000  Uiso   1.00
C782   C     0.49991   0.15242   0.55735   0.00000  Uiso   1.00
C783   C     0.56962   0.13481   0.55731   0.00000  Uiso   1.00
C784   C     0.61405   0.17366   0.74024   0.00000  Uiso   1.00
C785   C     0.47800   0.19766   0.91970   0.00000  Uiso   1.00
C786   C     0.65952   0.17650   0.73784   0.00000  Uiso   1.00
C787   C     0.34103   0.15600   0.76508   0.00000  Uiso   1.00
C788   C     0.51383   0.32252   0.73650   0.00000  Uiso   1.00
C789   C     0.48543   0.01183   0.76418   0.00000  Uiso   1.00
C790   C     0.48954   0.05591   0.76028   0.00000  Uiso   1.00
C791   C     0.50995   0.27794   0.74019   0.00000  Uiso   1.00
C792   C     0.43323   0.22192   0.99148   0.00000  Uiso   1.00
C793   C     0.51873   0.14842   0.62927   0.00000  Uiso   1.00
C794   C     0.48326   0.18625   0.87083   0.00000  Uiso   1.00
C795   C     0.58429   0.13912   0.51131   0.00000  Uiso   1.00
C796   C     0.52823   0.14235   0.58047   0.00000  Uiso   1.00
C797   C     0.44238   0.21797   0.94478   0.00000  Uiso   1.00
C798   C     0.66138   0.11918   0.83389   0.00000  Uiso   1.00
C799   C     0.65914   0.16489   0.98960   0.00000  Uiso   1.00
C800   C     0.43115   0.11092   0.56589   0.00000  Uiso   1.00
C801   C     0.43222   0.27828   0.91192   0.00000  Uiso   1.00
C802   C     0.58041   0.24156   0.88012   0.00000  Uiso   1.00
C803   C     0.45739   0.20467   0.51376   0.00000  Uiso   1.00
C804   C     0.49252   0.18365   0.98995   0.00000  Uiso   1.00
C805   C     0.50667   0.18639   0.94274   0.00000  Uiso   1.00
C806   C     0.51621   0.16351   0.51221   0.00000  Uiso   1.00
C807   C     0.55813   0.15463   0.98868   0.00000  Uiso   1.00
C808   C     0.57412   0.16332   0.94360   0.00000  Uiso   1.00
C809   C     0.54977   0.18039   0.92094   0.00000  Uiso   1.00
H810   H     0.54002   0.00371   0.71102   0.00000  Uiso   1.00
H811   H     0.35641   0.10177   0.82333   0.00000  Uiso   1.00
H812   H     0.45892   0.33143   0.78984   0.00000  Uiso   1.00
H813   H     0.63411   0.10347   0.99845   0.00000  Uiso   1.00
H814   H     0.66218   0.17309   0.52451   0.00000  Uiso   1.00
H815   H     0.65139   0.19247   0.97643   0.00000  Uiso   1.00
H816   H     0.35692   0.15632   0.96822   0.00000  Uiso   1.00
H817   H     0.44667   0.15770   0.61237   0.00000  Uiso   1.00
H818   H     0.39653   0.11219   0.58149   0.00000  Uiso   1.00
H819   H     0.44122   0.08385   0.57775   0.00000  Uiso   1.00
H820   H     0.43608   0.10682   0.52883   0.00000  Uiso   1.00
H821   H     0.60667   0.15861   0.92598   0.00000  Uiso   1.00
H822   H     0.38442   0.23323   0.94043   0.00000  Uiso   1.00
H823   H     0.41214   0.28889   0.89246   0.00000  Uiso   1.00
H824   H     0.46572   0.28014   0.89093   0.00000  Uiso   1.00
H825   H     0.43089   0.29938   0.94291   0.00000  Uiso   1.00
H826   H     0.59700   0.18191   0.86083   0.00000  Uiso   1.00
H827   H     0.59513   0.25129   0.84554   0.00000  Uiso   1.00
H828   H     0.60317   0.25232   0.90120   0.00000  Uiso   1.00
H829   H     0.55071   0.25661   0.89386   0.00000  Uiso   1.00
H830   H     0.44975   0.21090   0.54975   0.00000  Uiso   1.00
H831   H     0.40696   0.23850   0.51078   0.00000  Uiso   1.00
H832   H     0.34826   0.19649   0.71374   0.00000  Uiso   1.00
H833   H     0.59115   0.12663   0.57542   0.00000  Uiso   1.00
H834   H     0.63575   0.10010   0.77893   0.00000  Uiso   1.00
H835   H     0.63517   0.10027   0.85673   0.00000  Uiso   1.00
H836   H     0.33595   0.14914   0.85261   0.00000  Uiso   1.00
N837   N     0.64750   0.12683   0.79510   0.00000  Uiso   1.00
N838   N     0.62636   0.13007   0.98863   0.00000  Uiso   1.00
N839   N     0.45519   0.14915   0.57846   0.00000  Uiso   1.00
N840   N     0.41632   0.23592   0.92345   0.00000  Uiso   1.00
N841   N     0.57103   0.19662   0.87867   0.00000  Uiso   1.00
O842   O     0.50000   0.16667   0.75000   0.00000  Uiso   1.00
O843   O     0.48784   0.12637   0.65458   0.00000  Uiso   1.00
O844   O     0.46274   0.20391   0.84968   0.00000  Uiso   1.00
O845   O     0.54157   0.17759   0.64606   0.00000  Uiso   1.00
O846   O     0.50785   0.15880   0.84968   0.00000  Uiso   1.00
O847   O     0.51264   0.08019   0.78213   0.00000  Uiso   1.00
O848   O     0.47965   0.26085   0.77013   0.00000  Uiso   1.00
O849   O     0.40745   0.13291   0.73413   0.00000  Uiso   1.00
O850   O     0.60026   0.19272   0.71360   0.00000  Uiso   1.00
O851   O     0.40405   0.18878   0.78213   0.00000  Uiso   1.00
O852   O     0.58824   0.15226   0.77013   0.00000  Uiso   1.00
O853   O     0.47093   0.06944   0.73413   0.00000  Uiso   1.00
O854   O     0.53678   0.25620   0.71360   0.00000  Uiso   1.00
Zn855  Zn    0.52672   0.13994   0.78734   0.00000  Uiso   1.00
Zn856  Zn    0.46713   0.12458   0.71875   0.00000  Uiso   1.00
Zn857  Zn    0.54389   0.19775   0.70657   0.00000  Uiso   1.00
Zn858  Zn    0.46226   0.20439   0.78733   0.00000  Uiso   1.00
C859   C     0.71980   0.16017   0.75935   0.00000  Uiso   1.00
C860   C     0.83324   0.15242   0.55735   0.00000  Uiso   1.00
C861   C     0.90295   0.13481   0.55731   0.00000  Uiso   1.00
C862   C     0.94739   0.17366   0.74024   0.00000  Uiso   1.00
C863   C     0.81134   0.19766   0.91970   0.00000  Uiso   1.00
C864   C     0.99285   0.17650   0.73784   0.00000  Uiso   1.00
C865   C     0.67436   0.15600   0.76508   0.00000  Uiso   1.00
C866   C     0.84716   0.32252   0.73650   0.00000  Uiso   1.00
C867   C     0.81876   0.01183   0.76418   0.00000  Uiso   1.00
C868   C     0.82287   0.05591   0.76028   0.00000  Uiso   1.00
C869   C     0.84328   0.27794   0.74019   0.00000  Uiso   1.00
C870   C     0.76656   0.22192   0.99148   0.00000  Uiso   1.00
C871   C     0.85206   0.14842   0.62927   0.00000  Uiso   1.00
C872   C     0.81660   0.18625   0.87083   0.00000  Uiso   1.00
C873   C     0.91762   0.13912   0.51131   0.00000  Uiso   1.00
C874   C     0.86157   0.14235   0.58047   0.00000  Uiso   1.00
C875   C     0.77571   0.21797   0.94478   0.00000  Uiso   1.00
C876   C     0.99472   0.11918   0.83389   0.00000  Uiso   1.00
C877   C     0.99248   0.16489   0.98960   0.00000  Uiso   1.00
C878   C     0.76448   0.11092   0.56589   0.00000  Uiso   1.00
C879   C     0.76555   0.27828   0.91192   0.00000  Uiso   1.00
C880   C     0.91375   0.24156   0.88012   0.00000  Uiso   1.00
C881   C     0.79072   0.20467   0.51376   0.00000  Uiso   1.00
C882   C     0.82586   0.18365   0.98995   0.00000  Uiso   1.00
C883   C     0.84001   0.18639   0.94274   0.00000  Uiso   1.00
C884   C     0.84955   0.16351   0.51221   0.00000  Uiso   1.00
C885   C     0.89146   0.15463   0.98868   0.00000  Uiso   1.00
C886   C     0.90746   0.16332   0.94360   0.00000  Uiso   1.00
C887   C     0.88310   0.18039   0.92094   0.00000  Uiso   1.00
H888   H     0.87335   0.00371   0.71102   0.00000  Uiso   1.00
H889   H     0.68974   0.10177   0.82333   0.00000  Uiso   1.00
H890   H     0.79226   0.33143   0.78984   0.00000  Uiso   1.00
H891   H     0.96744   0.10347   0.99845   0.00000  Uiso   1.00
H892   H     0.99552   0.17309   0.52451   0.00000  Uiso   1.00
H893   H     0.98473   0.19247   0.97643   0.00000  Uiso   1.00
H894   H     0.69026   0.15632   0.96822   0.00000  Uiso   1.00
H895   H     0.78000   0.15770   0.61237   0.00000  Uiso   1.00
H896   H     0.72987   0.11219   0.58149   0.00000  Uiso   1.00
H897   H     0.77455   0.08385   0.57775   0.00000  Uiso   1.00
H898   H     0.76941   0.10682   0.52883   0.00000  Uiso   1.00
H899   H     0.94000   0.15861   0.92598   0.00000  Uiso   1.00
H900   H     0.71775   0.23323   0.94043   0.00000  Uiso   1.00
H901   H     0.74548   0.28889   0.89246   0.00000  Uiso   1.00
H902   H     0.79906   0.28014   0.89093   0.00000  Uiso   1.00
H903   H     0.76422   0.29938   0.94291   0.00000  Uiso   1.00
H904   H     0.93034   0.18191   0.86083   0.00000  Uiso   1.00
H905   H     0.92847   0.25129   0.84554   0.00000  Uiso   1.00
H906   H     0.93650   0.25232   0.90120   0.00000  Uiso   1.00
H907   H     0.88404   0.25661   0.89386   0.00000  Uiso   1.00
H908   H     0.78308   0.21090   0.54975   0.00000  Uiso   1.00
H909   H     0.74029   0.23850   0.51078   0.00000  Uiso   1.00
H910   H     0.68160   0.19649   0.71374   0.00000  Uiso   1.00
H911   H     0.92448   0.12663   0.57542   0.00000  Uiso   1.00
H912   H     0.96908   0.10010   0.77893   0.00000  Uiso   1.00
H913   H     0.96851   0.10027   0.85673   0.00000  Uiso   1.00
H914   H     0.66928   0.14914   0.85261   0.00000  Uiso   1.00
N915   N     0.98083   0.12683   0.79510   0.00000  Uiso   1.00
N916   N     0.95969   0.13007   0.98863   0.00000  Uiso   1.00
N917   N     0.78852   0.14915   0.57846   0.00000  Uiso   1.00
N918   N     0.74965   0.23592   0.92345   0.00000  Uiso   1.00
N919   N     0.90436   0.19662   0.87867   0.00000  Uiso   1.00
O920   O     0.83333   0.16667   0.75000   0.00000  Uiso   1.00
O921   O     0.82118   0.12637   0.65458   0.00000  Uiso   1.00
O922   O     0.79607   0.20391   0.84968   0.00000  Uiso   1.00
O923   O     0.87491   0.17759   0.64606   0.00000  Uiso   1.00
O924   O     0.84118   0.15880   0.84968   0.00000  Uiso   1.00
O925   O     0.84597   0.08019   0.78213   0.00000  Uiso   1.00
O926   O     0.81298   0.26085   0.77013   0.00000  Uiso   1.00
O927   O     0.74078   0.13291   0.73413   0.00000  Uiso   1.00
O928   O     0.93360   0.19272   0.71360   0.00000  Uiso   1.00
O929   O     0.73738   0.18878   0.78213   0.00000  Uiso   1.00
O930   O     0.92158   0.15226   0.77013   0.00000  Uiso   1.00
O931   O     0.80426   0.06944   0.73413   0.00000  Uiso   1.00
O932   O     0.87012   0.25620   0.71360   0.00000  Uiso   1.00
Zn933  Zn    0.86005   0.13994   0.78734   0.00000  Uiso   1.00
Zn934  Zn    0.80046   0.12458   0.71875   0.00000  Uiso   1.00
Zn935  Zn    0.87723   0.19775   0.70657   0.00000  Uiso   1.00
Zn936  Zn    0.79560   0.20439   0.78733   0.00000  Uiso   1.00
C937   C     0.05313   0.49350   0.75935   0.00000  Uiso   1.00
C938   C     0.16657   0.48575   0.55735   0.00000  Uiso   1.00
C939   C     0.23629   0.46815   0.55731   0.00000  Uiso   1.00
C940   C     0.28072   0.50699   0.74024   0.00000  Uiso   1.00
C941   C     0.14467   0.53099   0.91970   0.00000  Uiso   1.00
C942   C     0.32618   0.50984   0.73784   0.00000  Uiso   1.00
C943   C     0.00769   0.48933   0.76508   0.00000  Uiso   1.00
C944   C     0.18049   0.65586   0.73650   0.00000  Uiso   1.00
C945   C     0.15209   0.34516   0.76418   0.00000  Uiso   1.00
C946   C     0.15620   0.38925   0.76028   0.00000  Uiso   1.00
C947   C     0.17661   0.61127   0.74019   0.00000  Uiso   1.00
C948   C     0.09989   0.55525   0.99148   0.00000  Uiso   1.00
C949   C     0.18539   0.48175   0.62927   0.00000  Uiso   1.00
C950   C     0.14993   0.51958   0.87083   0.00000  Uiso   1.00
C951   C     0.25096   0.47246   0.51131   0.00000  Uiso   1.00
C952   C     0.19490   0.47568   0.58047   0.00000  Uiso   1.00
C953   C     0.10904   0.55130   0.94478   0.00000  Uiso   1.00
C954   C     0.32805   0.45252   0.83389   0.00000  Uiso   1.00
C955   C     0.32581   0.49823   0.98960   0.00000  Uiso   1.00
C956   C     0.09782   0.44426   0.56589   0.00000  Uiso   1.00
C957   C     0.09889   0.61161   0.91192   0.00000  Uiso   1.00
C958   C     0.24708   0.57489   0.88012   0.00000  Uiso   1.00
C959   C     0.12406   0.53800   0.51376   0.00000  Uiso   1.00
C960   C     0.15919   0.51698   0.98995   0.00000  Uiso   1.00
C961   C     0.17334   0.51972   0.94274   0.00000  Uiso   1.00
C962   C     0.18288   0.49684   0.51221   0.00000  Uiso   1.00
C963   C     0.22479   0.48797   0.98868   0.00000  Uiso   1.00
C964   C     0.24079   0.49665   0.94360   0.00000  Uiso   1.00
C965   C     0.21644   0.51372   0.92094   0.00000  Uiso   1.00
H966   H     0.20668   0.33705   0.71102   0.00000  Uiso   1.00
H967   H     0.02307   0.43510   0.82333   0.00000  Uiso   1.00
H968   H     0.12559   0.66477   0.78984   0.00000  Uiso   1.00
H969   H     0.30078   0.43680   0.99845   0.00000  Uiso   1.00
H970   H     0.32885   0.50643   0.52451   0.00000  Uiso   1.00
H971   H     0.31806   0.52581   0.97643   0.00000  Uiso   1.00
H972   H     0.02359   0.48965   0.96822   0.00000  Uiso   1.00
H973   H     0.11333   0.49104   0.61237   0.00000  Uiso   1.00
H974   H     0.06320   0.44553   0.58149   0.00000  Uiso   1.00
H975   H     0.10789   0.41718   0.57775   0.00000  Uiso   1.00
H976   H     0.10274   0.44016   0.52883   0.00000  Uiso   1.00
H977   H     0.27333   0.49195   0.92598   0.00000  Uiso   1.00
H978   H     0.05109   0.56656   0.94043   0.00000  Uiso   1.00
H979   H     0.07881   0.62222   0.89246   0.00000  Uiso   1.00
H980   H     0.13239   0.61348   0.89093   0.00000  Uiso   1.00
H981   H     0.09756   0.63271   0.94291   0.00000  Uiso   1.00
H982   H     0.26367   0.51524   0.86083   0.00000  Uiso   1.00
H983   H     0.26180   0.58463   0.84554   0.00000  Uiso   1.00
H984   H     0.26984   0.58565   0.90120   0.00000  Uiso   1.00
H985   H     0.21738   0.58994   0.89386   0.00000  Uiso   1.00
H986   H     0.11641   0.54423   0.54975   0.00000  Uiso   1.00
H987   H     0.07362   0.57183   0.51078   0.00000  Uiso   1.00
H988   H     0.01493   0.52982   0.71374   0.00000  Uiso   1.00
H989   H     0.25782   0.45996   0.57542   0.00000  Uiso   1.00
H990   H     0.30242   0.43343   0.77893   0.00000  Uiso   1.00
H991   H     0.30184   0.43361   0.85673   0.00000  Uiso   1.00
H992   H     0.00262   0.48247   0.85261   0.00000  Uiso   1.00
N993   N     0.31416   0.46016   0.79510   0.00000  Uiso   1.00
N994   N     0.29302   0.46340   0.98863   0.00000  Uiso   1.00
N995   N     0.12186   0.48248   0.57846   0.00000  Uiso   1.00
N996   N     0.08298   0.56925   0.92345   0.00000  Uiso   1.00
N997   N     0.23770   0.52996   0.87867   0.00000  Uiso   1.00
O998   O     0.16667   0.50000   0.75000   0.00000  Uiso   1.00
O999   O     0.15451   0.45970   0.65458   0.00000  Uiso   1.00
O1000  O     0.12940   0.53724   0.84968   0.00000  Uiso   1.00
O1001  O     0.20824   0.51092   0.64606   0.00000  Uiso   1.00
O1002  O     0.17451   0.49213   0.84968   0.00000  Uiso   1.00
O1003  O     0.17930   0.41352   0.78213   0.00000  Uiso   1.00
O1004  O     0.14632   0.59418   0.77013   0.00000  Uiso   1.00
O1005  O     0.07412   0.46625   0.73413   0.00000  Uiso   1.00
O1006  O     0.26693   0.52605   0.71360   0.00000  Uiso   1.00
O1007  O     0.07071   0.52211   0.78213   0.00000  Uiso   1.00
O1008  O     0.25491   0.48559   0.77013   0.00000  Uiso   1.00
O1009  O     0.13760   0.40277   0.73413   0.00000  Uiso   1.00
O1010  O     0.20345   0.58953   0.71360   0.00000  Uiso   1.00
Zn1011 Zn    0.19338   0.47327   0.78734   0.00000  Uiso   1.00
Zn1012 Zn    0.13379   0.45791   0.71875   0.00000  Uiso   1.00
Zn1013 Zn    0.21056   0.53109   0.70657   0.00000  Uiso   1.00
Zn1014 Zn    0.12893   0.53773   0.78733   0.00000  Uiso   1.00
C1015  C     0.38647   0.49350   0.75935   0.00000  Uiso   1.00
C1016  C     0.49991   0.48575   0.55735   0.00000  Uiso   1.00
C1017  C     0.56962   0.46815   0.55731   0.00000  Uiso   1.00
C1018  C     0.61405   0.50699   0.74024   0.00000  Uiso   1.00
C1019  C     0.47800   0.53099   0.91970   0.00000  Uiso   1.00
C1020  C     0.65952   0.50984   0.73784   0.00000  Uiso   1.00
C1021  C     0.34103   0.48933   0.76508   0.00000  Uiso   1.00
C1022  C     0.51383   0.65586   0.73650   0.00000  Uiso   1.00
C1023  C     0.48543   0.34516   0.76418   0.00000  Uiso   1.00
C1024  C     0.48954   0.38925   0.76028   0.00000  Uiso   1.00
C1025  C     0.50995   0.61127   0.74019   0.00000  Uiso   1.00
C1026  C     0.43323   0.55525   0.99148   0.00000  Uiso   1.00
C1027  C     0.51873   0.48175   0.62927   0.00000  Uiso   1.00
C1028  C     0.48326   0.51958   0.87083   0.00000  Uiso   1.00
C1029  C     0.58429   0.47246   0.51131   0.00000  Uiso   1.00
C1030  C     0.52823   0.47568   0.58047   0.00000  Uiso   1.00
C1031  C     0.44238   0.55130   0.94478   0.00000  Uiso   1.00
C1032  C     0.66138   0.45252   0.83389   0.00000  Uiso   1.00
C1033  C     0.65914   0.49823   0.98960   0.00000  Uiso   1.00
C1034  C     0.43115   0.44426   0.56589   0.00000  Uiso   1.00
C1035  C     0.43222   0.61161   0.91192   0.00000  Uiso   1.00
C1036  C     0.58041   0.57489   0.88012   0.00000  Uiso   1.00
C1037  C     0.45739   0.53800   0.51376   0.00000  Uiso   1.00
C1038  C     0.49252   0.51698   0.98995   0.00000  Uiso   1.00
C1039  C     0.50667   0.51972   0.94274   0.00000  Uiso   1.00
C1040  C     0.51621   0.49684   0.51221   0.00000  Uiso   1.00
C1041  C     0.55813   0.48797   0.98868   0.00000  Uiso   1.00
C1042  C     0.57412   0.49665   0.94360   0.00000  Uiso   1.00
C1043  C     0.54977   0.51372   0.92094   0.00000  Uiso   1.00
H1044  H     0.54002   0.33705   0.71102   0.00000  Uiso   1.00
H1045  H     0.35641   0.43510   0.82333   0.00000  Uiso   1.00
H1046  H     0.45892   0.66477   0.78984   0.00000  Uiso   1.00
H1047  H     0.63411   0.43680   0.99845   0.00000  Uiso   1.00
H1048  H     0.66218   0.50643   0.52451   0.00000  Uiso   1.00
H1049  H     0.65139   0.52581   0.97643   0.00000  Uiso   1.00
H1050  H     0.35692   0.48965   0.96822   0.00000  Uiso   1.00
H1051  H     0.44667   0.49104   0.61237   0.00000  Uiso   1.00
H1052  H     0.39653   0.44553   0.58149   0.00000  Uiso   1.00
H1053  H     0.44122   0.41718   0.57775   0.00000  Uiso   1.00
H1054  H     0.43608   0.44016   0.52883   0.00000  Uiso   1.00
H1055  H     0.60667   0.49195   0.92598   0.00000  Uiso   1.00
H1056  H     0.38442   0.56656   0.94043   0.00000  Uiso   1.00
H1057  H     0.41214   0.62222   0.89246   0.00000  Uiso   1.00
H1058  H     0.46572   0.61348   0.89093   0.00000  Uiso   1.00
H1059  H     0.43089   0.63271   0.94291   0.00000  Uiso   1.00
H1060  H     0.59700   0.51524   0.86083   0.00000  Uiso   1.00
H1061  H     0.59513   0.58463   0.84554   0.00000  Uiso   1.00
H1062  H     0.60317   0.58565   0.90120   0.00000  Uiso   1.00
H1063  H     0.55071   0.58994   0.89386   0.00000  Uiso   1.00
H1064  H     0.44975   0.54423   0.54975   0.00000  Uiso   1.00
H1065  H     0.40696   0.57183   0.51078   0.00000  Uiso   1.00
H1066  H     0.34826   0.52982   0.71374   0.00000  Uiso   1.00
H1067  H     0.59115   0.45996   0.57542   0.00000  Uiso   1.00
H1068  H     0.63575   0.43343   0.77893   0.00000  Uiso   1.00
H1069  H     0.63517   0.43361   0.85673   0.00000  Uiso   1.00
H1070  H     0.33595   0.48247   0.85261   0.00000  Uiso   1.00
N1071  N     0.64750   0.46016   0.79510   0.00000  Uiso   1.00
N1072  N     0.62636   0.46340   0.98863   0.00000  Uiso   1.00
N1073  N     0.45519   0.48248   0.57846   0.00000  Uiso   1.00
N1074  N     0.41632   0.56925   0.92345   0.00000  Uiso   1.00
N1075  N     0.57103   0.52996   0.87867   0.00000  Uiso   1.00
O1076  O     0.50000   0.50000   0.75000   0.00000  Uiso   1.00
O1077  O     0.48784   0.45970   0.65458   0.00000  Uiso   1.00
O1078  O     0.46274   0.53724   0.84968   0.00000  Uiso   1.00
O1079  O     0.54157   0.51092   0.64606   0.00000  Uiso   1.00
O1080  O     0.50785   0.49213   0.84968   0.00000  Uiso   1.00
O1081  O     0.51264   0.41352   0.78213   0.00000  Uiso   1.00
O1082  O     0.47965   0.59418   0.77013   0.00000  Uiso   1.00
O1083  O     0.40745   0.46625   0.73413   0.00000  Uiso   1.00
O1084  O     0.60026   0.52605   0.71360   0.00000  Uiso   1.00
O1085  O     0.40405   0.52211   0.78213   0.00000  Uiso   1.00
O1086  O     0.58824   0.48559   0.77013   0.00000  Uiso   1.00
O1087  O     0.47093   0.40277   0.73413   0.00000  Uiso   1.00
O1088  O     0.53678   0.58953   0.71360   0.00000  Uiso   1.00
Zn1089 Zn    0.52672   0.47327   0.78734   0.00000  Uiso   1.00
Zn1090 Zn    0.46713   0.45791   0.71875   0.00000  Uiso   1.00
Zn1091 Zn    0.54389   0.53109   0.70657   0.00000  Uiso   1.00
Zn1092 Zn    0.46226   0.53773   0.78733   0.00000  Uiso   1.00
C1093  C     0.71980   0.49350   0.75935   0.00000  Uiso   1.00
C1094  C     0.83324   0.48575   0.55735   0.00000  Uiso   1.00
C1095  C     0.90295   0.46815   0.55731   0.00000  Uiso   1.00
C1096  C     0.94739   0.50699   0.74024   0.00000  Uiso   1.00
C1097  C     0.81134   0.53099   0.91970   0.00000  Uiso   1.00
C1098  C     0.99285   0.50984   0.73784   0.00000  Uiso   1.00
C1099  C     0.67436   0.48933   0.76508   0.00000  Uiso   1.00
C1100  C     0.84716   0.65586   0.73650   0.00000  Uiso   1.00
C1101  C     0.81876   0.34516   0.76418   0.00000  Uiso   1.00
C1102  C     0.82287   0.38925   0.76028   0.00000  Uiso   1.00
C1103  C     0.84328   0.61127   0.74019   0.00000  Uiso   1.00
C1104  C     0.76656   0.55525   0.99148   0.00000  Uiso   1.00
C1105  C     0.85206   0.48175   0.62927   0.00000  Uiso   1.00
C1106  C     0.81660   0.51958   0.87083   0.00000  Uiso   1.00
C1107  C     0.91762   0.47246   0.51131   0.00000  Uiso   1.00
C1108  C     0.86157   0.47568   0.58047   0.00000  Uiso   1.00
C1109  C     0.77571   0.55130   0.94478   0.00000  Uiso   1.00
C1110  C     0.99472   0.45252   0.83389   0.00000  Uiso   1.00
C1111  C     0.99248   0.49823   0.98960   0.00000  Uiso   1.00
C1112  C     0.76448   0.44426   0.56589   0.00000  Uiso   1.00
C1113  C     0.76555   0.61161   0.91192   0.00000  Uiso   1.00
C1114  C     0.91375   0.57489   0.88012   0.00000  Uiso   1.00
C1115  C     0.79072   0.53800   0.51376   0.00000  Uiso   1.00
C1116  C     0.82586   0.51698   0.98995   0.00000  Uiso   1.00
C1117  C     0.84001   0.51972   0.94274   0.00000  Uiso   1.00
C1118  C     0.84955   0.49684   0.51221   0.00000  Uiso   1.00
C1119  C     0.89146   0.48797   0.98868   0.00000  Uiso   1.00
C1120  C     0.90746   0.49665   0.94360   0.00000  Uiso   1.00
C1121  C     0.88310   0.51372   0.92094   0.00000  Uiso   1.00
H1122  H     0.87335   0.33705   0.71102   0.00000  Uiso   1.00
H1123  H     0.68974   0.43510   0.82333   0.00000  Uiso   1.00
H1124  H     0.79226   0.66477   0.78984   0.00000  Uiso   1.00
H1125  H     0.96744   0.43680   0.99845   0.00000  Uiso   1.00
H1126  H     0.99552   0.50643   0.52451   0.00000  Uiso   1.00
H1127  H     0.98473   0.52581   0.97643   0.00000  Uiso   1.00
H1128  H     0.69026   0.48965   0.96822   0.00000  Uiso   1.00
H1129  H     0.78000   0.49104   0.61237   0.00000  Uiso   1.00
H1130  H     0.72987   0.44553   0.58149   0.00000  Uiso   1.00
H1131  H     0.77455   0.41718   0.57775   0.00000  Uiso   1.00
H1132  H     0.76941   0.44016   0.52883   0.00000  Uiso   1.00
H1133  H     0.94000   0.49195   0.92598   0.00000  Uiso   1.00
H1134  H     0.71775   0.56656   0.94043   0.00000  Uiso   1.00
H1135  H     0.74548   0.62222   0.89246   0.00000  Uiso   1.00
H1136  H     0.79906   0.61348   0.89093   0.00000  Uiso   1.00
H1137  H     0.76422   0.63271   0.94291   0.00000  Uiso   1.00
H1138  H     0.93034   0.51524   0.86083   0.00000  Uiso   1.00
H1139  H     0.92847   0.58463   0.84554   0.00000  Uiso   1.00
H1140  H     0.93650   0.58565   0.90120   0.00000  Uiso   1.00
H1141  H     0.88404   0.58994   0.89386   0.00000  Uiso   1.00
H1142  H     0.78308   0.54423   0.54975   0.00000  Uiso   1.00
H1143  H     0.74029   0.57183   0.51078   0.00000  Uiso   1.00
H1144  H     0.68160   0.52982   0.71374   0.00000  Uiso   1.00
H1145  H     0.92448   0.45996   0.57542   0.00000  Uiso   1.00
H1146  H     0.96908   0.43343   0.77893   0.00000  Uiso   1.00
H1147  H     0.96851   0.43361   0.85673   0.00000  Uiso   1.00
H1148  H     0.66928   0.48247   0.85261   0.00000  Uiso   1.00
N1149  N     0.98083   0.46016   0.79510   0.00000  Uiso   1.00
N1150  N     0.95969   0.46340   0.98863   0.00000  Uiso   1.00
N1151  N     0.78852   0.48248   0.57846   0.00000  Uiso   1.00
N1152  N     0.74965   0.56925   0.92345   0.00000  Uiso   1.00
N1153  N     0.90436   0.52996   0.87867   0.00000  Uiso   1.00
O1154  O     0.83333   0.50000   0.75000   0.00000  Uiso   1.00
O1155  O     0.82118   0.45970   0.65458   0.00000  Uiso   1.00
O1156  O     0.79607   0.53724   0.84968   0.00000  Uiso   1.00
O1157  O     0.87491   0.51092   0.64606   0.00000  Uiso   1.00
O1158  O     0.84118   0.49213   0.84968   0.00000  Uiso   1.00
O1159  O     0.84597   0.41352   0.78213   0.00000  Uiso   1.00
O1160  O     0.81298   0.59418   0.77013   0.00000  Uiso   1.00
O1161  O     0.74078   0.46625   0.73413   0.00000  Uiso   1.00
O1162  O     0.93360   0.52605   0.71360   0.00000  Uiso   1.00
O1163  O     0.73738   0.52211   0.78213   0.00000  Uiso   1.00
O1164  O     0.92158   0.48559   0.77013   0.00000  Uiso   1.00
O1165  O     0.80426   0.40277   0.73413   0.00000  Uiso   1.00
O1166  O     0.87012   0.58953   0.71360   0.00000  Uiso   1.00
Zn1167 Zn    0.86005   0.47327   0.78734   0.00000  Uiso   1.00
Zn1168 Zn    0.80046   0.45791   0.71875   0.00000  Uiso   1.00
Zn1169 Zn    0.87723   0.53109   0.70657   0.00000  Uiso   1.00
Zn1170 Zn    0.79560   0.53773   0.78733   0.00000  Uiso   1.00
C1171  C     0.05313   0.82683   0.75935   0.00000  Uiso   1.00
C1172  C     0.16657   0.81908   0.55735   0.00000  Uiso   1.00
C1173  C     0.23629   0.80148   0.55731   0.00000  Uiso   1.00
C1174  C     0.28072   0.84032   0.74024   0.00000  Uiso   1.00
C1175  C     0.14467   0.86432   0.91970   0.00000  Uiso   1.00
C1176  C     0.32618   0.84317   0.73784   0.00000  Uiso   1.00
C1177  C     0.00769   0.82267   0.76508   0.00000  Uiso   1.00
C1178  C     0.18049   0.98919   0.73650   0.00000  Uiso   1.00
C1179  C     0.15209   0.67849   0.76418   0.00000  Uiso   1.00
C1180  C     0.15620   0.72258   0.76028   0.00000  Uiso   1.00
C1181  C     0.17661   0.94460   0.74019   0.00000  Uiso   1.00
C1182  C     0.09989   0.88859   0.99148   0.00000  Uiso   1.00
C1183  C     0.18539   0.81508   0.62927   0.00000  Uiso   1.00
C1184  C     0.14993   0.85292   0.87083   0.00000  Uiso   1.00
C1185  C     0.25096   0.80579   0.51131   0.00000  Uiso   1.00
C1186  C     0.19490   0.80901   0.58047   0.00000  Uiso   1.00
C1187  C     0.10904   0.88464   0.94478   0.00000  Uiso   1.00
C1188  C     0.32805   0.78585   0.83389   0.00000  Uiso   1.00
C1189  C     0.32581   0.83156   0.98960   0.00000  Uiso   1.00
C1190  C     0.09782   0.77759   0.56589   0.00000  Uiso   1.00
C1191  C     0.09889   0.94494   0.91192   0.00000  Uiso   1.00
C1192  C     0.24708   0.90822   0.88012   0.00000  Uiso   1.00
C1193  C     0.12406   0.87133   0.51376   0.00000  Uiso   1.00
C1194  C     0.15919   0.85031   0.98995   0.00000  Uiso   1.00
C1195  C     0.17334   0.85306   0.94274   0.00000  Uiso   1.00
C1196  C     0.18288   0.83017   0.51221   0.00000  Uiso   1.00
C1197  C     0.22479   0.82130   0.98868   0.00000  Uiso   1.00
C1198  C     0.24079   0.82999   0.94360   0.00000  Uiso   1.00
C1199  C     0.21644   0.84705   0.92094   0.00000  Uiso   1.00
H1200  H     0.20668   0.67038   0.71102   0.00000  Uiso   1.00
H1201  H     0.02307   0.76844   0.82333   0.00000  Uiso   1.00
H1202  H     0.12559   0.99810   0.78984   0.00000  Uiso   1.00
H1203  H     0.30078   0.77014   0.99845   0.00000  Uiso   1.00
H1204  H     0.32885   0.83976   0.52451   0.00000  Uiso   1.00
H1205  H     0.31806   0.85914   0.97643   0.00000  Uiso   1.00
H1206  H     0.02359   0.82299   0.96822   0.00000  Uiso   1.00
H1207  H     0.11333   0.82437   0.61237   0.00000  Uiso   1.00
H1208  H     0.06320   0.77886   0.58149   0.00000  Uiso   1.00
H1209  H     0.10789   0.75051   0.57775   0.00000  Uiso   1.00
H1210  H     0.10274   0.77349   0.52883   0.00000  Uiso   1.00
H1211  H     0.27333   0.82528   0.92598   0.00000  Uiso   1.00
H1212  H     0.05109   0.89990   0.94043   0.00000  Uiso   1.00
H1213  H     0.07881   0.95555   0.89246   0.00000  Uiso   1.00
H1214  H     0.13239   0.94681   0.89093   0.00000  Uiso   1.00
H1215  H     0.09756   0.96605   0.94291   0.00000  Uiso   1.00
H1216  H     0.26367   0.84858   0.86083   0.00000  Uiso   1.00
H1217  H     0.26180   0.91796   0.84554   0.00000  Uiso   1.00
H1218  H     0.26984   0.91898   0.90120   0.00000  Uiso   1.00
H1219  H     0.21738   0.92327   0.89386   0.00000  Uiso   1.00
H1220  H     0.11641   0.87757   0.54975   0.00000  Uiso   1.00
H1221  H     0.07362   0.90516   0.51078   0.00000  Uiso   1.00
H1222  H     0.01493   0.86315   0.71374   0.00000  Uiso   1.00
H1223  H     0.25782   0.79329   0.57542   0.00000  Uiso   1.00
H1224  H     0.30242   0.76677   0.77893   0.00000  Uiso   1.00
H1225  H     0.30184   0.76694   0.85673   0.00000  Uiso   1.00
H1226  H     0.00262   0.81581   0.85261   0.00000  Uiso   1.00
N1227  N     0.31416   0.79349   0.79510   0.00000  Uiso   1.00
N1228  N     0.29302   0.79673   0.98863   0.00000  Uiso   1.00
N1229  N     0.12186   0.81582   0.57846   0.00000  Uiso   1.00
N1230  N     0.08298   0.90258   0.92345   0.00000  Uiso   1.00
N1231  N     0.23770   0.86329   0.87867   0.00000  Uiso   1.00
O1232  O     0.16667   0.83333   0.75000   0.00000  Uiso   1.00
O1233  O     0.15451   0.79304   0.65458   0.00000  Uiso   1.00
O1234  O     0.12940   0.87058   0.84968   0.00000  Uiso   1.00
O1235  O     0.20824   0.84425   0.64606   0.00000  Uiso   1.00
O1236  O     0.17451   0.82546   0.84968   0.00000  Uiso   1.00
O1237  O     0.17930   0.74686   0.78213   0.00000  Uiso   1.00
O1238  O     0.14632   0.92751   0.77013   0.00000  Uiso   1.00
O1239  O     0.07412   0.79958   0.73413   0.00000  Uiso   1.00
O1240  O     0.26693   0.85939   0.71360   0.00000  Uiso   1.00
O1241  O     0.07071   0.85544   0.78213   0.00000  Uiso   1.00
O1242  O     0.25491   0.81892   0.77013   0.00000  Uiso   1.00
O1243  O     0.13760   0.73610   0.73413   0.00000  Uiso   1.00
O1244  O     0.20345   0.92286   0.71360   0.00000  Uiso   1.00
Zn1245 Zn    0.19338   0.80661   0.78734   0.00000  Uiso   1.00
Zn1246 Zn    0.13379   0.79124   0.71875   0.00000  Uiso   1.00
Zn1247 Zn    0.21056   0.86442   0.70657   0.00000  Uiso   1.00
Zn1248 Zn    0.12893   0.87106   0.78733   0.00000  Uiso   1.00
C1249  C     0.38647   0.82683   0.75935   0.00000  Uiso   1.00
C1250  C     0.49991   0.81908   0.55735   0.00000  Uiso   1.00
C1251  C     0.56962   0.80148   0.55731   0.00000  Uiso   1.00
C1252  C     0.61405   0.84032   0.74024   0.00000  Uiso   1.00
C1253  C     0.47800   0.86432   0.91970   0.00000  Uiso   1.00
C1254  C     0.65952   0.84317   0.73784   0.00000  Uiso   1.00
C1255  C     0.34103   0.82267   0.76508   0.00000  Uiso   1.00
C1256  C     0.51383   0.98919   0.73650   0.00000  Uiso   1.00
C1257  C     0.48543   0.67849   0.76418   0.00000  Uiso   1.00
C1258  C     0.48954   0.72258   0.76028   0.00000  Uiso   1.00
C1259  C     0.50995   0.94460   0.74019   0.00000  Uiso   1.00
C1260  C     0.43323   0.88859   0.99148   0.00000  Uiso   1.00
C1261  C     0.51873   0.81508   0.62927   0.00000  Uiso   1.00
C1262  C     0.48326   0.85292   0.87083   0.00000  Uiso   1.00
C1263  C     0.58429   0.80579   0.51131   0.00000  Uiso   1.00
C1264  C     0.52823   0.80901   0.58047   0.00000  Uiso   1.00
C1265  C     0.44238   0.88464   0.94478   0.00000  Uiso   1.00
C1266  C     0.66138   0.78585   0.83389   0.00000  Uiso   1.00
C1267  C     0.65914   0.83156   0.98960   0.00000  Uiso   1.00
C1268  C     0.43115   0.77759   0.56589   0.00000  Uiso   1.00
C1269  C     0.43222   0.94494   0.91192   0.00000  Uiso   1.00
C1270  C     0.58041   0.90822   0.88012   0.00000  Uiso   1.00
C1271  C     0.45739   0.87133   0.51376   0.00000  Uiso   1.00
C1272  C     0.49252   0.85031   0.98995   0.00000  Uiso   1.00
C1273  C     0.50667   0.85306   0.94274   0.00000  Uiso   1.00
C1274  C     0.51621   0.83017   0.51221   0.00000  Uiso   1.00
C1275  C     0.55813   0.82130   0.98868   0.00000  Uiso   1.00
C1276  C     0.57412   0.82999   0.94360   0.00000  Uiso   1.00
C1277  C     0.54977   0.84705   0.92094   0.00000  Uiso   1.00
H1278  H     0.54002   0.67038   0.71102   0.00000  Uiso   1.00
H1279  H     0.35641   0.76844   0.82333   0.00000  Uiso   1.00
H1280  H     0.45892   0.99810   0.78984   0.00000  Uiso   1.00
H1281  H     0.63411   0.77014   0.99845   0.00000  Uiso   1.00
H1282  H     0.66218   0.83976   0.52451   0.00000  Uiso   1.00
H1283  H     0.65139   0.85914   0.97643   0.00000  Uiso   1.00
H1284  H     0.35692   0.82299   0.96822   0.00000  Uiso   1.00
H1285  H     0.44667   0.82437   0.61237   0.00000  Uiso   1.00
H1286  H     0.39653   0.77886   0.58149   0.00000  Uiso   1.00
H1287  H     0.44122   0.75051   0.57775   0.00000  Uiso   1.00
H1288  H     0.43608   0.77349   0.52883   0.00000  Uiso   1.00
H1289  H     0.60667   0.82528   0.92598   0.00000  Uiso   1.00
H1290  H     0.38442   0.89990   0.94043   0.00000  Uiso   1.00
H1291  H     0.41214   0.95555   0.89246   0.00000  Uiso   1.00
H1292  H     0.46572   0.94681   0.89093   0.00000  Uiso   1.00
H1293  H     0.43089   0.96605   0.94291   0.00000  Uiso   1.00
H1294  H     0.59700   0.84858   0.86083   0.00000  Uiso   1.00
H1295  H     0.59513   0.91796   0.84554   0.00000  Uiso   1.00
H1296  H     0.60317   0.91898   0.90120   0.00000  Uiso   1.00
H1297  H     0.55071   0.92327   0.89386   0.00000  Uiso   1.00
H1298  H     0.44975   0.87757   0.54975   0.00000  Uiso   1.00
H1299  H     0.40696   0.90516   0.51078   0.00000  Uiso   1.00
H1300  H     0.34826   0.86315   0.71374   0.00000  Uiso   1.00
H1301  H     0.59115   0.79329   0.57542   0.00000  Uiso   1.00
H1302  H     0.63575   0.76677   0.77893   0.00000  Uiso   1.00
H1303  H     0.63517   0.76694   0.85673   0.00000  Uiso   1.00
H1304  H     0.33595   0.81581   0.85261   0.00000  Uiso   1.00
N1305  N     0.64750   0.79349   0.79510   0.00000  Uiso   1.00
N1306  N     0.62636   0.79673   0.98863   0.00000  Uiso   1.00
N1307  N     0.45519   0.81582   0.57846   0.00000  Uiso   1.00
N1308  N     0.41632   0.90258   0.92345   0.00000  Uiso   1.00
N1309  N     0.57103   0.86329   0.87867   0.00000  Uiso   1.00
O1310  O     0.50000   0.83333   0.75000   0.00000  Uiso   1.00
O1311  O     0.48784   0.79304   0.65458   0.00000  Uiso   1.00
O1312  O     0.46274   0.87058   0.84968   0.00000  Uiso   1.00
O1313  O     0.54157   0.84425   0.64606   0.00000  Uiso   1.00
O1314  O     0.50785   0.82546   0.84968   0.00000  Uiso   1.00
O1315  O     0.51264   0.74686   0.78213   0.00000  Uiso   1.00
O1316  O     0.47965   0.92751   0.77013   0.00000  Uiso   1.00
O1317  O     0.40745   0.79958   0.73413   0.00000  Uiso   1.00
O1318  O     0.60026   0.85939   0.71360   0.00000  Uiso   1.00
O1319  O     0.40405   0.85544   0.78213   0.00000  Uiso   1.00
O1320  O     0.58824   0.81892   0.77013   0.00000  Uiso   1.00
O1321  O     0.47093   0.73610   0.73413   0.00000  Uiso   1.00
O1322  O     0.53678   0.92286   0.71360   0.00000  Uiso   1.00
Zn1323 Zn    0.52672   0.80661   0.78734   0.00000  Uiso   1.00
Zn1324 Zn    0.46713   0.79124   0.71875   0.00000  Uiso   1.00
Zn1325 Zn    0.54389   0.86442   0.70657   0.00000  Uiso   1.00
Zn1326 Zn    0.46226   0.87106   0.78733   0.00000  Uiso   1.00
C1327  C     0.71980   0.82683   0.75935   0.00000  Uiso   1.00
C1328  C     0.83324   0.81908   0.55735   0.00000  Uiso   1.00
C1329  C     0.90295   0.80148   0.55731   0.00000  Uiso   1.00
C1330  C     0.94739   0.84032   0.74024   0.00000  Uiso   1.00
C1331  C     0.81134   0.86432   0.91970   0.00000  Uiso   1.00
C1332  C     0.99285   0.84317   0.73784   0.00000  Uiso   1.00
C1333  C     0.67436   0.82267   0.76508   0.00000  Uiso   1.00
C1334  C     0.84716   0.98919   0.73650   0.00000  Uiso   1.00
C1335  C     0.81876   0.67849   0.76418   0.00000  Uiso   1.00
C1336  C     0.82287   0.72258   0.76028   0.00000  Uiso   1.00
C1337  C     0.84328   0.94460   0.74019   0.00000  Uiso   1.00
C1338  C     0.76656   0.88859   0.99148   0.00000  Uiso   1.00
C1339  C     0.85206   0.81508   0.62927   0.00000  Uiso   1.00
C1340  C     0.81660   0.85292   0.87083   0.00000  Uiso   1.00
C1341  C     0.91762   0.80579   0.51131   0.00000  Uiso   1.00
C1342  C     0.86157   0.80901   0.58047   0.00000  Uiso   1.00
C1343  C     0.77571   0.88464   0.94478   0.00000  Uiso   1.00
C1344  C     0.99472   0.78585   0.83389   0.00000  Uiso   1.00
C1345  C     0.99248   0.83156   0.98960   0.00000  Uiso   1.00
C1346  C     0.76448   0.77759   0.56589   0.00000  Uiso   1.00
C1347  C     0.76555   0.94494   0.91192   0.00000  Uiso   1.00
C1348  C     0.91375   0.90822   0.88012   0.00000  Uiso   1.00
C1349  C     0.79072   0.87133   0.51376   0.00000  Uiso   1.00
C1350  C     0.82586   0.85031   0.98995   0.00000  Uiso   1.00
C1351  C     0.84001   0.85306   0.94274   0.00000  Uiso   1.00
C1352  C     0.84955   0.83017   0.51221   0.00000  Uiso   1.00
C1353  C     0.89146   0.82130   0.98868   0.00000  Uiso   1.00
C1354  C     0.90746   0.82999   0.94360   0.00000  Uiso   1.00
C1355  C     0.88310   0.84705   0.92094   0.00000  Uiso   1.00
H1356  H     0.87335   0.67038   0.71102   0.00000  Uiso   1.00
H1357  H     0.68974   0.76844   0.82333   0.00000  Uiso   1.00
H1358  H     0.79226   0.99810   0.78984   0.00000  Uiso   1.00
H1359  H     0.96744   0.77014   0.99845   0.00000  Uiso   1.00
H1360  H     0.99552   0.83976   0.52451   0.00000  Uiso   1.00
H1361  H     0.98473   0.85914   0.97643   0.00000  Uiso   1.00
H1362  H     0.69026   0.82299   0.96822   0.00000  Uiso   1.00
H1363  H     0.78000   0.82437   0.61237   0.00000  Uiso   1.00
H1364  H     0.72987   0.77886   0.58149   0.00000  Uiso   1.00
H1365  H     0.77455   0.75051   0.57775   0.00000  Uiso   1.00
H1366  H     0.76941   0.77349   0.52883   0.00000  Uiso   1.00
H1367  H     0.94000   0.82528   0.92598   0.00000  Uiso   1.00
H1368  H     0.71775   0.89990   0.94043   0.00000  Uiso   1.00
H1369  H     0.74548   0.95555   0.89246   0.00000  Uiso   1.00
H1370  H     0.79906   0.94681   0.89093   0.00000  Uiso   1.00
H1371  H     0.76422   0.96605   0.94291   0.00000  Uiso   1.00
H1372  H     0.93034   0.84858   0.86083   0.00000  Uiso   1.00
H1373  H     0.92847   0.91796   0.84554   0.00000  Uiso   1.00
H1374  H     0.93650   0.91898   0.90120   0.00000  Uiso   1.00
H1375  H     0.88404   0.92327   0.89386   0.00000  Uiso   1.00
H1376  H     0.78308   0.87757   0.54975   0.00000  Uiso   1.00
H1377  H     0.74029   0.90516   0.51078   0.00000  Uiso   1.00
H1378  H     0.68160   0.86315   0.71374   0.00000  Uiso   1.00
H1379  H     0.92448   0.79329   0.57542   0.00000  Uiso   1.00
H1380  H     0.96908   0.76677   0.77893   0.00000  Uiso   1.00
H1381  H     0.96851   0.76694   0.85673   0.00000  Uiso   1.00
H1382  H     0.66928   0.81581   0.85261   0.00000  Uiso   1.00
N1383  N     0.98083   0.79349   0.79510   0.00000  Uiso   1.00
N1384  N     0.95969   0.79673   0.98863   0.00000  Uiso   1.00
N1385  N     0.78852   0.81582   0.57846   0.00000  Uiso   1.00
N1386  N     0.74965   0.90258   0.92345   0.00000  Uiso   1.00
N1387  N     0.90436   0.86329   0.87867   0.00000  Uiso   1.00
O1388  O     0.83333   0.83333   0.75000   0.00000  Uiso   1.00
O1389  O     0.82118   0.79304   0.65458   0.00000  Uiso   1.00
O1390  O     0.79607   0.87058   0.84968   0.00000  Uiso   1.00
O1391  O     0.87491   0.84425   0.64606   0.00000  Uiso   1.00
O1392  O     0.84118   0.82546   0.84968   0.00000  Uiso   1.00
O1393  O     0.84597   0.74686   0.78213   0.00000  Uiso   1.00
O1394  O     0.81298   0.92751   0.77013   0.00000  Uiso   1.00
O1395  O     0.74078   0.79958   0.73413   0.00000  Uiso   1.00
O1396  O     0.93360   0.85939   0.71360   0.00000  Uiso   1.00
O1397  O     0.73738   0.85544   0.78213   0.00000  Uiso   1.00
O1398  O     0.92158   0.81892   0.77013   0.00000  Uiso   1.00
O1399  O     0.80426   0.73610   0.73413   0.00000  Uiso   1.00
O1400  O     0.87012   0.92286   0.71360   0.00000  Uiso   1.00
Zn1401 Zn    0.86005   0.80661   0.78734   0.00000  Uiso   1.00
Zn1402 Zn    0.80046   0.79124   0.71875   0.00000  Uiso   1.00
Zn1403 Zn    0.87723   0.86442   0.70657   0.00000  Uiso   1.00
Zn1404 Zn    0.79560   0.87106   0.78733   0.00000  Uiso   1.00
loop_
_geom_bond_atom_site_label_1
_geom_bond_atom_site_label_2
_geom_bond_distance
_geom_bond_site_symmetry_2
_ccdc_geom_bond_type
C1     O71     1.269   .     A
C1     O69     1.266   .     A
C1     C7      1.436   .     S
C2     C16     1.403   .     A
C2     N59     1.427   .     S
C2     C26     1.423   .     A
C3     C15     1.392   .     A
C3     H53     1.085   .     S
C3     C16     1.394   .     A
C4     O70     1.287   .     A
C4     C6      1.458   .     S
C4     O72     1.268   .     A
C5     C17     1.422   .     A
C5     C14     1.488   .     S
C5     C25     1.425   .     A
C6     C85     1.350   .     S
C6     H130    1.088   .     S
C7     C162    1.350   1_455 S
C7     N213    1.433   1_455 S
C8     C11     1.451   .     S
C8     C243    1.331   .     S
C8     H264    1.088   .     S
C9     C10     1.435   .     S
C9     C476    1.331   1_545 S
C9     H500    1.087   1_545 S
C10    O67     1.279   .     A
C10    O73     1.279   .     A
C11    O74     1.270   .     A
C11    O68     1.271   .     A
C12    C17     1.392   .     A
C12    C725    1.384   .     S
C12    H753    1.083   .     S
C13    O65     1.274   .     A
C13    O63     1.281   .     A
C13    C16     1.456   .     S
C14    O64     1.278   .     A
C14    O66     1.292   .     A
C15    C729    1.412   1_554 S
C15    N760    1.424   1_554 S
C17    N60     1.424   .     S
C18    N57     1.448   .     S
C18    H55     1.110   .     S
C18    H109    1.111   .     S
C18    H134    1.111   .     S
C19    N58     1.446   .     S
C19    H35     1.111   .     S
C19    H736    1.112   .     S
C19    H114    1.110   .     S
C20    H40     1.111   .     S
C20    H39     1.111   .     S
C20    H38     1.110   .     S
C20    N59     1.445   .     S
C21    H43     1.110   .     S
C21    H45     1.112   .     S
C21    N60     1.448   .     S
C21    H44     1.112   .     S
C22    H48     1.112   .     S
C22    H47     1.111   .     S
C22    H49     1.111   .     S
C22    N61     1.447   .     S
C23    H50     1.078   .     S
C23    C714    1.384   1_554 S
C23    C726    1.412   1_554 S
C24    C25     1.420   .     A
C24    C725    1.412   .     S
C24    C728    1.425   .     S
C25    C29     1.422   .     A
C26    C726    1.425   1_554 S
C26    C729    1.424   1_554 S
C27    C28     1.399   .     A
C27    C717    1.412   .     S
C27    C728    1.424   .     S
C28    C29     1.394   .     A
C28    H41     1.083   .     S
C29    N61     1.427   .     S
H30    C476    1.088   1_545 S
H31    C174    1.111   1_455 S
H32    C243    1.087   .     S
H33    N58     1.032   .     S
H34    C721    1.112   1_554 S
H36    C175    1.110   1_455 S
H37    N59     1.030   .     S
H42    N60     1.031   .     S
H46    N61     1.031   .     S
H51    C714    1.083   1_554 S
H52    C162    1.088   1_455 S
H54    N57     1.032   .     S
H56    C174    1.111   1_455 S
N57    C85     1.433   .     S
N58    C717    1.424   .     S
O62    Zn77    1.934   .     S
O62    Zn76    1.950   .     S
O62    Zn75    1.956   .     S
O62    Zn78    1.930   .     S
O63    Zn76    1.925   .     S
O64    Zn78    1.936   .     S
O65    Zn77    1.934   .     S
O66    Zn75    1.923   .     S
O67    Zn75    1.929   .     S
O68    Zn78    1.930   .     S
O69    Zn76    1.932   .     S
O70    Zn77    1.943   .     S
O71    Zn78    1.942   .     S
O72    Zn75    1.932   .     S
O73    Zn76    1.932   .     S
O74    Zn77    1.928   .     S
C79    O149    1.269   .     A
C79    O147    1.266   .     A
C79    C85     1.436   .     S
C80    C94     1.403   .     A
C80    N137    1.427   .     S
C80    C104    1.423   .     A
C81    C93     1.392   .     A
C81    H131    1.085   .     S
C81    C94     1.394   .     A
C82    O148    1.287   .     A
C82    C84     1.458   .     S
C82    O150    1.268   .     A
C83    C95     1.422   .     A
C83    C92     1.488   .     S
C83    C103    1.425   .     A
C84    C163    1.350   .     S
C84    H208    1.088   .     S
C86    C89     1.451   .     S
C86    C321    1.331   .     S
C86    H342    1.088   .     S
C87    C88     1.435   .     S
C87    C554    1.331   1_545 S
C87    H578    1.087   1_545 S
C88    O145    1.279   .     A
C88    O151    1.279   .     A
C89    O152    1.270   .     A
C89    O146    1.271   .     A
C90    C95     1.392   .     A
C90    C803    1.384   .     S
C90    H831    1.083   .     S
C91    O143    1.274   .     A
C91    O141    1.281   .     A
C91    C94     1.456   .     S
C92    O142    1.278   .     A
C92    O144    1.292   .     A
C93    C807    1.412   1_554 S
C93    N838    1.424   1_554 S
C95    N138    1.424   .     S
C96    N135    1.448   .     S
C96    H133    1.110   .     S
C96    H187    1.111   .     S
C96    H212    1.111   .     S
C97    N136    1.446   .     S
C97    H113    1.111   .     S
C97    H814    1.112   .     S
C97    H192    1.110   .     S
C98    H118    1.111   .     S
C98    H117    1.111   .     S
C98    H116    1.110   .     S
C98    N137    1.445   .     S
C99    H121    1.110   .     S
C99    H123    1.112   .     S
C99    N138    1.448   .     S
C99    H122    1.112   .     S
C100   H126    1.112   .     S
C100   H125    1.111   .     S
C100   H127    1.111   .     S
C100   N139    1.447   .     S
C101   H128    1.078   .     S
C101   C792    1.384   1_554 S
C101   C804    1.412   1_554 S
C102   C103    1.420   .     A
C102   C803    1.412   .     S
C102   C806    1.425   .     S
C103   C107    1.422   .     A
C104   C804    1.425   1_554 S
C104   C807    1.424   1_554 S
C105   C106    1.399   .     A
C105   C795    1.412   .     S
C105   C806    1.424   .     S
C106   C107    1.394   .     A
C106   H119    1.083   .     S
C107   N139    1.427   .     S
H108   C554    1.088   1_545 S
H110   C321    1.087   .     S
H111   N136    1.032   .     S
H112   C799    1.112   1_554 S
H115   N137    1.030   .     S
H120   N138    1.031   .     S
H124   N139    1.031   .     S
H129   C792    1.083   1_554 S
H132   N135    1.032   .     S
N135   C163    1.433   .     S
N136   C795    1.424   .     S
O140   Zn155   1.934   .     S
O140   Zn154   1.950   .     S
O140   Zn153   1.956   .     S
O140   Zn156   1.930   .     S
O141   Zn154   1.925   .     S
O142   Zn156   1.936   .     S
O143   Zn155   1.934   .     S
O144   Zn153   1.923   .     S
O145   Zn153   1.929   .     S
O146   Zn156   1.930   .     S
O147   Zn154   1.932   .     S
O148   Zn155   1.943   .     S
O149   Zn156   1.942   .     S
O150   Zn153   1.932   .     S
O151   Zn154   1.932   .     S
O152   Zn155   1.928   .     S
C157   O227    1.269   .     A
C157   O225    1.266   .     A
C157   C163    1.436   .     S
C158   C172    1.403   .     A
C158   N215    1.427   .     S
C158   C182    1.423   .     A
C159   C171    1.392   .     A
C159   H209    1.085   .     S
C159   C172    1.394   .     A
C160   O226    1.287   .     A
C160   C162    1.458   .     S
C160   O228    1.268   .     A
C161   C173    1.422   .     A
C161   C170    1.488   .     S
C161   C181    1.425   .     A
C162   C7      1.350   1_655 S
C162   H52     1.088   1_655 S
C164   C167    1.451   .     S
C164   C399    1.331   .     S
C164   H420    1.088   .     S
C165   C166    1.435   .     S
C165   C632    1.331   1_545 S
C165   H656    1.087   1_545 S
C166   O223    1.279   .     A
C166   O229    1.279   .     A
C167   O230    1.270   .     A
C167   O224    1.271   .     A
C168   C173    1.392   .     A
C168   C881    1.384   .     S
C168   H909    1.083   .     S
C169   O221    1.274   .     A
C169   O219    1.281   .     A
C169   C172    1.456   .     S
C170   O220    1.278   .     A
C170   O222    1.292   .     A
C171   C885    1.412   1_554 S
C171   N916    1.424   1_554 S
C173   N216    1.424   .     S
C174   N213    1.448   .     S
C174   H211    1.110   .     S
C174   H31     1.111   1_655 S
C174   H56     1.111   1_655 S
C175   N214    1.446   .     S
C175   H191    1.111   .     S
C175   H892    1.112   .     S
C175   H36     1.110   1_655 S
C176   H196    1.111   .     S
C176   H195    1.111   .     S
C176   H194    1.110   .     S
C176   N215    1.445   .     S
C177   H199    1.110   .     S
C177   H201    1.112   .     S
C177   N216    1.448   .     S
C177   H200    1.112   .     S
C178   H204    1.112   .     S
C178   H203    1.111   .     S
C178   H205    1.111   .     S
C178   N217    1.447   .     S
C179   H206    1.078   .     S
C179   C870    1.384   1_554 S
C179   C882    1.412   1_554 S
C180   C181    1.420   .     A
C180   C881    1.412   .     S
C180   C884    1.425   .     S
C181   C185    1.422   .     A
C182   C882    1.425   1_554 S
C182   C885    1.424   1_554 S
C183   C184    1.399   .     A
C183   C873    1.412   .     S
C183   C884    1.424   .     S
C184   C185    1.394   .     A
C184   H197    1.083   .     S
C185   N217    1.427   .     S
H186   C632    1.088   1_545 S
H188   C399    1.087   .     S
H189   N214    1.032   .     S
H190   C877    1.112   1_554 S
H193   N215    1.030   .     S
H198   N216    1.031   .     S
H202   N217    1.031   .     S
H207   C870    1.083   1_554 S
H210   N213    1.032   .     S
N213   C7      1.433   1_655 S
N214   C873    1.424   .     S
O218   Zn233   1.934   .     S
O218   Zn232   1.950   .     S
O218   Zn231   1.956   .     S
O218   Zn234   1.930   .     S
O219   Zn232   1.925   .     S
O220   Zn234   1.936   .     S
O221   Zn233   1.934   .     S
O222   Zn231   1.923   .     S
O223   Zn231   1.929   .     S
O224   Zn234   1.930   .     S
O225   Zn232   1.932   .     S
O226   Zn233   1.943   .     S
O227   Zn234   1.942   .     S
O228   Zn231   1.932   .     S
O229   Zn232   1.932   .     S
O230   Zn233   1.928   .     S
C235   O305    1.269   .     A
C235   O303    1.266   .     A
C235   C241    1.436   .     S
C236   C250    1.403   .     A
C236   N293    1.427   .     S
C236   C260    1.423   .     A
C237   C249    1.392   .     A
C237   H287    1.085   .     S
C237   C250    1.394   .     A
C238   O304    1.287   .     A
C238   C240    1.458   .     S
C238   O306    1.268   .     A
C239   C251    1.422   .     A
C239   C248    1.488   .     S
C239   C259    1.425   .     A
C240   C319    1.350   .     S
C240   H364    1.088   .     S
C241   C396    1.350   1_455 S
C241   N447    1.433   1_455 S
C242   C245    1.451   .     S
C242   C477    1.331   .     S
C242   H498    1.088   .     S
C243   C244    1.435   .     S
C244   O301    1.279   .     A
C244   O307    1.279   .     A
C245   O308    1.270   .     A
C245   O302    1.271   .     A
C246   C251    1.392   .     A
C246   C959    1.384   .     S
C246   H987    1.083   .     S
C247   O299    1.274   .     A
C247   O297    1.281   .     A
C247   C250    1.456   .     S
C248   O298    1.278   .     A
C248   O300    1.292   .     A
C249   C963    1.412   1_554 S
C249   N994    1.424   1_554 S
C251   N294    1.424   .     S
C252   N291    1.448   .     S
C252   H289    1.110   .     S
C252   H343    1.111   .     S
C252   H368    1.111   .     S
C253   N292    1.446   .     S
C253   H269    1.111   .     S
C253   H970    1.112   .     S
C253   H348    1.110   .     S
C254   H274    1.111   .     S
C254   H273    1.111   .     S
C254   H272    1.110   .     S
C254   N293    1.445   .     S
C255   H277    1.110   .     S
C255   H279    1.112   .     S
C255   N294    1.448   .     S
C255   H278    1.112   .     S
C256   H282    1.112   .     S
C256   H281    1.111   .     S
C256   H283    1.111   .     S
C256   N295    1.447   .     S
C257   H284    1.078   .     S
C257   C948    1.384   1_554 S
C257   C960    1.412   1_554 S
C258   C259    1.420   .     A
C258   C959    1.412   .     S
C258   C962    1.425   .     S
C259   C263    1.422   .     A
C260   C960    1.425   1_554 S
C260   C963    1.424   1_554 S
C261   C262    1.399   .     A
C261   C951    1.412   .     S
C261   C962    1.424   .     S
C262   C263    1.394   .     A
C262   H275    1.083   .     S
C263   N295    1.427   .     S
H265   C408    1.111   1_455 S
H266   C477    1.087   .     S
H267   N292    1.032   .     S
H268   C955    1.112   1_554 S
H270   C409    1.110   1_455 S
H271   N293    1.030   .     S
H276   N294    1.031   .     S
H280   N295    1.031   .     S
H285   C948    1.083   1_554 S
H286   C396    1.088   1_455 S
H288   N291    1.032   .     S
H290   C408    1.111   1_455 S
N291   C319    1.433   .     S
N292   C951    1.424   .     S
O296   Zn311   1.934   .     S
O296   Zn310   1.950   .     S
O296   Zn309   1.956   .     S
O296   Zn312   1.930   .     S
O297   Zn310   1.925   .     S
O298   Zn312   1.936   .     S
O299   Zn311   1.934   .     S
O300   Zn309   1.923   .     S
O301   Zn309   1.929   .     S
O302   Zn312   1.930   .     S
O303   Zn310   1.932   .     S
O304   Zn311   1.943   .     S
O305   Zn312   1.942   .     S
O306   Zn309   1.932   .     S
O307   Zn310   1.932   .     S
O308   Zn311   1.928   .     S
C313   O383    1.269   .     A
C313   O381    1.266   .     A
C313   C319    1.436   .     S
C314   C328    1.403   .     A
C314   N371    1.427   .     S
C314   C338    1.423   .     A
C315   C327    1.392   .     A
C315   H365    1.085   .     S
C315   C328    1.394   .     A
C316   O382    1.287   .     A
C316   C318    1.458   .     S
C316   O384    1.268   .     A
C317   C329    1.422   .     A
C317   C326    1.488   .     S
C317   C337    1.425   .     A
C318   C397    1.350   .     S
C318   H442    1.088   .     S
C320   C323    1.451   .     S
C320   C555    1.331   .     S
C320   H576    1.088   .     S
C321   C322    1.435   .     S
C322   O379    1.279   .     A
C322   O385    1.279   .     A
C323   O386    1.270   .     A
C323   O380    1.271   .     A
C324   C329    1.392   .     A
C324   C1037   1.384   .     S
C324   H1065   1.083   .     S
C325   O377    1.274   .     A
C325   O375    1.281   .     A
C325   C328    1.456   .     S
C326   O376    1.278   .     A
C326   O378    1.292   .     A
C327   C1041   1.412   1_554 S
C327   N1072   1.424   1_554 S
C329   N372    1.424   .     S
C330   N369    1.448   .     S
C330   H367    1.110   .     S
C330   H421    1.111   .     S
C330   H446    1.111   .     S
C331   N370    1.446   .     S
C331   H347    1.111   .     S
C331   H1048   1.112   .     S
C331   H426    1.110   .     S
C332   H352    1.111   .     S
C332   H351    1.111   .     S
C332   H350    1.110   .     S
C332   N371    1.445   .     S
C333   H355    1.110   .     S
C333   H357    1.112   .     S
C333   N372    1.448   .     S
C333   H356    1.112   .     S
C334   H360    1.112   .     S
C334   H359    1.111   .     S
C334   H361    1.111   .     S
C334   N373    1.447   .     S
C335   H362    1.078   .     S
C335   C1026   1.384   1_554 S
C335   C1038   1.412   1_554 S
C336   C337    1.420   .     A
C336   C1037   1.412   .     S
C336   C1040   1.425   .     S
C337   C341    1.422   .     A
C338   C1038   1.425   1_554 S
C338   C1041   1.424   1_554 S
C339   C340    1.399   .     A
C339   C1029   1.412   .     S
C339   C1040   1.424   .     S
C340   C341    1.394   .     A
C340   H353    1.083   .     S
C341   N373    1.427   .     S
H344   C555    1.087   .     S
H345   N370    1.032   .     S
H346   C1033   1.112   1_554 S
H349   N371    1.030   .     S
H354   N372    1.031   .     S
H358   N373    1.031   .     S
H363   C1026   1.083   1_554 S
H366   N369    1.032   .     S
N369   C397    1.433   .     S
N370   C1029   1.424   .     S
O374   Zn389   1.934   .     S
O374   Zn388   1.950   .     S
O374   Zn387   1.956   .     S
O374   Zn390   1.930   .     S
O375   Zn388   1.925   .     S
O376   Zn390   1.936   .     S
O377   Zn389   1.934   .     S
O378   Zn387   1.923   .     S
O379   Zn387   1.929   .     S
O380   Zn390   1.930   .     S
O381   Zn388   1.932   .     S
O382   Zn389   1.943   .     S
O383   Zn390   1.942   .     S
O384   Zn387   1.932   .     S
O385   Zn388   1.932   .     S
O386   Zn389   1.928   .     S
C391   O461    1.269   .     A
C391   O459    1.266   .     A
C391   C397    1.436   .     S
C392   C406    1.403   .     A
C392   N449    1.427   .     S
C392   C416    1.423   .     A
C393   C405    1.392   .     A
C393   H443    1.085   .     S
C393   C406    1.394   .     A
C394   O460    1.287   .     A
C394   C396    1.458   .     S
C394   O462    1.268   .     A
C395   C407    1.422   .     A
C395   C404    1.488   .     S
C395   C415    1.425   .     A
C396   C241    1.350   1_655 S
C396   H286    1.088   1_655 S
C398   C401    1.451   .     S
C398   C633    1.331   .     S
C398   H654    1.088   .     S
C399   C400    1.435   .     S
C400   O457    1.279   .     A
C400   O463    1.279   .     A
C401   O464    1.270   .     A
C401   O458    1.271   .     A
C402   C407    1.392   .     A
C402   C1115   1.384   .     S
C402   H1143   1.083   .     S
C403   O455    1.274   .     A
C403   O453    1.281   .     A
C403   C406    1.456   .     S
C404   O454    1.278   .     A
C404   O456    1.292   .     A
C405   C1119   1.412   1_554 S
C405   N1150   1.424   1_554 S
C407   N450    1.424   .     S
C408   N447    1.448   .     S
C408   H445    1.110   .     S
C408   H265    1.111   1_655 S
C408   H290    1.111   1_655 S
C409   N448    1.446   .     S
C409   H425    1.111   .     S
C409   H1126   1.112   .     S
C409   H270    1.110   1_655 S
C410   H430    1.111   .     S
C410   H429    1.111   .     S
C410   H428    1.110   .     S
C410   N449    1.445   .     S
C411   H433    1.110   .     S
C411   H435    1.112   .     S
C411   N450    1.448   .     S
C411   H434    1.112   .     S
C412   H438    1.112   .     S
C412   H437    1.111   .     S
C412   H439    1.111   .     S
C412   N451    1.447   .     S
C413   H440    1.078   .     S
C413   C1104   1.384   1_554 S
C413   C1116   1.412   1_554 S
C414   C415    1.420   .     A
C414   C1115   1.412   .     S
C414   C1118   1.425   .     S
C415   C419    1.422   .     A
C416   C1116   1.425   1_554 S
C416   C1119   1.424   1_554 S
C417   C418    1.399   .     A
C417   C1107   1.412   .     S
C417   C1118   1.424   .     S
C418   C419    1.394   .     A
C418   H431    1.083   .     S
C419   N451    1.427   .     S
H422   C633    1.087   .     S
H423   N448    1.032   .     S
H424   C1111   1.112   1_554 S
H427   N449    1.030   .     S
H432   N450    1.031   .     S
H436   N451    1.031   .     S
H441   C1104   1.083   1_554 S
H444   N447    1.032   .     S
N447   C241    1.433   1_655 S
N448   C1107   1.424   .     S
O452   Zn467   1.934   .     S
O452   Zn466   1.950   .     S
O452   Zn465   1.956   .     S
O452   Zn468   1.930   .     S
O453   Zn466   1.925   .     S
O454   Zn468   1.936   .     S
O455   Zn467   1.934   .     S
O456   Zn465   1.923   .     S
O457   Zn465   1.929   .     S
O458   Zn468   1.930   .     S
O459   Zn466   1.932   .     S
O460   Zn467   1.943   .     S
O461   Zn468   1.942   .     S
O462   Zn465   1.932   .     S
O463   Zn466   1.932   .     S
O464   Zn467   1.928   .     S
C469   O539    1.269   .     A
C469   O537    1.266   .     A
C469   C475    1.436   .     S
C470   C484    1.403   .     A
C470   N527    1.427   .     S
C470   C494    1.423   .     A
C471   C483    1.392   .     A
C471   H521    1.085   .     S
C471   C484    1.394   .     A
C472   O538    1.287   .     A
C472   C474    1.458   .     S
C472   O540    1.268   .     A
C473   C485    1.422   .     A
C473   C482    1.488   .     S
C473   C493    1.425   .     A
C474   C553    1.350   .     S
C474   H598    1.088   .     S
C475   C630    1.350   1_455 S
C475   N681    1.433   1_455 S
C476   C479    1.451   .     S
C476   C9      1.331   1_565 S
C476   H30     1.088   1_565 S
C477   C478    1.435   .     S
C478   O535    1.279   .     A
C478   O541    1.279   .     A
C479   O542    1.270   .     A
C479   O536    1.271   .     A
C480   C485    1.392   .     A
C480   C1193   1.384   .     S
C480   H1221   1.083   .     S
C481   O533    1.274   .     A
C481   O531    1.281   .     A
C481   C484    1.456   .     S
C482   O532    1.278   .     A
C482   O534    1.292   .     A
C483   C1197   1.412   1_554 S
C483   N1228   1.424   1_554 S
C485   N528    1.424   .     S
C486   N525    1.448   .     S
C486   H523    1.110   .     S
C486   H577    1.111   .     S
C486   H602    1.111   .     S
C487   N526    1.446   .     S
C487   H503    1.111   .     S
C487   H1204   1.112   .     S
C487   H582    1.110   .     S
C488   H508    1.111   .     S
C488   H507    1.111   .     S
C488   H506    1.110   .     S
C488   N527    1.445   .     S
C489   H511    1.110   .     S
C489   H513    1.112   .     S
C489   N528    1.448   .     S
C489   H512    1.112   .     S
C490   H516    1.112   .     S
C490   H515    1.111   .     S
C490   H517    1.111   .     S
C490   N529    1.447   .     S
C491   H518    1.078   .     S
C491   C1182   1.384   1_554 S
C491   C1194   1.412   1_554 S
C492   C493    1.420   .     A
C492   C1193   1.412   .     S
C492   C1196   1.425   .     S
C493   C497    1.422   .     A
C494   C1194   1.425   1_554 S
C494   C1197   1.424   1_554 S
C495   C496    1.399   .     A
C495   C1185   1.412   .     S
C495   C1196   1.424   .     S
C496   C497    1.394   .     A
C496   H509    1.083   .     S
C497   N529    1.427   .     S
H499   C642    1.111   1_455 S
H500   C9      1.087   1_565 S
H501   N526    1.032   .     S
H502   C1189   1.112   1_554 S
H504   C643    1.110   1_455 S
H505   N527    1.030   .     S
H510   N528    1.031   .     S
H514   N529    1.031   .     S
H519   C1182   1.083   1_554 S
H520   C630    1.088   1_455 S
H522   N525    1.032   .     S
H524   C642    1.111   1_455 S
N525   C553    1.433   .     S
N526   C1185   1.424   .     S
O530   Zn545   1.934   .     S
O530   Zn544   1.950   .     S
O530   Zn543   1.956   .     S
O530   Zn546   1.930   .     S
O531   Zn544   1.925   .     S
O532   Zn546   1.936   .     S
O533   Zn545   1.934   .     S
O534   Zn543   1.923   .     S
O535   Zn543   1.929   .     S
O536   Zn546   1.930   .     S
O537   Zn544   1.932   .     S
O538   Zn545   1.943   .     S
O539   Zn546   1.942   .     S
O540   Zn543   1.932   .     S
O541   Zn544   1.932   .     S
O542   Zn545   1.928   .     S
C547   O617    1.269   .     A
C547   O615    1.266   .     A
C547   C553    1.436   .     S
C548   C562    1.403   .     A
C548   N605    1.427   .     S
C548   C572    1.423   .     A
C549   C561    1.392   .     A
C549   H599    1.085   .     S
C549   C562    1.394   .     A
C550   O616    1.287   .     A
C550   C552    1.458   .     S
C550   O618    1.268   .     A
C551   C563    1.422   .     A
C551   C560    1.488   .     S
C551   C571    1.425   .     A
C552   C631    1.350   .     S
C552   H676    1.088   .     S
C554   C557    1.451   .     S
C554   C87     1.331   1_565 S
C554   H108    1.088   1_565 S
C555   C556    1.435   .     S
C556   O613    1.279   .     A
C556   O619    1.279   .     A
C557   O620    1.270   .     A
C557   O614    1.271   .     A
C558   C563    1.392   .     A
C558   C1271   1.384   .     S
C558   H1299   1.083   .     S
C559   O611    1.274   .     A
C559   O609    1.281   .     A
C559   C562    1.456   .     S
C560   O610    1.278   .     A
C560   O612    1.292   .     A
C561   C1275   1.412   1_554 S
C561   N1306   1.424   1_554 S
C563   N606    1.424   .     S
C564   N603    1.448   .     S
C564   H601    1.110   .     S
C564   H655    1.111   .     S
C564   H680    1.111   .     S
C565   N604    1.446   .     S
C565   H581    1.111   .     S
C565   H1282   1.112   .     S
C565   H660    1.110   .     S
C566   H586    1.111   .     S
C566   H585    1.111   .     S
C566   H584    1.110   .     S
C566   N605    1.445   .     S
C567   H589    1.110   .     S
C567   H591    1.112   .     S
C567   N606    1.448   .     S
C567   H590    1.112   .     S
C568   H594    1.112   .     S
C568   H593    1.111   .     S
C568   H595    1.111   .     S
C568   N607    1.447   .     S
C569   H596    1.078   .     S
C569   C1260   1.384   1_554 S
C569   C1272   1.412   1_554 S
C570   C571    1.420   .     A
C570   C1271   1.412   .     S
C570   C1274   1.425   .     S
C571   C575    1.422   .     A
C572   C1272   1.425   1_554 S
C572   C1275   1.424   1_554 S
C573   C574    1.399   .     A
C573   C1263   1.412   .     S
C573   C1274   1.424   .     S
C574   C575    1.394   .     A
C574   H587    1.083   .     S
C575   N607    1.427   .     S
H578   C87     1.087   1_565 S
H579   N604    1.032   .     S
H580   C1267   1.112   1_554 S
H583   N605    1.030   .     S
H588   N606    1.031   .     S
H592   N607    1.031   .     S
H597   C1260   1.083   1_554 S
H600   N603    1.032   .     S
N603   C631    1.433   .     S
N604   C1263   1.424   .     S
O608   Zn623   1.934   .     S
O608   Zn622   1.950   .     S
O608   Zn621   1.956   .     S
O608   Zn624   1.930   .     S
O609   Zn622   1.925   .     S
O610   Zn624   1.936   .     S
O611   Zn623   1.934   .     S
O612   Zn621   1.923   .     S
O613   Zn621   1.929   .     S
O614   Zn624   1.930   .     S
O615   Zn622   1.932   .     S
O616   Zn623   1.943   .     S
O617   Zn624   1.942   .     S
O618   Zn621   1.932   .     S
O619   Zn622   1.932   .     S
O620   Zn623   1.928   .     S
C625   O695    1.269   .     A
C625   O693    1.266   .     A
C625   C631    1.436   .     S
C626   C640    1.403   .     A
C626   N683    1.427   .     S
C626   C650    1.423   .     A
C627   C639    1.392   .     A
C627   H677    1.085   .     S
C627   C640    1.394   .     A
C628   O694    1.287   .     A
C628   C630    1.458   .     S
C628   O696    1.268   .     A
C629   C641    1.422   .     A
C629   C638    1.488   .     S
C629   C649    1.425   .     A
C630   C475    1.350   1_655 S
C630   H520    1.088   1_655 S
C632   C635    1.451   .     S
C632   C165    1.331   1_565 S
C632   H186    1.088   1_565 S
C633   C634    1.435   .     S
C634   O691    1.279   .     A
C634   O697    1.279   .     A
C635   O698    1.270   .     A
C635   O692    1.271   .     A
C636   C641    1.392   .     A
C636   C1349   1.384   .     S
C636   H1377   1.083   .     S
C637   O689    1.274   .     A
C637   O687    1.281   .     A
C637   C640    1.456   .     S
C638   O688    1.278   .     A
C638   O690    1.292   .     A
C639   C1353   1.412   1_554 S
C639   N1384   1.424   1_554 S
C641   N684    1.424   .     S
C642   N681    1.448   .     S
C642   H679    1.110   .     S
C642   H499    1.111   1_655 S
C642   H524    1.111   1_655 S
C643   N682    1.446   .     S
C643   H659    1.111   .     S
C643   H1360   1.112   .     S
C643   H504    1.110   1_655 S
C644   H664    1.111   .     S
C644   H663    1.111   .     S
C644   H662    1.110   .     S
C644   N683    1.445   .     S
C645   H667    1.110   .     S
C645   H669    1.112   .     S
C645   N684    1.448   .     S
C645   H668    1.112   .     S
C646   H672    1.112   .     S
C646   H671    1.111   .     S
C646   H673    1.111   .     S
C646   N685    1.447   .     S
C647   H674    1.078   .     S
C647   C1338   1.384   1_554 S
C647   C1350   1.412   1_554 S
C648   C649    1.420   .     A
C648   C1349   1.412   .     S
C648   C1352   1.425   .     S
C649   C653    1.422   .     A
C650   C1350   1.425   1_554 S
C650   C1353   1.424   1_554 S
C651   C652    1.399   .     A
C651   C1341   1.412   .     S
C651   C1352   1.424   .     S
C652   C653    1.394   .     A
C652   H665    1.083   .     S
C653   N685    1.427   .     S
H656   C165    1.087   1_565 S
H657   N682    1.032   .     S
H658   C1345   1.112   1_554 S
H661   N683    1.030   .     S
H666   N684    1.031   .     S
H670   N685    1.031   .     S
H675   C1338   1.083   1_554 S
H678   N681    1.032   .     S
N681   C475    1.433   1_655 S
N682   C1341   1.424   .     S
O686   Zn701   1.934   .     S
O686   Zn700   1.950   .     S
O686   Zn699   1.956   .     S
O686   Zn702   1.930   .     S
O687   Zn700   1.925   .     S
O688   Zn702   1.936   .     S
O689   Zn701   1.934   .     S
O690   Zn699   1.923   .     S
O691   Zn699   1.929   .     S
O692   Zn702   1.930   .     S
O693   Zn700   1.932   .     S
O694   Zn701   1.943   .     S
O695   Zn702   1.942   .     S
O696   Zn699   1.932   .     S
O697   Zn700   1.932   .     S
O698   Zn701   1.928   .     S
C703   O773    1.269   .     A
C703   O771    1.266   .     A
C703   C709    1.436   .     S
C704   C718    1.403   .     A
C704   N761    1.427   .     S
C704   C728    1.423   .     A
C705   C717    1.392   .     A
C705   H755    1.085   .     S
C705   C718    1.394   .     A
C706   O772    1.287   .     A
C706   C708    1.458   .     S
C706   O774    1.268   .     A
C707   C719    1.422   .     A
C707   C716    1.488   .     S
C707   C727    1.425   .     A
C708   C787    1.350   .     S
C708   H832    1.088   .     S
C709   C864    1.350   1_455 S
C709   N915    1.433   1_455 S
C710   C713    1.451   .     S
C710   C945    1.331   .     S
C710   H966    1.088   .     S
C711   C712    1.435   .     S
C711   C1178   1.331   1_545 S
C711   H1202   1.087   1_545 S
C712   O769    1.279   .     A
C712   O775    1.279   .     A
C713   O776    1.270   .     A
C713   O770    1.271   .     A
C714   C719    1.392   .     A
C714   C23     1.384   1_556 S
C714   H51     1.083   1_556 S
C715   O767    1.274   .     A
C715   O765    1.281   .     A
C715   C718    1.456   .     S
C716   O766    1.278   .     A
C716   O768    1.292   .     A
C719   N762    1.424   .     S
C720   N759    1.448   .     S
C720   H757    1.110   .     S
C720   H811    1.111   .     S
C720   H836    1.111   .     S
C721   N760    1.446   .     S
C721   H737    1.111   .     S
C721   H34     1.112   1_556 S
C721   H816    1.110   .     S
C722   H742    1.111   .     S
C722   H741    1.111   .     S
C722   H740    1.110   .     S
C722   N761    1.445   .     S
C723   H745    1.110   .     S
C723   H747    1.112   .     S
C723   N762    1.448   .     S
C723   H746    1.112   .     S
C724   H750    1.112   .     S
C724   H749    1.111   .     S
C724   H751    1.111   .     S
C724   N763    1.447   .     S
C725   H752    1.078   .     S
C726   C727    1.420   .     A
C726   C23     1.412   1_556 S
C726   C26     1.425   1_556 S
C727   C731    1.422   .     A
C729   C730    1.399   .     A
C729   C15     1.412   1_556 S
C729   C26     1.424   1_556 S
C730   C731    1.394   .     A
C730   H743    1.083   .     S
C731   N763    1.427   .     S
H732   C1178   1.088   1_545 S
H733   C876    1.111   1_455 S
H734   C945    1.087   .     S
H735   N760    1.032   .     S
H738   C877    1.110   1_455 S
H739   N761    1.030   .     S
H744   N762    1.031   .     S
H748   N763    1.031   .     S
H754   C864    1.088   1_455 S
H756   N759    1.032   .     S
H758   C876    1.111   1_455 S
N759   C787    1.433   .     S
N760   C15     1.424   1_556 S
O764   Zn779   1.934   .     S
O764   Zn778   1.950   .     S
O764   Zn777   1.956   .     S
O764   Zn780   1.930   .     S
O765   Zn778   1.925   .     S
O766   Zn780   1.936   .     S
O767   Zn779   1.934   .     S
O768   Zn777   1.923   .     S
O769   Zn777   1.929   .     S
O770   Zn780   1.930   .     S
O771   Zn778   1.932   .     S
O772   Zn779   1.943   .     S
O773   Zn780   1.942   .     S
O774   Zn777   1.932   .     S
O775   Zn778   1.932   .     S
O776   Zn779   1.928   .     S
C781   O851    1.269   .     A
C781   O849    1.266   .     A
C781   C787    1.436   .     S
C782   C796    1.403   .     A
C782   N839    1.427   .     S
C782   C806    1.423   .     A
C783   C795    1.392   .     A
C783   H833    1.085   .     S
C783   C796    1.394   .     A
C784   O850    1.287   .     A
C784   C786    1.458   .     S
C784   O852    1.268   .     A
C785   C797    1.422   .     A
C785   C794    1.488   .     S
C785   C805    1.425   .     A
C786   C865    1.350   .     S
C786   H910    1.088   .     S
C788   C791    1.451   .     S
C788   C1023   1.331   .     S
C788   H1044   1.088   .     S
C789   C790    1.435   .     S
C789   C1256   1.331   1_545 S
C789   H1280   1.087   1_545 S
C790   O847    1.279   .     A
C790   O853    1.279   .     A
C791   O854    1.270   .     A
C791   O848    1.271   .     A
C792   C797    1.392   .     A
C792   C101    1.384   1_556 S
C792   H129    1.083   1_556 S
C793   O845    1.274   .     A
C793   O843    1.281   .     A
C793   C796    1.456   .     S
C794   O844    1.278   .     A
C794   O846    1.292   .     A
C797   N840    1.424   .     S
C798   N837    1.448   .     S
C798   H835    1.110   .     S
C798   H889    1.111   .     S
C798   H914    1.111   .     S
C799   N838    1.446   .     S
C799   H815    1.111   .     S
C799   H112    1.112   1_556 S
C799   H894    1.110   .     S
C800   H820    1.111   .     S
C800   H819    1.111   .     S
C800   H818    1.110   .     S
C800   N839    1.445   .     S
C801   H823    1.110   .     S
C801   H825    1.112   .     S
C801   N840    1.448   .     S
C801   H824    1.112   .     S
C802   H828    1.112   .     S
C802   H827    1.111   .     S
C802   H829    1.111   .     S
C802   N841    1.447   .     S
C803   H830    1.078   .     S
C804   C805    1.420   .     A
C804   C101    1.412   1_556 S
C804   C104    1.425   1_556 S
C805   C809    1.422   .     A
C807   C808    1.399   .     A
C807   C93     1.412   1_556 S
C807   C104    1.424   1_556 S
C808   C809    1.394   .     A
C808   H821    1.083   .     S
C809   N841    1.427   .     S
H810   C1256   1.088   1_545 S
H812   C1023   1.087   .     S
H813   N838    1.032   .     S
H817   N839    1.030   .     S
H822   N840    1.031   .     S
H826   N841    1.031   .     S
H834   N837    1.032   .     S
N837   C865    1.433   .     S
N838   C93     1.424   1_556 S
O842   Zn857   1.934   .     S
O842   Zn856   1.950   .     S
O842   Zn855   1.956   .     S
O842   Zn858   1.930   .     S
O843   Zn856   1.925   .     S
O844   Zn858   1.936   .     S
O845   Zn857   1.934   .     S
O846   Zn855   1.923   .     S
O847   Zn855   1.929   .     S
O848   Zn858   1.930   .     S
O849   Zn856   1.932   .     S
O850   Zn857   1.943   .     S
O851   Zn858   1.942   .     S
O852   Zn855   1.932   .     S
O853   Zn856   1.932   .     S
O854   Zn857   1.928   .     S
C859   O929    1.269   .     A
C859   O927    1.266   .     A
C859   C865    1.436   .     S
C860   C874    1.403   .     A
C860   N917    1.427   .     S
C860   C884    1.423   .     A
C861   C873    1.392   .     A
C861   H911    1.085   .     S
C861   C874    1.394   .     A
C862   O928    1.287   .     A
C862   C864    1.458   .     S
C862   O930    1.268   .     A
C863   C875    1.422   .     A
C863   C872    1.488   .     S
C863   C883    1.425   .     A
C864   C709    1.350   1_655 S
C864   H754    1.088   1_655 S
C866   C869    1.451   .     S
C866   C1101   1.331   .     S
C866   H1122   1.088   .     S
C867   C868    1.435   .     S
C867   C1334   1.331   1_545 S
C867   H1358   1.087   1_545 S
C868   O925    1.279   .     A
C868   O931    1.279   .     A
C869   O932    1.270   .     A
C869   O926    1.271   .     A
C870   C875    1.392   .     A
C870   C179    1.384   1_556 S
C870   H207    1.083   1_556 S
C871   O923    1.274   .     A
C871   O921    1.281   .     A
C871   C874    1.456   .     S
C872   O922    1.278   .     A
C872   O924    1.292   .     A
C875   N918    1.424   .     S
C876   N915    1.448   .     S
C876   H913    1.110   .     S
C876   H733    1.111   1_655 S
C876   H758    1.111   1_655 S
C877   N916    1.446   .     S
C877   H893    1.111   .     S
C877   H190    1.112   1_556 S
C877   H738    1.110   1_655 S
C878   H898    1.111   .     S
C878   H897    1.111   .     S
C878   H896    1.110   .     S
C878   N917    1.445   .     S
C879   H901    1.110   .     S
C879   H903    1.112   .     S
C879   N918    1.448   .     S
C879   H902    1.112   .     S
C880   H906    1.112   .     S
C880   H905    1.111   .     S
C880   H907    1.111   .     S
C880   N919    1.447   .     S
C881   H908    1.078   .     S
C882   C883    1.420   .     A
C882   C179    1.412   1_556 S
C882   C182    1.425   1_556 S
C883   C887    1.422   .     A
C885   C886    1.399   .     A
C885   C171    1.412   1_556 S
C885   C182    1.424   1_556 S
C886   C887    1.394   .     A
C886   H899    1.083   .     S
C887   N919    1.427   .     S
H888   C1334   1.088   1_545 S
H890   C1101   1.087   .     S
H891   N916    1.032   .     S
H895   N917    1.030   .     S
H900   N918    1.031   .     S
H904   N919    1.031   .     S
H912   N915    1.032   .     S
N915   C709    1.433   1_655 S
N916   C171    1.424   1_556 S
O920   Zn935   1.934   .     S
O920   Zn934   1.950   .     S
O920   Zn933   1.956   .     S
O920   Zn936   1.930   .     S
O921   Zn934   1.925   .     S
O922   Zn936   1.936   .     S
O923   Zn935   1.934   .     S
O924   Zn933   1.923   .     S
O925   Zn933   1.929   .     S
O926   Zn936   1.930   .     S
O927   Zn934   1.932   .     S
O928   Zn935   1.943   .     S
O929   Zn936   1.942   .     S
O930   Zn933   1.932   .     S
O931   Zn934   1.932   .     S
O932   Zn935   1.928   .     S
C937   O1007   1.269   .     A
C937   O1005   1.266   .     A
C937   C943    1.436   .     S
C938   C952    1.403   .     A
C938   N995    1.427   .     S
C938   C962    1.423   .     A
C939   C951    1.392   .     A
C939   H989    1.085   .     S
C939   C952    1.394   .     A
C940   O1006   1.287   .     A
C940   C942    1.458   .     S
C940   O1008   1.268   .     A
C941   C953    1.422   .     A
C941   C950    1.488   .     S
C941   C961    1.425   .     A
C942   C1021   1.350   .     S
C942   H1066   1.088   .     S
C943   C1098   1.350   1_455 S
C943   N1149   1.433   1_455 S
C944   C947    1.451   .     S
C944   C1179   1.331   .     S
C944   H1200   1.088   .     S
C945   C946    1.435   .     S
C946   O1003   1.279   .     A
C946   O1009   1.279   .     A
C947   O1010   1.270   .     A
C947   O1004   1.271   .     A
C948   C953    1.392   .     A
C948   C257    1.384   1_556 S
C948   H285    1.083   1_556 S
C949   O1001   1.274   .     A
C949   O999    1.281   .     A
C949   C952    1.456   .     S
C950   O1000   1.278   .     A
C950   O1002   1.292   .     A
C953   N996    1.424   .     S
C954   N993    1.448   .     S
C954   H991    1.110   .     S
C954   H1045   1.111   .     S
C954   H1070   1.111   .     S
C955   N994    1.446   .     S
C955   H971    1.111   .     S
C955   H268    1.112   1_556 S
C955   H1050   1.110   .     S
C956   H976    1.111   .     S
C956   H975    1.111   .     S
C956   H974    1.110   .     S
C956   N995    1.445   .     S
C957   H979    1.110   .     S
C957   H981    1.112   .     S
C957   N996    1.448   .     S
C957   H980    1.112   .     S
C958   H984    1.112   .     S
C958   H983    1.111   .     S
C958   H985    1.111   .     S
C958   N997    1.447   .     S
C959   H986    1.078   .     S
C960   C961    1.420   .     A
C960   C257    1.412   1_556 S
C960   C260    1.425   1_556 S
C961   C965    1.422   .     A
C963   C964    1.399   .     A
C963   C249    1.412   1_556 S
C963   C260    1.424   1_556 S
C964   C965    1.394   .     A
C964   H977    1.083   .     S
C965   N997    1.427   .     S
H967   C1110   1.111   1_455 S
H968   C1179   1.087   .     S
H969   N994    1.032   .     S
H972   C1111   1.110   1_455 S
H973   N995    1.030   .     S
H978   N996    1.031   .     S
H982   N997    1.031   .     S
H988   C1098   1.088   1_455 S
H990   N993    1.032   .     S
H992   C1110   1.111   1_455 S
N993   C1021   1.433   .     S
N994   C249    1.424   1_556 S
O998   Zn1013  1.934   .     S
O998   Zn1012  1.950   .     S
O998   Zn1011  1.956   .     S
O998   Zn1014  1.930   .     S
O999   Zn1012  1.925   .     S
O1000  Zn1014  1.936   .     S
O1001  Zn1013  1.934   .     S
O1002  Zn1011  1.923   .     S
O1003  Zn1011  1.929   .     S
O1004  Zn1014  1.930   .     S
O1005  Zn1012  1.932   .     S
O1006  Zn1013  1.943   .     S
O1007  Zn1014  1.942   .     S
O1008  Zn1011  1.932   .     S
O1009  Zn1012  1.932   .     S
O1010  Zn1013  1.928   .     S
C1015  O1085   1.269   .     A
C1015  O1083   1.266   .     A
C1015  C1021   1.436   .     S
C1016  C1030   1.403   .     A
C1016  N1073   1.427   .     S
C1016  C1040   1.423   .     A
C1017  C1029   1.392   .     A
C1017  H1067   1.085   .     S
C1017  C1030   1.394   .     A
C1018  O1084   1.287   .     A
C1018  C1020   1.458   .     S
C1018  O1086   1.268   .     A
C1019  C1031   1.422   .     A
C1019  C1028   1.488   .     S
C1019  C1039   1.425   .     A
C1020  C1099   1.350   .     S
C1020  H1144   1.088   .     S
C1022  C1025   1.451   .     S
C1022  C1257   1.331   .     S
C1022  H1278   1.088   .     S
C1023  C1024   1.435   .     S
C1024  O1081   1.279   .     A
C1024  O1087   1.279   .     A
C1025  O1088   1.270   .     A
C1025  O1082   1.271   .     A
C1026  C1031   1.392   .     A
C1026  C335    1.384   1_556 S
C1026  H363    1.083   1_556 S
C1027  O1079   1.274   .     A
C1027  O1077   1.281   .     A
C1027  C1030   1.456   .     S
C1028  O1078   1.278   .     A
C1028  O1080   1.292   .     A
C1031  N1074   1.424   .     S
C1032  N1071   1.448   .     S
C1032  H1069   1.110   .     S
C1032  H1123   1.111   .     S
C1032  H1148   1.111   .     S
C1033  N1072   1.446   .     S
C1033  H1049   1.111   .     S
C1033  H346    1.112   1_556 S
C1033  H1128   1.110   .     S
C1034  H1054   1.111   .     S
C1034  H1053   1.111   .     S
C1034  H1052   1.110   .     S
C1034  N1073   1.445   .     S
C1035  H1057   1.110   .     S
C1035  H1059   1.112   .     S
C1035  N1074   1.448   .     S
C1035  H1058   1.112   .     S
C1036  H1062   1.112   .     S
C1036  H1061   1.111   .     S
C1036  H1063   1.111   .     S
C1036  N1075   1.447   .     S
C1037  H1064   1.078   .     S
C1038  C1039   1.420   .     A
C1038  C335    1.412   1_556 S
C1038  C338    1.425   1_556 S
C1039  C1043   1.422   .     A
C1041  C1042   1.399   .     A
C1041  C327    1.412   1_556 S
C1041  C338    1.424   1_556 S
C1042  C1043   1.394   .     A
C1042  H1055   1.083   .     S
C1043  N1075   1.427   .     S
H1046  C1257   1.087   .     S
H1047  N1072   1.032   .     S
H1051  N1073   1.030   .     S
H1056  N1074   1.031   .     S
H1060  N1075   1.031   .     S
H1068  N1071   1.032   .     S
N1071  C1099   1.433   .     S
N1072  C327    1.424   1_556 S
O1076  Zn1091  1.934   .     S
O1076  Zn1090  1.950   .     S
O1076  Zn1089  1.956   .     S
O1076  Zn1092  1.930   .     S
O1077  Zn1090  1.925   .     S
O1078  Zn1092  1.936   .     S
O1079  Zn1091  1.934   .     S
O1080  Zn1089  1.923   .     S
O1081  Zn1089  1.929   .     S
O1082  Zn1092  1.930   .     S
O1083  Zn1090  1.932   .     S
O1084  Zn1091  1.943   .     S
O1085  Zn1092  1.942   .     S
O1086  Zn1089  1.932   .     S
O1087  Zn1090  1.932   .     S
O1088  Zn1091  1.928   .     S
C1093  O1163   1.269   .     A
C1093  O1161   1.266   .     A
C1093  C1099   1.436   .     S
C1094  C1108   1.403   .     A
C1094  N1151   1.427   .     S
C1094  C1118   1.423   .     A
C1095  C1107   1.392   .     A
C1095  H1145   1.085   .     S
C1095  C1108   1.394   .     A
C1096  O1162   1.287   .     A
C1096  C1098   1.458   .     S
C1096  O1164   1.268   .     A
C1097  C1109   1.422   .     A
C1097  C1106   1.488   .     S
C1097  C1117   1.425   .     A
C1098  C943    1.350   1_655 S
C1098  H988    1.088   1_655 S
C1100  C1103   1.451   .     S
C1100  C1335   1.331   .     S
C1100  H1356   1.088   .     S
C1101  C1102   1.435   .     S
C1102  O1159   1.279   .     A
C1102  O1165   1.279   .     A
C1103  O1166   1.270   .     A
C1103  O1160   1.271   .     A
C1104  C1109   1.392   .     A
C1104  C413    1.384   1_556 S
C1104  H441    1.083   1_556 S
C1105  O1157   1.274   .     A
C1105  O1155   1.281   .     A
C1105  C1108   1.456   .     S
C1106  O1156   1.278   .     A
C1106  O1158   1.292   .     A
C1109  N1152   1.424   .     S
C1110  N1149   1.448   .     S
C1110  H1147   1.110   .     S
C1110  H967    1.111   1_655 S
C1110  H992    1.111   1_655 S
C1111  N1150   1.446   .     S
C1111  H1127   1.111   .     S
C1111  H424    1.112   1_556 S
C1111  H972    1.110   1_655 S
C1112  H1132   1.111   .     S
C1112  H1131   1.111   .     S
C1112  H1130   1.110   .     S
C1112  N1151   1.445   .     S
C1113  H1135   1.110   .     S
C1113  H1137   1.112   .     S
C1113  N1152   1.448   .     S
C1113  H1136   1.112   .     S
C1114  H1140   1.112   .     S
C1114  H1139   1.111   .     S
C1114  H1141   1.111   .     S
C1114  N1153   1.447   .     S
C1115  H1142   1.078   .     S
C1116  C1117   1.420   .     A
C1116  C413    1.412   1_556 S
C1116  C416    1.425   1_556 S
C1117  C1121   1.422   .     A
C1119  C1120   1.399   .     A
C1119  C405    1.412   1_556 S
C1119  C416    1.424   1_556 S
C1120  C1121   1.394   .     A
C1120  H1133   1.083   .     S
C1121  N1153   1.427   .     S
H1124  C1335   1.087   .     S
H1125  N1150   1.032   .     S
H1129  N1151   1.030   .     S
H1134  N1152   1.031   .     S
H1138  N1153   1.031   .     S
H1146  N1149   1.032   .     S
N1149  C943    1.433   1_655 S
N1150  C405    1.424   1_556 S
O1154  Zn1169  1.934   .     S
O1154  Zn1168  1.950   .     S
O1154  Zn1167  1.956   .     S
O1154  Zn1170  1.930   .     S
O1155  Zn1168  1.925   .     S
O1156  Zn1170  1.936   .     S
O1157  Zn1169  1.934   .     S
O1158  Zn1167  1.923   .     S
O1159  Zn1167  1.929   .     S
O1160  Zn1170  1.930   .     S
O1161  Zn1168  1.932   .     S
O1162  Zn1169  1.943   .     S
O1163  Zn1170  1.942   .     S
O1164  Zn1167  1.932   .     S
O1165  Zn1168  1.932   .     S
O1166  Zn1169  1.928   .     S
C1171  O1241   1.269   .     A
C1171  O1239   1.266   .     A
C1171  C1177   1.436   .     S
C1172  C1186   1.403   .     A
C1172  N1229   1.427   .     S
C1172  C1196   1.423   .     A
C1173  C1185   1.392   .     A
C1173  H1223   1.085   .     S
C1173  C1186   1.394   .     A
C1174  O1240   1.287   .     A
C1174  C1176   1.458   .     S
C1174  O1242   1.268   .     A
C1175  C1187   1.422   .     A
C1175  C1184   1.488   .     S
C1175  C1195   1.425   .     A
C1176  C1255   1.350   .     S
C1176  H1300   1.088   .     S
C1177  C1332   1.350   1_455 S
C1177  N1383   1.433   1_455 S
C1178  C1181   1.451   .     S
C1178  C711    1.331   1_565 S
C1178  H732    1.088   1_565 S
C1179  C1180   1.435   .     S
C1180  O1237   1.279   .     A
C1180  O1243   1.279   .     A
C1181  O1244   1.270   .     A
C1181  O1238   1.271   .     A
C1182  C1187   1.392   .     A
C1182  C491    1.384   1_556 S
C1182  H519    1.083   1_556 S
C1183  O1235   1.274   .     A
C1183  O1233   1.281   .     A
C1183  C1186   1.456   .     S
C1184  O1234   1.278   .     A
C1184  O1236   1.292   .     A
C1187  N1230   1.424   .     S
C1188  N1227   1.448   .     S
C1188  H1225   1.110   .     S
C1188  H1279   1.111   .     S
C1188  H1304   1.111   .     S
C1189  N1228   1.446   .     S
C1189  H1205   1.111   .     S
C1189  H502    1.112   1_556 S
C1189  H1284   1.110   .     S
C1190  H1210   1.111   .     S
C1190  H1209   1.111   .     S
C1190  H1208   1.110   .     S
C1190  N1229   1.445   .     S
C1191  H1213   1.110   .     S
C1191  H1215   1.112   .     S
C1191  N1230   1.448   .     S
C1191  H1214   1.112   .     S
C1192  H1218   1.112   .     S
C1192  H1217   1.111   .     S
C1192  H1219   1.111   .     S
C1192  N1231   1.447   .     S
C1193  H1220   1.078   .     S
C1194  C1195   1.420   .     A
C1194  C491    1.412   1_556 S
C1194  C494    1.425   1_556 S
C1195  C1199   1.422   .     A
C1197  C1198   1.399   .     A
C1197  C483    1.412   1_556 S
C1197  C494    1.424   1_556 S
C1198  C1199   1.394   .     A
C1198  H1211   1.083   .     S
C1199  N1231   1.427   .     S
H1201  C1344   1.111   1_455 S
H1202  C711    1.087   1_565 S
H1203  N1228   1.032   .     S
H1206  C1345   1.110   1_455 S
H1207  N1229   1.030   .     S
H1212  N1230   1.031   .     S
H1216  N1231   1.031   .     S
H1222  C1332   1.088   1_455 S
H1224  N1227   1.032   .     S
H1226  C1344   1.111   1_455 S
N1227  C1255   1.433   .     S
N1228  C483    1.424   1_556 S
O1232  Zn1247  1.934   .     S
O1232  Zn1246  1.950   .     S
O1232  Zn1245  1.956   .     S
O1232  Zn1248  1.930   .     S
O1233  Zn1246  1.925   .     S
O1234  Zn1248  1.936   .     S
O1235  Zn1247  1.934   .     S
O1236  Zn1245  1.923   .     S
O1237  Zn1245  1.929   .     S
O1238  Zn1248  1.930   .     S
O1239  Zn1246  1.932   .     S
O1240  Zn1247  1.943   .     S
O1241  Zn1248  1.942   .     S
O1242  Zn1245  1.932   .     S
O1243  Zn1246  1.932   .     S
O1244  Zn1247  1.928   .     S
C1249  O1319   1.269   .     A
C1249  O1317   1.266   .     A
C1249  C1255   1.436   .     S
C1250  C1264   1.403   .     A
C1250  N1307   1.427   .     S
C1250  C1274   1.423   .     A
C1251  C1263   1.392   .     A
C1251  H1301   1.085   .     S
C1251  C1264   1.394   .     A
C1252  O1318   1.287   .     A
C1252  C1254   1.458   .     S
C1252  O1320   1.268   .     A
C1253  C1265   1.422   .     A
C1253  C1262   1.488   .     S
C1253  C1273   1.425   .     A
C1254  C1333   1.350   .     S
C1254  H1378   1.088   .     S
C1256  C1259   1.451   .     S
C1256  C789    1.331   1_565 S
C1256  H810    1.088   1_565 S
C1257  C1258   1.435   .     S
C1258  O1315   1.279   .     A
C1258  O1321   1.279   .     A
C1259  O1322   1.270   .     A
C1259  O1316   1.271   .     A
C1260  C1265   1.392   .     A
C1260  C569    1.384   1_556 S
C1260  H597    1.083   1_556 S
C1261  O1313   1.274   .     A
C1261  O1311   1.281   .     A
C1261  C1264   1.456   .     S
C1262  O1312   1.278   .     A
C1262  O1314   1.292   .     A
C1265  N1308   1.424   .     S
C1266  N1305   1.448   .     S
C1266  H1303   1.110   .     S
C1266  H1357   1.111   .     S
C1266  H1382   1.111   .     S
C1267  N1306   1.446   .     S
C1267  H1283   1.111   .     S
C1267  H580    1.112   1_556 S
C1267  H1362   1.110   .     S
C1268  H1288   1.111   .     S
C1268  H1287   1.111   .     S
C1268  H1286   1.110   .     S
C1268  N1307   1.445   .     S
C1269  H1291   1.110   .     S
C1269  H1293   1.112   .     S
C1269  N1308   1.448   .     S
C1269  H1292   1.112   .     S
C1270  H1296   1.112   .     S
C1270  H1295   1.111   .     S
C1270  H1297   1.111   .     S
C1270  N1309   1.447   .     S
C1271  H1298   1.078   .     S
C1272  C1273   1.420   .     A
C1272  C569    1.412   1_556 S
C1272  C572    1.425   1_556 S
C1273  C1277   1.422   .     A
C1275  C1276   1.399   .     A
C1275  C561    1.412   1_556 S
C1275  C572    1.424   1_556 S
C1276  C1277   1.394   .     A
C1276  H1289   1.083   .     S
C1277  N1309   1.427   .     S
H1280  C789    1.087   1_565 S
H1281  N1306   1.032   .     S
H1285  N1307   1.030   .     S
H1290  N1308   1.031   .     S
H1294  N1309   1.031   .     S
H1302  N1305   1.032   .     S
N1305  C1333   1.433   .     S
N1306  C561    1.424   1_556 S
O1310  Zn1325  1.934   .     S
O1310  Zn1324  1.950   .     S
O1310  Zn1323  1.956   .     S
O1310  Zn1326  1.930   .     S
O1311  Zn1324  1.925   .     S
O1312  Zn1326  1.936   .     S
O1313  Zn1325  1.934   .     S
O1314  Zn1323  1.923   .     S
O1315  Zn1323  1.929   .     S
O1316  Zn1326  1.930   .     S
O1317  Zn1324  1.932   .     S
O1318  Zn1325  1.943   .     S
O1319  Zn1326  1.942   .     S
O1320  Zn1323  1.932   .     S
O1321  Zn1324  1.932   .     S
O1322  Zn1325  1.928   .     S
C1327  O1397   1.269   .     A
C1327  O1395   1.266   .     A
C1327  C1333   1.436   .     S
C1328  C1342   1.403   .     A
C1328  N1385   1.427   .     S
C1328  C1352   1.423   .     A
C1329  C1341   1.392   .     A
C1329  H1379   1.085   .     S
C1329  C1342   1.394   .     A
C1330  O1396   1.287   .     A
C1330  C1332   1.458   .     S
C1330  O1398   1.268   .     A
C1331  C1343   1.422   .     A
C1331  C1340   1.488   .     S
C1331  C1351   1.425   .     A
C1332  C1177   1.350   1_655 S
C1332  H1222   1.088   1_655 S
C1334  C1337   1.451   .     S
C1334  C867    1.331   1_565 S
C1334  H888    1.088   1_565 S
C1335  C1336   1.435   .     S
C1336  O1393   1.279   .     A
C1336  O1399   1.279   .     A
C1337  O1400   1.270   .     A
C1337  O1394   1.271   .     A
C1338  C1343   1.392   .     A
C1338  C647    1.384   1_556 S
C1338  H675    1.083   1_556 S
C1339  O1391   1.274   .     A
C1339  O1389   1.281   .     A
C1339  C1342   1.456   .     S
C1340  O1390   1.278   .     A
C1340  O1392   1.292   .     A
C1343  N1386   1.424   .     S
C1344  N1383   1.448   .     S
C1344  H1381   1.110   .     S
C1344  H1201   1.111   1_655 S
C1344  H1226   1.111   1_655 S
C1345  N1384   1.446   .     S
C1345  H1361   1.111   .     S
C1345  H658    1.112   1_556 S
C1345  H1206   1.110   1_655 S
C1346  H1366   1.111   .     S
C1346  H1365   1.111   .     S
C1346  H1364   1.110   .     S
C1346  N1385   1.445   .     S
C1347  H1369   1.110   .     S
C1347  H1371   1.112   .     S
C1347  N1386   1.448   .     S
C1347  H1370   1.112   .     S
C1348  H1374   1.112   .     S
C1348  H1373   1.111   .     S
C1348  H1375   1.111   .     S
C1348  N1387   1.447   .     S
C1349  H1376   1.078   .     S
C1350  C1351   1.420   .     A
C1350  C647    1.412   1_556 S
C1350  C650    1.425   1_556 S
C1351  C1355   1.422   .     A
C1353  C1354   1.399   .     A
C1353  C639    1.412   1_556 S
C1353  C650    1.424   1_556 S
C1354  C1355   1.394   .     A
C1354  H1367   1.083   .     S
C1355  N1387   1.427   .     S
H1358  C867    1.087   1_565 S
H1359  N1384   1.032   .     S
H1363  N1385   1.030   .     S
H1368  N1386   1.031   .     S
H1372  N1387   1.031   .     S
H1380  N1383   1.032   .     S
N1383  C1177   1.433   1_655 S
N1384  C639    1.424   1_556 S
O1388  Zn1403  1.934   .     S
O1388  Zn1402  1.950   .     S
O1388  Zn1401  1.956   .     S
O1388  Zn1404  1.930   .     S
O1389  Zn1402  1.925   .     S
O1390  Zn1404  1.936   .     S
O1391  Zn1403  1.934   .     S
O1392  Zn1401  1.923   .     S
O1393  Zn1401  1.929   .     S
O1394  Zn1404  1.930   .     S
O1395  Zn1402  1.932   .     S
O1396  Zn1403  1.943   .     S
O1397  Zn1404  1.942   .     S
O1398  Zn1401  1.932   .     S
O1399  Zn1402  1.932   .     S
O1400  Zn1403  1.928   .     S
