data_str_m2_o1_o17_pcu_sym.59
_audit_creation_date              2020-01-03
_audit_creation_method            'Materials Studio'
_symmetry_space_group_name_H-M    'P1'
_symmetry_Int_Tables_number       1
_symmetry_cell_setting            triclinic
loop_
_symmetry_equiv_pos_as_xyz
  x,y,z
_cell_length_a                    32.4812
_cell_length_b                    28.5734
_cell_length_c                    30.0414
_cell_angle_alpha                 89.7207
_cell_angle_beta                  89.8906
_cell_angle_gamma                 90.0383
loop_
_atom_site_label
_atom_site_type_symbol
_atom_site_fract_x
_atom_site_fract_y
_atom_site_fract_z
_atom_site_U_iso_or_equiv
_atom_site_adp_type
_atom_site_occupancy
C1     C     0.08736   0.16666   0.24994   0.00000  Uiso   1.00
C2     C     0.04274   0.16665   0.24989   0.00000  Uiso   1.00
C3     C     0.13998   0.02492   0.22370   0.00000  Uiso   1.00
C4     C     0.19336   0.30842   0.27630   0.00000  Uiso   1.00
C5     C     0.19336   0.02467   0.27630   0.00000  Uiso   1.00
C6     C     0.13997   0.30866   0.22370   0.00000  Uiso   1.00
C7     C     0.16596   0.16679   0.16453   0.00000  Uiso   1.00
C8     C     0.16738   0.16655   0.33547   0.00000  Uiso   1.00
C9     C     0.20483   0.15452   0.40689   0.00000  Uiso   1.00
C10    C     0.12850   0.17882   0.09311   0.00000  Uiso   1.00
C11    C     0.16851   0.16616   0.38365   0.00000  Uiso   1.00
C12    C     0.24597   0.16668   0.25006   0.00000  Uiso   1.00
C13    C     0.16482   0.16717   0.11635   0.00000  Uiso   1.00
C14    C     0.13268   0.17873   0.40616   0.00000  Uiso   1.00
C15    C     0.20065   0.15460   0.09384   0.00000  Uiso   1.00
C16    C     0.13177   0.17908   0.45239   0.00000  Uiso   1.00
C17    C     0.20157   0.15425   0.04761   0.00000  Uiso   1.00
C18    C     0.16734   0.16672   0.47655   0.00000  Uiso   1.00
C19    C     0.16600   0.16661   0.02345   0.00000  Uiso   1.00
C20    C     0.20418   0.15446   0.45393   0.00000  Uiso   1.00
C21    C     0.12915   0.17887   0.04607   0.00000  Uiso   1.00
C22    C     0.09565   0.19160   0.47470   0.00000  Uiso   1.00
C23    C     0.09433   0.19172   0.02096   0.00000  Uiso   1.00
C24    C     0.23769   0.14172   0.02530   0.00000  Uiso   1.00
C25    C     0.24337   0.14457   0.38191   0.00000  Uiso   1.00
C26    C     0.08996   0.18877   0.11808   0.00000  Uiso   1.00
C27    C     0.23900   0.14160   0.47904   0.00000  Uiso   1.00
C28    C     0.02126   0.12416   0.25173   0.00000  Uiso   1.00
C29    C     0.31207   0.20917   0.24827   0.00000  Uiso   1.00
C30    C     0.31201   0.12418   0.25188   0.00000  Uiso   1.00
C31    C     0.02132   0.20916   0.24812   0.00000  Uiso   1.00
C32    C     0.29059   0.16668   0.25011   0.00000  Uiso   1.00
Cu33   Cu    0.16667   0.21355   0.25000   0.00000  Uiso   1.00
Cu34   Cu    0.16667   0.11978   0.25000   0.00000  Uiso   1.00
H35    H     0.10532   0.18804   0.38739   0.00000  Uiso   1.00
H36    H     0.03737   0.24237   0.24657   0.00000  Uiso   1.00
H37    H     0.11860   0.04368   0.20260   0.00000  Uiso   1.00
H38    H     0.21474   0.28965   0.29740   0.00000  Uiso   1.00
H39    H     0.21476   0.04323   0.29736   0.00000  Uiso   1.00
H40    H     0.11858   0.29010   0.20264   0.00000  Uiso   1.00
H41    H     0.30232   0.16264   0.36944   0.00000  Uiso   1.00
H42    H     0.03103   0.17070   0.13058   0.00000  Uiso   1.00
H43    H     0.22801   0.14529   0.11261   0.00000  Uiso   1.00
H44    H     0.06829   0.20147   0.45630   0.00000  Uiso   1.00
H45    H     0.26504   0.13185   0.04370   0.00000  Uiso   1.00
H46    H     0.06590   0.20240   0.03669   0.00000  Uiso   1.00
H47    H     0.26744   0.13092   0.46331   0.00000  Uiso   1.00
H48    H     0.03725   0.09093   0.25315   0.00000  Uiso   1.00
H49    H     0.29608   0.24240   0.24685   0.00000  Uiso   1.00
H50    H     0.29596   0.09096   0.25343   0.00000  Uiso   1.00
N51    N     0.16667   0.28402   0.25000   0.00000  Uiso   1.00
N52    N     0.16667   0.04931   0.25000   0.00000  Uiso   1.00
O53    O     0.10655   0.20625   0.24999   0.00000  Uiso   1.00
O54    O     0.27812   0.17255   0.38857   0.00000  Uiso   1.00
O55    O     0.08873   0.22116   0.14448   0.00000  Uiso   1.00
O56    O     0.05522   0.16078   0.11146   0.00000  Uiso   1.00
O57    O     0.22679   0.12709   0.25000   0.00000  Uiso   1.00
O58    O     0.22679   0.20625   0.25000   0.00000  Uiso   1.00
O59    O     0.10655   0.12709   0.24999   0.00000  Uiso   1.00
O60    O     0.16666   0.20627   0.18513   0.00000  Uiso   1.00
O61    O     0.16668   0.12707   0.31487   0.00000  Uiso   1.00
O62    O     0.16668   0.20627   0.31487   0.00000  Uiso   1.00
O63    O     0.16666   0.12707   0.18513   0.00000  Uiso   1.00
O64    O     0.24461   0.11220   0.35550   0.00000  Uiso   1.00
C65    C     0.42069   0.16666   0.24994   0.00000  Uiso   1.00
C66    C     0.37608   0.16665   0.24989   0.00000  Uiso   1.00
C67    C     0.47331   0.02492   0.22370   0.00000  Uiso   1.00
C68    C     0.52669   0.30842   0.27630   0.00000  Uiso   1.00
C69    C     0.52669   0.02467   0.27630   0.00000  Uiso   1.00
C70    C     0.47331   0.30866   0.22370   0.00000  Uiso   1.00
C71    C     0.49929   0.16679   0.16453   0.00000  Uiso   1.00
C72    C     0.50071   0.16655   0.33547   0.00000  Uiso   1.00
C73    C     0.53817   0.15452   0.40689   0.00000  Uiso   1.00
C74    C     0.46183   0.17882   0.09311   0.00000  Uiso   1.00
C75    C     0.50185   0.16616   0.38365   0.00000  Uiso   1.00
C76    C     0.57931   0.16668   0.25006   0.00000  Uiso   1.00
C77    C     0.49816   0.16717   0.11635   0.00000  Uiso   1.00
C78    C     0.46601   0.17873   0.40616   0.00000  Uiso   1.00
C79    C     0.53399   0.15460   0.09384   0.00000  Uiso   1.00
C80    C     0.46510   0.17908   0.45239   0.00000  Uiso   1.00
C81    C     0.53490   0.15425   0.04761   0.00000  Uiso   1.00
C82    C     0.50067   0.16672   0.47655   0.00000  Uiso   1.00
C83    C     0.49933   0.16661   0.02345   0.00000  Uiso   1.00
C84    C     0.53751   0.15446   0.45393   0.00000  Uiso   1.00
C85    C     0.46249   0.17887   0.04607   0.00000  Uiso   1.00
C86    C     0.42898   0.19160   0.47470   0.00000  Uiso   1.00
C87    C     0.42767   0.19172   0.02096   0.00000  Uiso   1.00
C88    C     0.57102   0.14172   0.02530   0.00000  Uiso   1.00
C89    C     0.57671   0.14457   0.38191   0.00000  Uiso   1.00
C90    C     0.42330   0.18877   0.11808   0.00000  Uiso   1.00
C91    C     0.57233   0.14160   0.47904   0.00000  Uiso   1.00
C92    C     0.35459   0.12416   0.25173   0.00000  Uiso   1.00
C93    C     0.64541   0.20917   0.24827   0.00000  Uiso   1.00
C94    C     0.64534   0.12418   0.25188   0.00000  Uiso   1.00
C95    C     0.35466   0.20916   0.24812   0.00000  Uiso   1.00
C96    C     0.62392   0.16668   0.25011   0.00000  Uiso   1.00
Cu97   Cu    0.50000   0.21355   0.25000   0.00000  Uiso   1.00
Cu98   Cu    0.50000   0.11978   0.25000   0.00000  Uiso   1.00
H99    H     0.43866   0.18804   0.38739   0.00000  Uiso   1.00
H100   H     0.37070   0.24237   0.24657   0.00000  Uiso   1.00
H101   H     0.45193   0.04368   0.20260   0.00000  Uiso   1.00
H102   H     0.54807   0.28965   0.29740   0.00000  Uiso   1.00
H103   H     0.54809   0.04323   0.29736   0.00000  Uiso   1.00
H104   H     0.45191   0.29010   0.20264   0.00000  Uiso   1.00
H105   H     0.63565   0.16264   0.36944   0.00000  Uiso   1.00
H106   H     0.36436   0.17070   0.13058   0.00000  Uiso   1.00
H107   H     0.56134   0.14529   0.11261   0.00000  Uiso   1.00
H108   H     0.40163   0.20147   0.45630   0.00000  Uiso   1.00
H109   H     0.59837   0.13185   0.04370   0.00000  Uiso   1.00
H110   H     0.39923   0.20240   0.03669   0.00000  Uiso   1.00
H111   H     0.60077   0.13092   0.46331   0.00000  Uiso   1.00
H112   H     0.37059   0.09093   0.25315   0.00000  Uiso   1.00
H113   H     0.62941   0.24240   0.24685   0.00000  Uiso   1.00
H114   H     0.62930   0.09096   0.25343   0.00000  Uiso   1.00
N115   N     0.50000   0.28402   0.25000   0.00000  Uiso   1.00
N116   N     0.50000   0.04931   0.25000   0.00000  Uiso   1.00
O117   O     0.43988   0.20625   0.24999   0.00000  Uiso   1.00
O118   O     0.61145   0.17255   0.38857   0.00000  Uiso   1.00
O119   O     0.42206   0.22116   0.14448   0.00000  Uiso   1.00
O120   O     0.38856   0.16078   0.11146   0.00000  Uiso   1.00
O121   O     0.56012   0.12709   0.25000   0.00000  Uiso   1.00
O122   O     0.56012   0.20625   0.25000   0.00000  Uiso   1.00
O123   O     0.43988   0.12709   0.24999   0.00000  Uiso   1.00
O124   O     0.49999   0.20627   0.18513   0.00000  Uiso   1.00
O125   O     0.50001   0.12707   0.31487   0.00000  Uiso   1.00
O126   O     0.50001   0.20627   0.31487   0.00000  Uiso   1.00
O127   O     0.49999   0.12707   0.18513   0.00000  Uiso   1.00
O128   O     0.57794   0.11220   0.35550   0.00000  Uiso   1.00
C129   C     0.75403   0.16666   0.24994   0.00000  Uiso   1.00
C130   C     0.70941   0.16665   0.24989   0.00000  Uiso   1.00
C131   C     0.80664   0.02492   0.22370   0.00000  Uiso   1.00
C132   C     0.86002   0.30842   0.27630   0.00000  Uiso   1.00
C133   C     0.86003   0.02467   0.27630   0.00000  Uiso   1.00
C134   C     0.80664   0.30866   0.22370   0.00000  Uiso   1.00
C135   C     0.83262   0.16679   0.16453   0.00000  Uiso   1.00
C136   C     0.83404   0.16655   0.33547   0.00000  Uiso   1.00
C137   C     0.87150   0.15452   0.40689   0.00000  Uiso   1.00
C138   C     0.79517   0.17882   0.09311   0.00000  Uiso   1.00
C139   C     0.83518   0.16616   0.38365   0.00000  Uiso   1.00
C140   C     0.91264   0.16668   0.25006   0.00000  Uiso   1.00
C141   C     0.83149   0.16717   0.11635   0.00000  Uiso   1.00
C142   C     0.79935   0.17873   0.40616   0.00000  Uiso   1.00
C143   C     0.86732   0.15460   0.09384   0.00000  Uiso   1.00
C144   C     0.79843   0.17908   0.45239   0.00000  Uiso   1.00
C145   C     0.86824   0.15425   0.04761   0.00000  Uiso   1.00
C146   C     0.83401   0.16672   0.47655   0.00000  Uiso   1.00
C147   C     0.83266   0.16661   0.02345   0.00000  Uiso   1.00
C148   C     0.87085   0.15446   0.45393   0.00000  Uiso   1.00
C149   C     0.79582   0.17887   0.04607   0.00000  Uiso   1.00
C150   C     0.76231   0.19160   0.47470   0.00000  Uiso   1.00
C151   C     0.76100   0.19172   0.02096   0.00000  Uiso   1.00
C152   C     0.90435   0.14172   0.02530   0.00000  Uiso   1.00
C153   C     0.91004   0.14457   0.38191   0.00000  Uiso   1.00
C154   C     0.75663   0.18877   0.11808   0.00000  Uiso   1.00
C155   C     0.90567   0.14160   0.47904   0.00000  Uiso   1.00
C156   C     0.68793   0.12416   0.25173   0.00000  Uiso   1.00
C157   C     0.97874   0.20917   0.24827   0.00000  Uiso   1.00
C158   C     0.97868   0.12418   0.25188   0.00000  Uiso   1.00
C159   C     0.68799   0.20916   0.24812   0.00000  Uiso   1.00
C160   C     0.95725   0.16668   0.25011   0.00000  Uiso   1.00
Cu161  Cu    0.83333   0.21355   0.25000   0.00000  Uiso   1.00
Cu162  Cu    0.83333   0.11978   0.25000   0.00000  Uiso   1.00
H163   H     0.77199   0.18804   0.38739   0.00000  Uiso   1.00
H164   H     0.70404   0.24237   0.24657   0.00000  Uiso   1.00
H165   H     0.78526   0.04368   0.20260   0.00000  Uiso   1.00
H166   H     0.88140   0.28965   0.29740   0.00000  Uiso   1.00
H167   H     0.88142   0.04323   0.29736   0.00000  Uiso   1.00
H168   H     0.78524   0.29010   0.20264   0.00000  Uiso   1.00
H169   H     0.96898   0.16264   0.36944   0.00000  Uiso   1.00
H170   H     0.69769   0.17070   0.13058   0.00000  Uiso   1.00
H171   H     0.89468   0.14529   0.11261   0.00000  Uiso   1.00
H172   H     0.73496   0.20147   0.45630   0.00000  Uiso   1.00
H173   H     0.93171   0.13185   0.04370   0.00000  Uiso   1.00
H174   H     0.73256   0.20240   0.03669   0.00000  Uiso   1.00
H175   H     0.93410   0.13092   0.46331   0.00000  Uiso   1.00
H176   H     0.70392   0.09093   0.25315   0.00000  Uiso   1.00
H177   H     0.96275   0.24240   0.24685   0.00000  Uiso   1.00
H178   H     0.96263   0.09096   0.25343   0.00000  Uiso   1.00
N179   N     0.83333   0.28402   0.25000   0.00000  Uiso   1.00
N180   N     0.83333   0.04931   0.25000   0.00000  Uiso   1.00
O181   O     0.77321   0.20625   0.24999   0.00000  Uiso   1.00
O182   O     0.94478   0.17255   0.38857   0.00000  Uiso   1.00
O183   O     0.75539   0.22116   0.14448   0.00000  Uiso   1.00
O184   O     0.72189   0.16078   0.11146   0.00000  Uiso   1.00
O185   O     0.89345   0.12709   0.25000   0.00000  Uiso   1.00
O186   O     0.89345   0.20625   0.25000   0.00000  Uiso   1.00
O187   O     0.77321   0.12709   0.24999   0.00000  Uiso   1.00
O188   O     0.83332   0.20627   0.18513   0.00000  Uiso   1.00
O189   O     0.83334   0.12707   0.31487   0.00000  Uiso   1.00
O190   O     0.83334   0.20627   0.31487   0.00000  Uiso   1.00
O191   O     0.83332   0.12707   0.18513   0.00000  Uiso   1.00
O192   O     0.91127   0.11220   0.35550   0.00000  Uiso   1.00
C193   C     0.08736   0.49999   0.24994   0.00000  Uiso   1.00
C194   C     0.04274   0.49999   0.24989   0.00000  Uiso   1.00
C195   C     0.13998   0.35825   0.22370   0.00000  Uiso   1.00
C196   C     0.19336   0.64175   0.27630   0.00000  Uiso   1.00
C197   C     0.19336   0.35801   0.27630   0.00000  Uiso   1.00
C198   C     0.13997   0.64199   0.22370   0.00000  Uiso   1.00
C199   C     0.16596   0.50012   0.16453   0.00000  Uiso   1.00
C200   C     0.16738   0.49988   0.33547   0.00000  Uiso   1.00
C201   C     0.20483   0.48785   0.40689   0.00000  Uiso   1.00
C202   C     0.12850   0.51215   0.09311   0.00000  Uiso   1.00
C203   C     0.16851   0.49949   0.38365   0.00000  Uiso   1.00
C204   C     0.24597   0.50001   0.25006   0.00000  Uiso   1.00
C205   C     0.16482   0.50051   0.11635   0.00000  Uiso   1.00
C206   C     0.13268   0.51207   0.40616   0.00000  Uiso   1.00
C207   C     0.20065   0.48793   0.09384   0.00000  Uiso   1.00
C208   C     0.13177   0.51242   0.45239   0.00000  Uiso   1.00
C209   C     0.20157   0.48758   0.04761   0.00000  Uiso   1.00
C210   C     0.16734   0.50005   0.47655   0.00000  Uiso   1.00
C211   C     0.16600   0.49995   0.02345   0.00000  Uiso   1.00
C212   C     0.20418   0.48780   0.45393   0.00000  Uiso   1.00
C213   C     0.12915   0.51220   0.04607   0.00000  Uiso   1.00
C214   C     0.09565   0.52494   0.47470   0.00000  Uiso   1.00
C215   C     0.09433   0.52506   0.02096   0.00000  Uiso   1.00
C216   C     0.23769   0.47506   0.02530   0.00000  Uiso   1.00
C217   C     0.24337   0.47790   0.38191   0.00000  Uiso   1.00
C218   C     0.08996   0.52211   0.11808   0.00000  Uiso   1.00
C219   C     0.23900   0.47494   0.47904   0.00000  Uiso   1.00
C220   C     0.02126   0.45749   0.25173   0.00000  Uiso   1.00
C221   C     0.31207   0.54251   0.24827   0.00000  Uiso   1.00
C222   C     0.31201   0.45751   0.25188   0.00000  Uiso   1.00
C223   C     0.02132   0.54249   0.24812   0.00000  Uiso   1.00
C224   C     0.29059   0.50001   0.25011   0.00000  Uiso   1.00
Cu225  Cu    0.16667   0.54689   0.25000   0.00000  Uiso   1.00
Cu226  Cu    0.16667   0.45311   0.25000   0.00000  Uiso   1.00
H227   H     0.10532   0.52137   0.38739   0.00000  Uiso   1.00
H228   H     0.03737   0.57571   0.24657   0.00000  Uiso   1.00
H229   H     0.11860   0.37702   0.20260   0.00000  Uiso   1.00
H230   H     0.21474   0.62298   0.29740   0.00000  Uiso   1.00
H231   H     0.21476   0.37657   0.29736   0.00000  Uiso   1.00
H232   H     0.11858   0.62343   0.20264   0.00000  Uiso   1.00
H233   H     0.30232   0.49597   0.36944   0.00000  Uiso   1.00
H234   H     0.03103   0.50403   0.13058   0.00000  Uiso   1.00
H235   H     0.22801   0.47863   0.11261   0.00000  Uiso   1.00
H236   H     0.06829   0.53481   0.45630   0.00000  Uiso   1.00
H237   H     0.26504   0.46519   0.04370   0.00000  Uiso   1.00
H238   H     0.06590   0.53573   0.03669   0.00000  Uiso   1.00
H239   H     0.26744   0.46426   0.46331   0.00000  Uiso   1.00
H240   H     0.03725   0.42427   0.25315   0.00000  Uiso   1.00
H241   H     0.29608   0.57573   0.24685   0.00000  Uiso   1.00
H242   H     0.29596   0.42429   0.25343   0.00000  Uiso   1.00
N243   N     0.16667   0.61736   0.25000   0.00000  Uiso   1.00
N244   N     0.16667   0.38264   0.25000   0.00000  Uiso   1.00
O245   O     0.10655   0.53958   0.24999   0.00000  Uiso   1.00
O246   O     0.27812   0.50588   0.38857   0.00000  Uiso   1.00
O247   O     0.08873   0.55449   0.14448   0.00000  Uiso   1.00
O248   O     0.05522   0.49411   0.11146   0.00000  Uiso   1.00
O249   O     0.22679   0.46042   0.25000   0.00000  Uiso   1.00
O250   O     0.22679   0.53958   0.25000   0.00000  Uiso   1.00
O251   O     0.10655   0.46042   0.24999   0.00000  Uiso   1.00
O252   O     0.16666   0.53960   0.18513   0.00000  Uiso   1.00
O253   O     0.16668   0.46040   0.31487   0.00000  Uiso   1.00
O254   O     0.16668   0.53960   0.31487   0.00000  Uiso   1.00
O255   O     0.16666   0.46040   0.18513   0.00000  Uiso   1.00
O256   O     0.24461   0.44553   0.35550   0.00000  Uiso   1.00
C257   C     0.42069   0.49999   0.24994   0.00000  Uiso   1.00
C258   C     0.37608   0.49999   0.24989   0.00000  Uiso   1.00
C259   C     0.47331   0.35825   0.22370   0.00000  Uiso   1.00
C260   C     0.52669   0.64175   0.27630   0.00000  Uiso   1.00
C261   C     0.52669   0.35801   0.27630   0.00000  Uiso   1.00
C262   C     0.47331   0.64199   0.22370   0.00000  Uiso   1.00
C263   C     0.49929   0.50012   0.16453   0.00000  Uiso   1.00
C264   C     0.50071   0.49988   0.33547   0.00000  Uiso   1.00
C265   C     0.53817   0.48785   0.40689   0.00000  Uiso   1.00
C266   C     0.46183   0.51215   0.09311   0.00000  Uiso   1.00
C267   C     0.50185   0.49949   0.38365   0.00000  Uiso   1.00
C268   C     0.57931   0.50001   0.25006   0.00000  Uiso   1.00
C269   C     0.49816   0.50051   0.11635   0.00000  Uiso   1.00
C270   C     0.46601   0.51207   0.40616   0.00000  Uiso   1.00
C271   C     0.53399   0.48793   0.09384   0.00000  Uiso   1.00
C272   C     0.46510   0.51242   0.45239   0.00000  Uiso   1.00
C273   C     0.53490   0.48758   0.04761   0.00000  Uiso   1.00
C274   C     0.50067   0.50005   0.47655   0.00000  Uiso   1.00
C275   C     0.49933   0.49995   0.02345   0.00000  Uiso   1.00
C276   C     0.53751   0.48780   0.45393   0.00000  Uiso   1.00
C277   C     0.46249   0.51220   0.04607   0.00000  Uiso   1.00
C278   C     0.42898   0.52494   0.47470   0.00000  Uiso   1.00
C279   C     0.42767   0.52506   0.02096   0.00000  Uiso   1.00
C280   C     0.57102   0.47506   0.02530   0.00000  Uiso   1.00
C281   C     0.57671   0.47790   0.38191   0.00000  Uiso   1.00
C282   C     0.42330   0.52211   0.11808   0.00000  Uiso   1.00
C283   C     0.57233   0.47494   0.47904   0.00000  Uiso   1.00
C284   C     0.35459   0.45749   0.25173   0.00000  Uiso   1.00
C285   C     0.64541   0.54251   0.24827   0.00000  Uiso   1.00
C286   C     0.64534   0.45751   0.25188   0.00000  Uiso   1.00
C287   C     0.35466   0.54249   0.24812   0.00000  Uiso   1.00
C288   C     0.62392   0.50001   0.25011   0.00000  Uiso   1.00
Cu289  Cu    0.50000   0.54689   0.25000   0.00000  Uiso   1.00
Cu290  Cu    0.50000   0.45311   0.25000   0.00000  Uiso   1.00
H291   H     0.43866   0.52137   0.38739   0.00000  Uiso   1.00
H292   H     0.37070   0.57571   0.24657   0.00000  Uiso   1.00
H293   H     0.45193   0.37702   0.20260   0.00000  Uiso   1.00
H294   H     0.54807   0.62298   0.29740   0.00000  Uiso   1.00
H295   H     0.54809   0.37657   0.29736   0.00000  Uiso   1.00
H296   H     0.45191   0.62343   0.20264   0.00000  Uiso   1.00
H297   H     0.63565   0.49597   0.36944   0.00000  Uiso   1.00
H298   H     0.36436   0.50403   0.13058   0.00000  Uiso   1.00
H299   H     0.56134   0.47863   0.11261   0.00000  Uiso   1.00
H300   H     0.40163   0.53481   0.45630   0.00000  Uiso   1.00
H301   H     0.59837   0.46519   0.04370   0.00000  Uiso   1.00
H302   H     0.39923   0.53573   0.03669   0.00000  Uiso   1.00
H303   H     0.60077   0.46426   0.46331   0.00000  Uiso   1.00
H304   H     0.37059   0.42427   0.25315   0.00000  Uiso   1.00
H305   H     0.62941   0.57573   0.24685   0.00000  Uiso   1.00
H306   H     0.62930   0.42429   0.25343   0.00000  Uiso   1.00
N307   N     0.50000   0.61736   0.25000   0.00000  Uiso   1.00
N308   N     0.50000   0.38264   0.25000   0.00000  Uiso   1.00
O309   O     0.43988   0.53958   0.24999   0.00000  Uiso   1.00
O310   O     0.61145   0.50588   0.38857   0.00000  Uiso   1.00
O311   O     0.42206   0.55449   0.14448   0.00000  Uiso   1.00
O312   O     0.38856   0.49411   0.11146   0.00000  Uiso   1.00
O313   O     0.56012   0.46042   0.25000   0.00000  Uiso   1.00
O314   O     0.56012   0.53958   0.25000   0.00000  Uiso   1.00
O315   O     0.43988   0.46042   0.24999   0.00000  Uiso   1.00
O316   O     0.49999   0.53960   0.18513   0.00000  Uiso   1.00
O317   O     0.50001   0.46040   0.31487   0.00000  Uiso   1.00
O318   O     0.50001   0.53960   0.31487   0.00000  Uiso   1.00
O319   O     0.49999   0.46040   0.18513   0.00000  Uiso   1.00
O320   O     0.57794   0.44553   0.35550   0.00000  Uiso   1.00
C321   C     0.75403   0.49999   0.24994   0.00000  Uiso   1.00
C322   C     0.70941   0.49999   0.24989   0.00000  Uiso   1.00
C323   C     0.80664   0.35825   0.22370   0.00000  Uiso   1.00
C324   C     0.86002   0.64175   0.27630   0.00000  Uiso   1.00
C325   C     0.86003   0.35801   0.27630   0.00000  Uiso   1.00
C326   C     0.80664   0.64199   0.22370   0.00000  Uiso   1.00
C327   C     0.83262   0.50012   0.16453   0.00000  Uiso   1.00
C328   C     0.83404   0.49988   0.33547   0.00000  Uiso   1.00
C329   C     0.87150   0.48785   0.40689   0.00000  Uiso   1.00
C330   C     0.79517   0.51215   0.09311   0.00000  Uiso   1.00
C331   C     0.83518   0.49949   0.38365   0.00000  Uiso   1.00
C332   C     0.91264   0.50001   0.25006   0.00000  Uiso   1.00
C333   C     0.83149   0.50051   0.11635   0.00000  Uiso   1.00
C334   C     0.79935   0.51207   0.40616   0.00000  Uiso   1.00
C335   C     0.86732   0.48793   0.09384   0.00000  Uiso   1.00
C336   C     0.79843   0.51242   0.45239   0.00000  Uiso   1.00
C337   C     0.86824   0.48758   0.04761   0.00000  Uiso   1.00
C338   C     0.83401   0.50005   0.47655   0.00000  Uiso   1.00
C339   C     0.83266   0.49995   0.02345   0.00000  Uiso   1.00
C340   C     0.87085   0.48780   0.45393   0.00000  Uiso   1.00
C341   C     0.79582   0.51220   0.04607   0.00000  Uiso   1.00
C342   C     0.76231   0.52494   0.47470   0.00000  Uiso   1.00
C343   C     0.76100   0.52506   0.02096   0.00000  Uiso   1.00
C344   C     0.90435   0.47506   0.02530   0.00000  Uiso   1.00
C345   C     0.91004   0.47790   0.38191   0.00000  Uiso   1.00
C346   C     0.75663   0.52211   0.11808   0.00000  Uiso   1.00
C347   C     0.90567   0.47494   0.47904   0.00000  Uiso   1.00
C348   C     0.68793   0.45749   0.25173   0.00000  Uiso   1.00
C349   C     0.97874   0.54251   0.24827   0.00000  Uiso   1.00
C350   C     0.97868   0.45751   0.25188   0.00000  Uiso   1.00
C351   C     0.68799   0.54249   0.24812   0.00000  Uiso   1.00
C352   C     0.95725   0.50001   0.25011   0.00000  Uiso   1.00
Cu353  Cu    0.83333   0.54689   0.25000   0.00000  Uiso   1.00
Cu354  Cu    0.83333   0.45311   0.25000   0.00000  Uiso   1.00
H355   H     0.77199   0.52137   0.38739   0.00000  Uiso   1.00
H356   H     0.70404   0.57571   0.24657   0.00000  Uiso   1.00
H357   H     0.78526   0.37702   0.20260   0.00000  Uiso   1.00
H358   H     0.88140   0.62298   0.29740   0.00000  Uiso   1.00
H359   H     0.88142   0.37657   0.29736   0.00000  Uiso   1.00
H360   H     0.78524   0.62343   0.20264   0.00000  Uiso   1.00
H361   H     0.96898   0.49597   0.36944   0.00000  Uiso   1.00
H362   H     0.69769   0.50403   0.13058   0.00000  Uiso   1.00
H363   H     0.89468   0.47863   0.11261   0.00000  Uiso   1.00
H364   H     0.73496   0.53481   0.45630   0.00000  Uiso   1.00
H365   H     0.93171   0.46519   0.04370   0.00000  Uiso   1.00
H366   H     0.73256   0.53573   0.03669   0.00000  Uiso   1.00
H367   H     0.93410   0.46426   0.46331   0.00000  Uiso   1.00
H368   H     0.70392   0.42427   0.25315   0.00000  Uiso   1.00
H369   H     0.96275   0.57573   0.24685   0.00000  Uiso   1.00
H370   H     0.96263   0.42429   0.25343   0.00000  Uiso   1.00
N371   N     0.83333   0.61736   0.25000   0.00000  Uiso   1.00
N372   N     0.83333   0.38264   0.25000   0.00000  Uiso   1.00
O373   O     0.77321   0.53958   0.24999   0.00000  Uiso   1.00
O374   O     0.94478   0.50588   0.38857   0.00000  Uiso   1.00
O375   O     0.75539   0.55449   0.14448   0.00000  Uiso   1.00
O376   O     0.72189   0.49411   0.11146   0.00000  Uiso   1.00
O377   O     0.89345   0.46042   0.25000   0.00000  Uiso   1.00
O378   O     0.89345   0.53958   0.25000   0.00000  Uiso   1.00
O379   O     0.77321   0.46042   0.24999   0.00000  Uiso   1.00
O380   O     0.83332   0.53960   0.18513   0.00000  Uiso   1.00
O381   O     0.83334   0.46040   0.31487   0.00000  Uiso   1.00
O382   O     0.83334   0.53960   0.31487   0.00000  Uiso   1.00
O383   O     0.83332   0.46040   0.18513   0.00000  Uiso   1.00
O384   O     0.91127   0.44553   0.35550   0.00000  Uiso   1.00
C385   C     0.08736   0.83332   0.24994   0.00000  Uiso   1.00
C386   C     0.04274   0.83332   0.24989   0.00000  Uiso   1.00
C387   C     0.13998   0.69158   0.22370   0.00000  Uiso   1.00
C388   C     0.19336   0.97508   0.27630   0.00000  Uiso   1.00
C389   C     0.19336   0.69134   0.27630   0.00000  Uiso   1.00
C390   C     0.13997   0.97533   0.22370   0.00000  Uiso   1.00
C391   C     0.16596   0.83345   0.16453   0.00000  Uiso   1.00
C392   C     0.16738   0.83321   0.33547   0.00000  Uiso   1.00
C393   C     0.20483   0.82118   0.40689   0.00000  Uiso   1.00
C394   C     0.12850   0.84549   0.09311   0.00000  Uiso   1.00
C395   C     0.16851   0.83283   0.38365   0.00000  Uiso   1.00
C396   C     0.24597   0.83334   0.25006   0.00000  Uiso   1.00
C397   C     0.16482   0.83384   0.11635   0.00000  Uiso   1.00
C398   C     0.13268   0.84540   0.40616   0.00000  Uiso   1.00
C399   C     0.20065   0.82126   0.09384   0.00000  Uiso   1.00
C400   C     0.13177   0.84575   0.45239   0.00000  Uiso   1.00
C401   C     0.20157   0.82091   0.04761   0.00000  Uiso   1.00
C402   C     0.16734   0.83338   0.47655   0.00000  Uiso   1.00
C403   C     0.16600   0.83328   0.02345   0.00000  Uiso   1.00
C404   C     0.20418   0.82113   0.45393   0.00000  Uiso   1.00
C405   C     0.12915   0.84553   0.04607   0.00000  Uiso   1.00
C406   C     0.09565   0.85827   0.47470   0.00000  Uiso   1.00
C407   C     0.09433   0.85839   0.02096   0.00000  Uiso   1.00
C408   C     0.23769   0.80839   0.02530   0.00000  Uiso   1.00
C409   C     0.24337   0.81123   0.38191   0.00000  Uiso   1.00
C410   C     0.08996   0.85544   0.11808   0.00000  Uiso   1.00
C411   C     0.23900   0.80827   0.47904   0.00000  Uiso   1.00
C412   C     0.02126   0.79083   0.25173   0.00000  Uiso   1.00
C413   C     0.31207   0.87584   0.24827   0.00000  Uiso   1.00
C414   C     0.31201   0.79084   0.25188   0.00000  Uiso   1.00
C415   C     0.02132   0.87582   0.24812   0.00000  Uiso   1.00
C416   C     0.29059   0.83335   0.25011   0.00000  Uiso   1.00
Cu417  Cu    0.16667   0.88022   0.25000   0.00000  Uiso   1.00
Cu418  Cu    0.16667   0.78645   0.25000   0.00000  Uiso   1.00
H419   H     0.10532   0.85470   0.38739   0.00000  Uiso   1.00
H420   H     0.03737   0.90904   0.24657   0.00000  Uiso   1.00
H421   H     0.11860   0.71035   0.20260   0.00000  Uiso   1.00
H422   H     0.21474   0.95632   0.29740   0.00000  Uiso   1.00
H423   H     0.21476   0.70990   0.29736   0.00000  Uiso   1.00
H424   H     0.11858   0.95677   0.20264   0.00000  Uiso   1.00
H425   H     0.30232   0.82930   0.36944   0.00000  Uiso   1.00
H426   H     0.03103   0.83736   0.13058   0.00000  Uiso   1.00
H427   H     0.22801   0.81196   0.11261   0.00000  Uiso   1.00
H428   H     0.06829   0.86814   0.45630   0.00000  Uiso   1.00
H429   H     0.26504   0.79852   0.04370   0.00000  Uiso   1.00
H430   H     0.06590   0.86907   0.03669   0.00000  Uiso   1.00
H431   H     0.26744   0.79759   0.46331   0.00000  Uiso   1.00
H432   H     0.03725   0.75760   0.25315   0.00000  Uiso   1.00
H433   H     0.29608   0.90907   0.24685   0.00000  Uiso   1.00
H434   H     0.29596   0.75763   0.25343   0.00000  Uiso   1.00
N435   N     0.16667   0.95069   0.25000   0.00000  Uiso   1.00
N436   N     0.16667   0.71598   0.25000   0.00000  Uiso   1.00
O437   O     0.10655   0.87291   0.24999   0.00000  Uiso   1.00
O438   O     0.27812   0.83922   0.38857   0.00000  Uiso   1.00
O439   O     0.08873   0.88783   0.14448   0.00000  Uiso   1.00
O440   O     0.05522   0.82744   0.11146   0.00000  Uiso   1.00
O441   O     0.22679   0.79375   0.25000   0.00000  Uiso   1.00
O442   O     0.22679   0.87291   0.25000   0.00000  Uiso   1.00
O443   O     0.10655   0.79375   0.24999   0.00000  Uiso   1.00
O444   O     0.16666   0.87293   0.18513   0.00000  Uiso   1.00
O445   O     0.16668   0.79373   0.31487   0.00000  Uiso   1.00
O446   O     0.16668   0.87293   0.31487   0.00000  Uiso   1.00
O447   O     0.16666   0.79373   0.18513   0.00000  Uiso   1.00
O448   O     0.24461   0.77887   0.35550   0.00000  Uiso   1.00
C449   C     0.42069   0.83332   0.24994   0.00000  Uiso   1.00
C450   C     0.37608   0.83332   0.24989   0.00000  Uiso   1.00
C451   C     0.47331   0.69158   0.22370   0.00000  Uiso   1.00
C452   C     0.52669   0.97508   0.27630   0.00000  Uiso   1.00
C453   C     0.52669   0.69134   0.27630   0.00000  Uiso   1.00
C454   C     0.47331   0.97533   0.22370   0.00000  Uiso   1.00
C455   C     0.49929   0.83345   0.16453   0.00000  Uiso   1.00
C456   C     0.50071   0.83321   0.33547   0.00000  Uiso   1.00
C457   C     0.53817   0.82118   0.40689   0.00000  Uiso   1.00
C458   C     0.46183   0.84549   0.09311   0.00000  Uiso   1.00
C459   C     0.50185   0.83283   0.38365   0.00000  Uiso   1.00
C460   C     0.57931   0.83334   0.25006   0.00000  Uiso   1.00
C461   C     0.49816   0.83384   0.11635   0.00000  Uiso   1.00
C462   C     0.46601   0.84540   0.40616   0.00000  Uiso   1.00
C463   C     0.53399   0.82126   0.09384   0.00000  Uiso   1.00
C464   C     0.46510   0.84575   0.45239   0.00000  Uiso   1.00
C465   C     0.53490   0.82091   0.04761   0.00000  Uiso   1.00
C466   C     0.50067   0.83338   0.47655   0.00000  Uiso   1.00
C467   C     0.49933   0.83328   0.02345   0.00000  Uiso   1.00
C468   C     0.53751   0.82113   0.45393   0.00000  Uiso   1.00
C469   C     0.46249   0.84553   0.04607   0.00000  Uiso   1.00
C470   C     0.42898   0.85827   0.47470   0.00000  Uiso   1.00
C471   C     0.42767   0.85839   0.02096   0.00000  Uiso   1.00
C472   C     0.57102   0.80839   0.02530   0.00000  Uiso   1.00
C473   C     0.57671   0.81123   0.38191   0.00000  Uiso   1.00
C474   C     0.42330   0.85544   0.11808   0.00000  Uiso   1.00
C475   C     0.57233   0.80827   0.47904   0.00000  Uiso   1.00
C476   C     0.35459   0.79083   0.25173   0.00000  Uiso   1.00
C477   C     0.64541   0.87584   0.24827   0.00000  Uiso   1.00
C478   C     0.64534   0.79084   0.25188   0.00000  Uiso   1.00
C479   C     0.35466   0.87582   0.24812   0.00000  Uiso   1.00
C480   C     0.62392   0.83335   0.25011   0.00000  Uiso   1.00
Cu481  Cu    0.50000   0.88022   0.25000   0.00000  Uiso   1.00
Cu482  Cu    0.50000   0.78645   0.25000   0.00000  Uiso   1.00
H483   H     0.43866   0.85470   0.38739   0.00000  Uiso   1.00
H484   H     0.37070   0.90904   0.24657   0.00000  Uiso   1.00
H485   H     0.45193   0.71035   0.20260   0.00000  Uiso   1.00
H486   H     0.54807   0.95632   0.29740   0.00000  Uiso   1.00
H487   H     0.54809   0.70990   0.29736   0.00000  Uiso   1.00
H488   H     0.45191   0.95677   0.20264   0.00000  Uiso   1.00
H489   H     0.63565   0.82930   0.36944   0.00000  Uiso   1.00
H490   H     0.36436   0.83736   0.13058   0.00000  Uiso   1.00
H491   H     0.56134   0.81196   0.11261   0.00000  Uiso   1.00
H492   H     0.40163   0.86814   0.45630   0.00000  Uiso   1.00
H493   H     0.59837   0.79852   0.04370   0.00000  Uiso   1.00
H494   H     0.39923   0.86907   0.03669   0.00000  Uiso   1.00
H495   H     0.60077   0.79759   0.46331   0.00000  Uiso   1.00
H496   H     0.37059   0.75760   0.25315   0.00000  Uiso   1.00
H497   H     0.62941   0.90907   0.24685   0.00000  Uiso   1.00
H498   H     0.62930   0.75763   0.25343   0.00000  Uiso   1.00
N499   N     0.50000   0.95069   0.25000   0.00000  Uiso   1.00
N500   N     0.50000   0.71598   0.25000   0.00000  Uiso   1.00
O501   O     0.43988   0.87291   0.24999   0.00000  Uiso   1.00
O502   O     0.61145   0.83922   0.38857   0.00000  Uiso   1.00
O503   O     0.42206   0.88783   0.14448   0.00000  Uiso   1.00
O504   O     0.38856   0.82744   0.11146   0.00000  Uiso   1.00
O505   O     0.56012   0.79375   0.25000   0.00000  Uiso   1.00
O506   O     0.56012   0.87291   0.25000   0.00000  Uiso   1.00
O507   O     0.43988   0.79375   0.24999   0.00000  Uiso   1.00
O508   O     0.49999   0.87293   0.18513   0.00000  Uiso   1.00
O509   O     0.50001   0.79373   0.31487   0.00000  Uiso   1.00
O510   O     0.50001   0.87293   0.31487   0.00000  Uiso   1.00
O511   O     0.49999   0.79373   0.18513   0.00000  Uiso   1.00
O512   O     0.57794   0.77887   0.35550   0.00000  Uiso   1.00
C513   C     0.75403   0.83332   0.24994   0.00000  Uiso   1.00
C514   C     0.70941   0.83332   0.24989   0.00000  Uiso   1.00
C515   C     0.80664   0.69158   0.22370   0.00000  Uiso   1.00
C516   C     0.86002   0.97508   0.27630   0.00000  Uiso   1.00
C517   C     0.86003   0.69134   0.27630   0.00000  Uiso   1.00
C518   C     0.80664   0.97533   0.22370   0.00000  Uiso   1.00
C519   C     0.83262   0.83345   0.16453   0.00000  Uiso   1.00
C520   C     0.83404   0.83321   0.33547   0.00000  Uiso   1.00
C521   C     0.87150   0.82118   0.40689   0.00000  Uiso   1.00
C522   C     0.79517   0.84549   0.09311   0.00000  Uiso   1.00
C523   C     0.83518   0.83283   0.38365   0.00000  Uiso   1.00
C524   C     0.91264   0.83334   0.25006   0.00000  Uiso   1.00
C525   C     0.83149   0.83384   0.11635   0.00000  Uiso   1.00
C526   C     0.79935   0.84540   0.40616   0.00000  Uiso   1.00
C527   C     0.86732   0.82126   0.09384   0.00000  Uiso   1.00
C528   C     0.79843   0.84575   0.45239   0.00000  Uiso   1.00
C529   C     0.86824   0.82091   0.04761   0.00000  Uiso   1.00
C530   C     0.83401   0.83338   0.47655   0.00000  Uiso   1.00
C531   C     0.83266   0.83328   0.02345   0.00000  Uiso   1.00
C532   C     0.87085   0.82113   0.45393   0.00000  Uiso   1.00
C533   C     0.79582   0.84553   0.04607   0.00000  Uiso   1.00
C534   C     0.76231   0.85827   0.47470   0.00000  Uiso   1.00
C535   C     0.76100   0.85839   0.02096   0.00000  Uiso   1.00
C536   C     0.90435   0.80839   0.02530   0.00000  Uiso   1.00
C537   C     0.91004   0.81123   0.38191   0.00000  Uiso   1.00
C538   C     0.75663   0.85544   0.11808   0.00000  Uiso   1.00
C539   C     0.90567   0.80827   0.47904   0.00000  Uiso   1.00
C540   C     0.68793   0.79083   0.25173   0.00000  Uiso   1.00
C541   C     0.97874   0.87584   0.24827   0.00000  Uiso   1.00
C542   C     0.97868   0.79084   0.25188   0.00000  Uiso   1.00
C543   C     0.68799   0.87582   0.24812   0.00000  Uiso   1.00
C544   C     0.95725   0.83335   0.25011   0.00000  Uiso   1.00
Cu545  Cu    0.83333   0.88022   0.25000   0.00000  Uiso   1.00
Cu546  Cu    0.83333   0.78645   0.25000   0.00000  Uiso   1.00
H547   H     0.77199   0.85470   0.38739   0.00000  Uiso   1.00
H548   H     0.70404   0.90904   0.24657   0.00000  Uiso   1.00
H549   H     0.78526   0.71035   0.20260   0.00000  Uiso   1.00
H550   H     0.88140   0.95632   0.29740   0.00000  Uiso   1.00
H551   H     0.88142   0.70990   0.29736   0.00000  Uiso   1.00
H552   H     0.78524   0.95677   0.20264   0.00000  Uiso   1.00
H553   H     0.96898   0.82930   0.36944   0.00000  Uiso   1.00
H554   H     0.69769   0.83736   0.13058   0.00000  Uiso   1.00
H555   H     0.89468   0.81196   0.11261   0.00000  Uiso   1.00
H556   H     0.73496   0.86814   0.45630   0.00000  Uiso   1.00
H557   H     0.93171   0.79852   0.04370   0.00000  Uiso   1.00
H558   H     0.73256   0.86907   0.03669   0.00000  Uiso   1.00
H559   H     0.93410   0.79759   0.46331   0.00000  Uiso   1.00
H560   H     0.70392   0.75760   0.25315   0.00000  Uiso   1.00
H561   H     0.96275   0.90907   0.24685   0.00000  Uiso   1.00
H562   H     0.96263   0.75763   0.25343   0.00000  Uiso   1.00
N563   N     0.83333   0.95069   0.25000   0.00000  Uiso   1.00
N564   N     0.83333   0.71598   0.25000   0.00000  Uiso   1.00
O565   O     0.77321   0.87291   0.24999   0.00000  Uiso   1.00
O566   O     0.94478   0.83922   0.38857   0.00000  Uiso   1.00
O567   O     0.75539   0.88783   0.14448   0.00000  Uiso   1.00
O568   O     0.72189   0.82744   0.11146   0.00000  Uiso   1.00
O569   O     0.89345   0.79375   0.25000   0.00000  Uiso   1.00
O570   O     0.89345   0.87291   0.25000   0.00000  Uiso   1.00
O571   O     0.77321   0.79375   0.24999   0.00000  Uiso   1.00
O572   O     0.83332   0.87293   0.18513   0.00000  Uiso   1.00
O573   O     0.83334   0.79373   0.31487   0.00000  Uiso   1.00
O574   O     0.83334   0.87293   0.31487   0.00000  Uiso   1.00
O575   O     0.83332   0.79373   0.18513   0.00000  Uiso   1.00
O576   O     0.91127   0.77887   0.35550   0.00000  Uiso   1.00
C577   C     0.08736   0.16666   0.74994   0.00000  Uiso   1.00
C578   C     0.04274   0.16665   0.74989   0.00000  Uiso   1.00
C579   C     0.13998   0.02492   0.72370   0.00000  Uiso   1.00
C580   C     0.19336   0.30842   0.77630   0.00000  Uiso   1.00
C581   C     0.19336   0.02467   0.77630   0.00000  Uiso   1.00
C582   C     0.13997   0.30866   0.72370   0.00000  Uiso   1.00
C583   C     0.16596   0.16679   0.66453   0.00000  Uiso   1.00
C584   C     0.16738   0.16655   0.83547   0.00000  Uiso   1.00
C585   C     0.20483   0.15452   0.90689   0.00000  Uiso   1.00
C586   C     0.12850   0.17882   0.59311   0.00000  Uiso   1.00
C587   C     0.16851   0.16616   0.88365   0.00000  Uiso   1.00
C588   C     0.24597   0.16668   0.75006   0.00000  Uiso   1.00
C589   C     0.16482   0.16717   0.61635   0.00000  Uiso   1.00
C590   C     0.13268   0.17873   0.90616   0.00000  Uiso   1.00
C591   C     0.20065   0.15460   0.59384   0.00000  Uiso   1.00
C592   C     0.13177   0.17908   0.95239   0.00000  Uiso   1.00
C593   C     0.20157   0.15425   0.54761   0.00000  Uiso   1.00
C594   C     0.16734   0.16672   0.97655   0.00000  Uiso   1.00
C595   C     0.16600   0.16661   0.52345   0.00000  Uiso   1.00
C596   C     0.20418   0.15446   0.95393   0.00000  Uiso   1.00
C597   C     0.12915   0.17887   0.54607   0.00000  Uiso   1.00
C598   C     0.09565   0.19160   0.97470   0.00000  Uiso   1.00
C599   C     0.09433   0.19172   0.52096   0.00000  Uiso   1.00
C600   C     0.23769   0.14172   0.52530   0.00000  Uiso   1.00
C601   C     0.24337   0.14457   0.88191   0.00000  Uiso   1.00
C602   C     0.08996   0.18877   0.61808   0.00000  Uiso   1.00
C603   C     0.23900   0.14160   0.97904   0.00000  Uiso   1.00
C604   C     0.02126   0.12416   0.75173   0.00000  Uiso   1.00
C605   C     0.31207   0.20917   0.74827   0.00000  Uiso   1.00
C606   C     0.31201   0.12418   0.75188   0.00000  Uiso   1.00
C607   C     0.02132   0.20916   0.74812   0.00000  Uiso   1.00
C608   C     0.29059   0.16668   0.75011   0.00000  Uiso   1.00
Cu609  Cu    0.16667   0.21355   0.75000   0.00000  Uiso   1.00
Cu610  Cu    0.16667   0.11978   0.75000   0.00000  Uiso   1.00
H611   H     0.10532   0.18804   0.88739   0.00000  Uiso   1.00
H612   H     0.03737   0.24237   0.74657   0.00000  Uiso   1.00
H613   H     0.11860   0.04368   0.70260   0.00000  Uiso   1.00
H614   H     0.21474   0.28965   0.79740   0.00000  Uiso   1.00
H615   H     0.21476   0.04323   0.79736   0.00000  Uiso   1.00
H616   H     0.11858   0.29010   0.70264   0.00000  Uiso   1.00
H617   H     0.30232   0.16264   0.86944   0.00000  Uiso   1.00
H618   H     0.03103   0.17070   0.63058   0.00000  Uiso   1.00
H619   H     0.22801   0.14529   0.61261   0.00000  Uiso   1.00
H620   H     0.06829   0.20147   0.95630   0.00000  Uiso   1.00
H621   H     0.26504   0.13185   0.54370   0.00000  Uiso   1.00
H622   H     0.06590   0.20240   0.53669   0.00000  Uiso   1.00
H623   H     0.26744   0.13092   0.96331   0.00000  Uiso   1.00
H624   H     0.03725   0.09093   0.75315   0.00000  Uiso   1.00
H625   H     0.29608   0.24240   0.74685   0.00000  Uiso   1.00
H626   H     0.29596   0.09096   0.75343   0.00000  Uiso   1.00
N627   N     0.16667   0.28402   0.75000   0.00000  Uiso   1.00
N628   N     0.16667   0.04931   0.75000   0.00000  Uiso   1.00
O629   O     0.10655   0.20625   0.74999   0.00000  Uiso   1.00
O630   O     0.27812   0.17255   0.88857   0.00000  Uiso   1.00
O631   O     0.08873   0.22116   0.64448   0.00000  Uiso   1.00
O632   O     0.05522   0.16078   0.61146   0.00000  Uiso   1.00
O633   O     0.22679   0.12709   0.75000   0.00000  Uiso   1.00
O634   O     0.22679   0.20625   0.75000   0.00000  Uiso   1.00
O635   O     0.10655   0.12709   0.74999   0.00000  Uiso   1.00
O636   O     0.16666   0.20627   0.68513   0.00000  Uiso   1.00
O637   O     0.16668   0.12707   0.81487   0.00000  Uiso   1.00
O638   O     0.16668   0.20627   0.81487   0.00000  Uiso   1.00
O639   O     0.16666   0.12707   0.68513   0.00000  Uiso   1.00
O640   O     0.24461   0.11220   0.85550   0.00000  Uiso   1.00
C641   C     0.42069   0.16666   0.74994   0.00000  Uiso   1.00
C642   C     0.37608   0.16665   0.74989   0.00000  Uiso   1.00
C643   C     0.47331   0.02492   0.72370   0.00000  Uiso   1.00
C644   C     0.52669   0.30842   0.77630   0.00000  Uiso   1.00
C645   C     0.52669   0.02467   0.77630   0.00000  Uiso   1.00
C646   C     0.47331   0.30866   0.72370   0.00000  Uiso   1.00
C647   C     0.49929   0.16679   0.66453   0.00000  Uiso   1.00
C648   C     0.50071   0.16655   0.83547   0.00000  Uiso   1.00
C649   C     0.53817   0.15452   0.90689   0.00000  Uiso   1.00
C650   C     0.46183   0.17882   0.59311   0.00000  Uiso   1.00
C651   C     0.50185   0.16616   0.88365   0.00000  Uiso   1.00
C652   C     0.57931   0.16668   0.75006   0.00000  Uiso   1.00
C653   C     0.49816   0.16717   0.61635   0.00000  Uiso   1.00
C654   C     0.46601   0.17873   0.90616   0.00000  Uiso   1.00
C655   C     0.53399   0.15460   0.59384   0.00000  Uiso   1.00
C656   C     0.46510   0.17908   0.95239   0.00000  Uiso   1.00
C657   C     0.53490   0.15425   0.54761   0.00000  Uiso   1.00
C658   C     0.50067   0.16672   0.97655   0.00000  Uiso   1.00
C659   C     0.49933   0.16661   0.52345   0.00000  Uiso   1.00
C660   C     0.53751   0.15446   0.95393   0.00000  Uiso   1.00
C661   C     0.46249   0.17887   0.54607   0.00000  Uiso   1.00
C662   C     0.42898   0.19160   0.97470   0.00000  Uiso   1.00
C663   C     0.42767   0.19172   0.52096   0.00000  Uiso   1.00
C664   C     0.57102   0.14172   0.52530   0.00000  Uiso   1.00
C665   C     0.57671   0.14457   0.88191   0.00000  Uiso   1.00
C666   C     0.42330   0.18877   0.61808   0.00000  Uiso   1.00
C667   C     0.57233   0.14160   0.97904   0.00000  Uiso   1.00
C668   C     0.35459   0.12416   0.75173   0.00000  Uiso   1.00
C669   C     0.64541   0.20917   0.74827   0.00000  Uiso   1.00
C670   C     0.64534   0.12418   0.75188   0.00000  Uiso   1.00
C671   C     0.35466   0.20916   0.74812   0.00000  Uiso   1.00
C672   C     0.62392   0.16668   0.75011   0.00000  Uiso   1.00
Cu673  Cu    0.50000   0.21355   0.75000   0.00000  Uiso   1.00
Cu674  Cu    0.50000   0.11978   0.75000   0.00000  Uiso   1.00
H675   H     0.43866   0.18804   0.88739   0.00000  Uiso   1.00
H676   H     0.37070   0.24237   0.74657   0.00000  Uiso   1.00
H677   H     0.45193   0.04368   0.70260   0.00000  Uiso   1.00
H678   H     0.54807   0.28965   0.79740   0.00000  Uiso   1.00
H679   H     0.54809   0.04323   0.79736   0.00000  Uiso   1.00
H680   H     0.45191   0.29010   0.70264   0.00000  Uiso   1.00
H681   H     0.63565   0.16264   0.86944   0.00000  Uiso   1.00
H682   H     0.36436   0.17070   0.63058   0.00000  Uiso   1.00
H683   H     0.56134   0.14529   0.61261   0.00000  Uiso   1.00
H684   H     0.40163   0.20147   0.95630   0.00000  Uiso   1.00
H685   H     0.59837   0.13185   0.54370   0.00000  Uiso   1.00
H686   H     0.39923   0.20240   0.53669   0.00000  Uiso   1.00
H687   H     0.60077   0.13092   0.96331   0.00000  Uiso   1.00
H688   H     0.37059   0.09093   0.75315   0.00000  Uiso   1.00
H689   H     0.62941   0.24240   0.74685   0.00000  Uiso   1.00
H690   H     0.62930   0.09096   0.75343   0.00000  Uiso   1.00
N691   N     0.50000   0.28402   0.75000   0.00000  Uiso   1.00
N692   N     0.50000   0.04931   0.75000   0.00000  Uiso   1.00
O693   O     0.43988   0.20625   0.74999   0.00000  Uiso   1.00
O694   O     0.61145   0.17255   0.88857   0.00000  Uiso   1.00
O695   O     0.42206   0.22116   0.64448   0.00000  Uiso   1.00
O696   O     0.38856   0.16078   0.61146   0.00000  Uiso   1.00
O697   O     0.56012   0.12709   0.75000   0.00000  Uiso   1.00
O698   O     0.56012   0.20625   0.75000   0.00000  Uiso   1.00
O699   O     0.43988   0.12709   0.74999   0.00000  Uiso   1.00
O700   O     0.49999   0.20627   0.68513   0.00000  Uiso   1.00
O701   O     0.50001   0.12707   0.81487   0.00000  Uiso   1.00
O702   O     0.50001   0.20627   0.81487   0.00000  Uiso   1.00
O703   O     0.49999   0.12707   0.68513   0.00000  Uiso   1.00
O704   O     0.57794   0.11220   0.85550   0.00000  Uiso   1.00
C705   C     0.75403   0.16666   0.74994   0.00000  Uiso   1.00
C706   C     0.70941   0.16665   0.74989   0.00000  Uiso   1.00
C707   C     0.80664   0.02492   0.72370   0.00000  Uiso   1.00
C708   C     0.86002   0.30842   0.77630   0.00000  Uiso   1.00
C709   C     0.86003   0.02467   0.77630   0.00000  Uiso   1.00
C710   C     0.80664   0.30866   0.72370   0.00000  Uiso   1.00
C711   C     0.83262   0.16679   0.66453   0.00000  Uiso   1.00
C712   C     0.83404   0.16655   0.83547   0.00000  Uiso   1.00
C713   C     0.87150   0.15452   0.90689   0.00000  Uiso   1.00
C714   C     0.79517   0.17882   0.59311   0.00000  Uiso   1.00
C715   C     0.83518   0.16616   0.88365   0.00000  Uiso   1.00
C716   C     0.91264   0.16668   0.75006   0.00000  Uiso   1.00
C717   C     0.83149   0.16717   0.61635   0.00000  Uiso   1.00
C718   C     0.79935   0.17873   0.90616   0.00000  Uiso   1.00
C719   C     0.86732   0.15460   0.59384   0.00000  Uiso   1.00
C720   C     0.79843   0.17908   0.95239   0.00000  Uiso   1.00
C721   C     0.86824   0.15425   0.54761   0.00000  Uiso   1.00
C722   C     0.83401   0.16672   0.97655   0.00000  Uiso   1.00
C723   C     0.83266   0.16661   0.52345   0.00000  Uiso   1.00
C724   C     0.87085   0.15446   0.95393   0.00000  Uiso   1.00
C725   C     0.79582   0.17887   0.54607   0.00000  Uiso   1.00
C726   C     0.76231   0.19160   0.97470   0.00000  Uiso   1.00
C727   C     0.76100   0.19172   0.52096   0.00000  Uiso   1.00
C728   C     0.90435   0.14172   0.52530   0.00000  Uiso   1.00
C729   C     0.91004   0.14457   0.88191   0.00000  Uiso   1.00
C730   C     0.75663   0.18877   0.61808   0.00000  Uiso   1.00
C731   C     0.90567   0.14160   0.97904   0.00000  Uiso   1.00
C732   C     0.68793   0.12416   0.75173   0.00000  Uiso   1.00
C733   C     0.97874   0.20917   0.74827   0.00000  Uiso   1.00
C734   C     0.97868   0.12418   0.75188   0.00000  Uiso   1.00
C735   C     0.68799   0.20916   0.74812   0.00000  Uiso   1.00
C736   C     0.95725   0.16668   0.75011   0.00000  Uiso   1.00
Cu737  Cu    0.83333   0.21355   0.75000   0.00000  Uiso   1.00
Cu738  Cu    0.83333   0.11978   0.75000   0.00000  Uiso   1.00
H739   H     0.77199   0.18804   0.88739   0.00000  Uiso   1.00
H740   H     0.70404   0.24237   0.74657   0.00000  Uiso   1.00
H741   H     0.78526   0.04368   0.70260   0.00000  Uiso   1.00
H742   H     0.88140   0.28965   0.79740   0.00000  Uiso   1.00
H743   H     0.88142   0.04323   0.79736   0.00000  Uiso   1.00
H744   H     0.78524   0.29010   0.70264   0.00000  Uiso   1.00
H745   H     0.96898   0.16264   0.86944   0.00000  Uiso   1.00
H746   H     0.69769   0.17070   0.63058   0.00000  Uiso   1.00
H747   H     0.89468   0.14529   0.61261   0.00000  Uiso   1.00
H748   H     0.73496   0.20147   0.95630   0.00000  Uiso   1.00
H749   H     0.93171   0.13185   0.54370   0.00000  Uiso   1.00
H750   H     0.73256   0.20240   0.53669   0.00000  Uiso   1.00
H751   H     0.93410   0.13092   0.96331   0.00000  Uiso   1.00
H752   H     0.70392   0.09093   0.75315   0.00000  Uiso   1.00
H753   H     0.96275   0.24240   0.74685   0.00000  Uiso   1.00
H754   H     0.96263   0.09096   0.75343   0.00000  Uiso   1.00
N755   N     0.83333   0.28402   0.75000   0.00000  Uiso   1.00
N756   N     0.83333   0.04931   0.75000   0.00000  Uiso   1.00
O757   O     0.77321   0.20625   0.74999   0.00000  Uiso   1.00
O758   O     0.94478   0.17255   0.88857   0.00000  Uiso   1.00
O759   O     0.75539   0.22116   0.64448   0.00000  Uiso   1.00
O760   O     0.72189   0.16078   0.61146   0.00000  Uiso   1.00
O761   O     0.89345   0.12709   0.75000   0.00000  Uiso   1.00
O762   O     0.89345   0.20625   0.75000   0.00000  Uiso   1.00
O763   O     0.77321   0.12709   0.74999   0.00000  Uiso   1.00
O764   O     0.83332   0.20627   0.68513   0.00000  Uiso   1.00
O765   O     0.83334   0.12707   0.81487   0.00000  Uiso   1.00
O766   O     0.83334   0.20627   0.81487   0.00000  Uiso   1.00
O767   O     0.83332   0.12707   0.68513   0.00000  Uiso   1.00
O768   O     0.91127   0.11220   0.85550   0.00000  Uiso   1.00
C769   C     0.08736   0.49999   0.74994   0.00000  Uiso   1.00
C770   C     0.04274   0.49999   0.74989   0.00000  Uiso   1.00
C771   C     0.13998   0.35825   0.72370   0.00000  Uiso   1.00
C772   C     0.19336   0.64175   0.77630   0.00000  Uiso   1.00
C773   C     0.19336   0.35801   0.77630   0.00000  Uiso   1.00
C774   C     0.13997   0.64199   0.72370   0.00000  Uiso   1.00
C775   C     0.16596   0.50012   0.66453   0.00000  Uiso   1.00
C776   C     0.16738   0.49988   0.83547   0.00000  Uiso   1.00
C777   C     0.20483   0.48785   0.90689   0.00000  Uiso   1.00
C778   C     0.12850   0.51215   0.59311   0.00000  Uiso   1.00
C779   C     0.16851   0.49949   0.88365   0.00000  Uiso   1.00
C780   C     0.24597   0.50001   0.75006   0.00000  Uiso   1.00
C781   C     0.16482   0.50051   0.61635   0.00000  Uiso   1.00
C782   C     0.13268   0.51207   0.90616   0.00000  Uiso   1.00
C783   C     0.20065   0.48793   0.59384   0.00000  Uiso   1.00
C784   C     0.13177   0.51242   0.95239   0.00000  Uiso   1.00
C785   C     0.20157   0.48758   0.54761   0.00000  Uiso   1.00
C786   C     0.16734   0.50005   0.97655   0.00000  Uiso   1.00
C787   C     0.16600   0.49995   0.52345   0.00000  Uiso   1.00
C788   C     0.20418   0.48780   0.95393   0.00000  Uiso   1.00
C789   C     0.12915   0.51220   0.54607   0.00000  Uiso   1.00
C790   C     0.09565   0.52494   0.97470   0.00000  Uiso   1.00
C791   C     0.09433   0.52506   0.52096   0.00000  Uiso   1.00
C792   C     0.23769   0.47506   0.52530   0.00000  Uiso   1.00
C793   C     0.24337   0.47790   0.88191   0.00000  Uiso   1.00
C794   C     0.08996   0.52211   0.61808   0.00000  Uiso   1.00
C795   C     0.23900   0.47494   0.97904   0.00000  Uiso   1.00
C796   C     0.02126   0.45749   0.75173   0.00000  Uiso   1.00
C797   C     0.31207   0.54251   0.74827   0.00000  Uiso   1.00
C798   C     0.31201   0.45751   0.75188   0.00000  Uiso   1.00
C799   C     0.02132   0.54249   0.74812   0.00000  Uiso   1.00
C800   C     0.29059   0.50001   0.75011   0.00000  Uiso   1.00
Cu801  Cu    0.16667   0.54689   0.75000   0.00000  Uiso   1.00
Cu802  Cu    0.16667   0.45311   0.75000   0.00000  Uiso   1.00
H803   H     0.10532   0.52137   0.88739   0.00000  Uiso   1.00
H804   H     0.03737   0.57571   0.74657   0.00000  Uiso   1.00
H805   H     0.11860   0.37702   0.70260   0.00000  Uiso   1.00
H806   H     0.21474   0.62298   0.79740   0.00000  Uiso   1.00
H807   H     0.21476   0.37657   0.79736   0.00000  Uiso   1.00
H808   H     0.11858   0.62343   0.70264   0.00000  Uiso   1.00
H809   H     0.30232   0.49597   0.86944   0.00000  Uiso   1.00
H810   H     0.03103   0.50403   0.63058   0.00000  Uiso   1.00
H811   H     0.22801   0.47863   0.61261   0.00000  Uiso   1.00
H812   H     0.06829   0.53481   0.95630   0.00000  Uiso   1.00
H813   H     0.26504   0.46519   0.54370   0.00000  Uiso   1.00
H814   H     0.06590   0.53573   0.53669   0.00000  Uiso   1.00
H815   H     0.26744   0.46426   0.96331   0.00000  Uiso   1.00
H816   H     0.03725   0.42427   0.75315   0.00000  Uiso   1.00
H817   H     0.29608   0.57573   0.74685   0.00000  Uiso   1.00
H818   H     0.29596   0.42429   0.75343   0.00000  Uiso   1.00
N819   N     0.16667   0.61736   0.75000   0.00000  Uiso   1.00
N820   N     0.16667   0.38264   0.75000   0.00000  Uiso   1.00
O821   O     0.10655   0.53958   0.74999   0.00000  Uiso   1.00
O822   O     0.27812   0.50588   0.88857   0.00000  Uiso   1.00
O823   O     0.08873   0.55449   0.64448   0.00000  Uiso   1.00
O824   O     0.05522   0.49411   0.61146   0.00000  Uiso   1.00
O825   O     0.22679   0.46042   0.75000   0.00000  Uiso   1.00
O826   O     0.22679   0.53958   0.75000   0.00000  Uiso   1.00
O827   O     0.10655   0.46042   0.74999   0.00000  Uiso   1.00
O828   O     0.16666   0.53960   0.68513   0.00000  Uiso   1.00
O829   O     0.16668   0.46040   0.81487   0.00000  Uiso   1.00
O830   O     0.16668   0.53960   0.81487   0.00000  Uiso   1.00
O831   O     0.16666   0.46040   0.68513   0.00000  Uiso   1.00
O832   O     0.24461   0.44553   0.85550   0.00000  Uiso   1.00
C833   C     0.42069   0.49999   0.74994   0.00000  Uiso   1.00
C834   C     0.37608   0.49999   0.74989   0.00000  Uiso   1.00
C835   C     0.47331   0.35825   0.72370   0.00000  Uiso   1.00
C836   C     0.52669   0.64175   0.77630   0.00000  Uiso   1.00
C837   C     0.52669   0.35801   0.77630   0.00000  Uiso   1.00
C838   C     0.47331   0.64199   0.72370   0.00000  Uiso   1.00
C839   C     0.49929   0.50012   0.66453   0.00000  Uiso   1.00
C840   C     0.50071   0.49988   0.83547   0.00000  Uiso   1.00
C841   C     0.53817   0.48785   0.90689   0.00000  Uiso   1.00
C842   C     0.46183   0.51215   0.59311   0.00000  Uiso   1.00
C843   C     0.50185   0.49949   0.88365   0.00000  Uiso   1.00
C844   C     0.57931   0.50001   0.75006   0.00000  Uiso   1.00
C845   C     0.49816   0.50051   0.61635   0.00000  Uiso   1.00
C846   C     0.46601   0.51207   0.90616   0.00000  Uiso   1.00
C847   C     0.53399   0.48793   0.59384   0.00000  Uiso   1.00
C848   C     0.46510   0.51242   0.95239   0.00000  Uiso   1.00
C849   C     0.53490   0.48758   0.54761   0.00000  Uiso   1.00
C850   C     0.50067   0.50005   0.97655   0.00000  Uiso   1.00
C851   C     0.49933   0.49995   0.52345   0.00000  Uiso   1.00
C852   C     0.53751   0.48780   0.95393   0.00000  Uiso   1.00
C853   C     0.46249   0.51220   0.54607   0.00000  Uiso   1.00
C854   C     0.42898   0.52494   0.97470   0.00000  Uiso   1.00
C855   C     0.42767   0.52506   0.52096   0.00000  Uiso   1.00
C856   C     0.57102   0.47506   0.52530   0.00000  Uiso   1.00
C857   C     0.57671   0.47790   0.88191   0.00000  Uiso   1.00
C858   C     0.42330   0.52211   0.61808   0.00000  Uiso   1.00
C859   C     0.57233   0.47494   0.97904   0.00000  Uiso   1.00
C860   C     0.35459   0.45749   0.75173   0.00000  Uiso   1.00
C861   C     0.64541   0.54251   0.74827   0.00000  Uiso   1.00
C862   C     0.64534   0.45751   0.75188   0.00000  Uiso   1.00
C863   C     0.35466   0.54249   0.74812   0.00000  Uiso   1.00
C864   C     0.62392   0.50001   0.75011   0.00000  Uiso   1.00
Cu865  Cu    0.50000   0.54689   0.75000   0.00000  Uiso   1.00
Cu866  Cu    0.50000   0.45311   0.75000   0.00000  Uiso   1.00
H867   H     0.43866   0.52137   0.88739   0.00000  Uiso   1.00
H868   H     0.37070   0.57571   0.74657   0.00000  Uiso   1.00
H869   H     0.45193   0.37702   0.70260   0.00000  Uiso   1.00
H870   H     0.54807   0.62298   0.79740   0.00000  Uiso   1.00
H871   H     0.54809   0.37657   0.79736   0.00000  Uiso   1.00
H872   H     0.45191   0.62343   0.70264   0.00000  Uiso   1.00
H873   H     0.63565   0.49597   0.86944   0.00000  Uiso   1.00
H874   H     0.36436   0.50403   0.63058   0.00000  Uiso   1.00
H875   H     0.56134   0.47863   0.61261   0.00000  Uiso   1.00
H876   H     0.40163   0.53481   0.95630   0.00000  Uiso   1.00
H877   H     0.59837   0.46519   0.54370   0.00000  Uiso   1.00
H878   H     0.39923   0.53573   0.53669   0.00000  Uiso   1.00
H879   H     0.60077   0.46426   0.96331   0.00000  Uiso   1.00
H880   H     0.37059   0.42427   0.75315   0.00000  Uiso   1.00
H881   H     0.62941   0.57573   0.74685   0.00000  Uiso   1.00
H882   H     0.62930   0.42429   0.75343   0.00000  Uiso   1.00
N883   N     0.50000   0.61736   0.75000   0.00000  Uiso   1.00
N884   N     0.50000   0.38264   0.75000   0.00000  Uiso   1.00
O885   O     0.43988   0.53958   0.74999   0.00000  Uiso   1.00
O886   O     0.61145   0.50588   0.88857   0.00000  Uiso   1.00
O887   O     0.42206   0.55449   0.64448   0.00000  Uiso   1.00
O888   O     0.38856   0.49411   0.61146   0.00000  Uiso   1.00
O889   O     0.56012   0.46042   0.75000   0.00000  Uiso   1.00
O890   O     0.56012   0.53958   0.75000   0.00000  Uiso   1.00
O891   O     0.43988   0.46042   0.74999   0.00000  Uiso   1.00
O892   O     0.49999   0.53960   0.68513   0.00000  Uiso   1.00
O893   O     0.50001   0.46040   0.81487   0.00000  Uiso   1.00
O894   O     0.50001   0.53960   0.81487   0.00000  Uiso   1.00
O895   O     0.49999   0.46040   0.68513   0.00000  Uiso   1.00
O896   O     0.57794   0.44553   0.85550   0.00000  Uiso   1.00
C897   C     0.75403   0.49999   0.74994   0.00000  Uiso   1.00
C898   C     0.70941   0.49999   0.74989   0.00000  Uiso   1.00
C899   C     0.80664   0.35825   0.72370   0.00000  Uiso   1.00
C900   C     0.86002   0.64175   0.77630   0.00000  Uiso   1.00
C901   C     0.86003   0.35801   0.77630   0.00000  Uiso   1.00
C902   C     0.80664   0.64199   0.72370   0.00000  Uiso   1.00
C903   C     0.83262   0.50012   0.66453   0.00000  Uiso   1.00
C904   C     0.83404   0.49988   0.83547   0.00000  Uiso   1.00
C905   C     0.87150   0.48785   0.90689   0.00000  Uiso   1.00
C906   C     0.79517   0.51215   0.59311   0.00000  Uiso   1.00
C907   C     0.83518   0.49949   0.88365   0.00000  Uiso   1.00
C908   C     0.91264   0.50001   0.75006   0.00000  Uiso   1.00
C909   C     0.83149   0.50051   0.61635   0.00000  Uiso   1.00
C910   C     0.79935   0.51207   0.90616   0.00000  Uiso   1.00
C911   C     0.86732   0.48793   0.59384   0.00000  Uiso   1.00
C912   C     0.79843   0.51242   0.95239   0.00000  Uiso   1.00
C913   C     0.86824   0.48758   0.54761   0.00000  Uiso   1.00
C914   C     0.83401   0.50005   0.97655   0.00000  Uiso   1.00
C915   C     0.83266   0.49995   0.52345   0.00000  Uiso   1.00
C916   C     0.87085   0.48780   0.95393   0.00000  Uiso   1.00
C917   C     0.79582   0.51220   0.54607   0.00000  Uiso   1.00
C918   C     0.76231   0.52494   0.97470   0.00000  Uiso   1.00
C919   C     0.76100   0.52506   0.52096   0.00000  Uiso   1.00
C920   C     0.90435   0.47506   0.52530   0.00000  Uiso   1.00
C921   C     0.91004   0.47790   0.88191   0.00000  Uiso   1.00
C922   C     0.75663   0.52211   0.61808   0.00000  Uiso   1.00
C923   C     0.90567   0.47494   0.97904   0.00000  Uiso   1.00
C924   C     0.68793   0.45749   0.75173   0.00000  Uiso   1.00
C925   C     0.97874   0.54251   0.74827   0.00000  Uiso   1.00
C926   C     0.97868   0.45751   0.75188   0.00000  Uiso   1.00
C927   C     0.68799   0.54249   0.74812   0.00000  Uiso   1.00
C928   C     0.95725   0.50001   0.75011   0.00000  Uiso   1.00
Cu929  Cu    0.83333   0.54689   0.75000   0.00000  Uiso   1.00
Cu930  Cu    0.83333   0.45311   0.75000   0.00000  Uiso   1.00
H931   H     0.77199   0.52137   0.88739   0.00000  Uiso   1.00
H932   H     0.70404   0.57571   0.74657   0.00000  Uiso   1.00
H933   H     0.78526   0.37702   0.70260   0.00000  Uiso   1.00
H934   H     0.88140   0.62298   0.79740   0.00000  Uiso   1.00
H935   H     0.88142   0.37657   0.79736   0.00000  Uiso   1.00
H936   H     0.78524   0.62343   0.70264   0.00000  Uiso   1.00
H937   H     0.96898   0.49597   0.86944   0.00000  Uiso   1.00
H938   H     0.69769   0.50403   0.63058   0.00000  Uiso   1.00
H939   H     0.89468   0.47863   0.61261   0.00000  Uiso   1.00
H940   H     0.73496   0.53481   0.95630   0.00000  Uiso   1.00
H941   H     0.93171   0.46519   0.54370   0.00000  Uiso   1.00
H942   H     0.73256   0.53573   0.53669   0.00000  Uiso   1.00
H943   H     0.93410   0.46426   0.96331   0.00000  Uiso   1.00
H944   H     0.70392   0.42427   0.75315   0.00000  Uiso   1.00
H945   H     0.96275   0.57573   0.74685   0.00000  Uiso   1.00
H946   H     0.96263   0.42429   0.75343   0.00000  Uiso   1.00
N947   N     0.83333   0.61736   0.75000   0.00000  Uiso   1.00
N948   N     0.83333   0.38264   0.75000   0.00000  Uiso   1.00
O949   O     0.77321   0.53958   0.74999   0.00000  Uiso   1.00
O950   O     0.94478   0.50588   0.88857   0.00000  Uiso   1.00
O951   O     0.75539   0.55449   0.64448   0.00000  Uiso   1.00
O952   O     0.72189   0.49411   0.61146   0.00000  Uiso   1.00
O953   O     0.89345   0.46042   0.75000   0.00000  Uiso   1.00
O954   O     0.89345   0.53958   0.75000   0.00000  Uiso   1.00
O955   O     0.77321   0.46042   0.74999   0.00000  Uiso   1.00
O956   O     0.83332   0.53960   0.68513   0.00000  Uiso   1.00
O957   O     0.83334   0.46040   0.81487   0.00000  Uiso   1.00
O958   O     0.83334   0.53960   0.81487   0.00000  Uiso   1.00
O959   O     0.83332   0.46040   0.68513   0.00000  Uiso   1.00
O960   O     0.91127   0.44553   0.85550   0.00000  Uiso   1.00
C961   C     0.08736   0.83332   0.74994   0.00000  Uiso   1.00
C962   C     0.04274   0.83332   0.74989   0.00000  Uiso   1.00
C963   C     0.13998   0.69158   0.72370   0.00000  Uiso   1.00
C964   C     0.19336   0.97508   0.77630   0.00000  Uiso   1.00
C965   C     0.19336   0.69134   0.77630   0.00000  Uiso   1.00
C966   C     0.13997   0.97533   0.72370   0.00000  Uiso   1.00
C967   C     0.16596   0.83345   0.66453   0.00000  Uiso   1.00
C968   C     0.16738   0.83321   0.83547   0.00000  Uiso   1.00
C969   C     0.20483   0.82118   0.90689   0.00000  Uiso   1.00
C970   C     0.12850   0.84549   0.59311   0.00000  Uiso   1.00
C971   C     0.16851   0.83283   0.88365   0.00000  Uiso   1.00
C972   C     0.24597   0.83334   0.75006   0.00000  Uiso   1.00
C973   C     0.16482   0.83384   0.61635   0.00000  Uiso   1.00
C974   C     0.13268   0.84540   0.90616   0.00000  Uiso   1.00
C975   C     0.20065   0.82126   0.59384   0.00000  Uiso   1.00
C976   C     0.13177   0.84575   0.95239   0.00000  Uiso   1.00
C977   C     0.20157   0.82091   0.54761   0.00000  Uiso   1.00
C978   C     0.16734   0.83338   0.97655   0.00000  Uiso   1.00
C979   C     0.16600   0.83328   0.52345   0.00000  Uiso   1.00
C980   C     0.20418   0.82113   0.95393   0.00000  Uiso   1.00
C981   C     0.12915   0.84553   0.54607   0.00000  Uiso   1.00
C982   C     0.09565   0.85827   0.97470   0.00000  Uiso   1.00
C983   C     0.09433   0.85839   0.52096   0.00000  Uiso   1.00
C984   C     0.23769   0.80839   0.52530   0.00000  Uiso   1.00
C985   C     0.24337   0.81123   0.88191   0.00000  Uiso   1.00
C986   C     0.08996   0.85544   0.61808   0.00000  Uiso   1.00
C987   C     0.23900   0.80827   0.97904   0.00000  Uiso   1.00
C988   C     0.02126   0.79083   0.75173   0.00000  Uiso   1.00
C989   C     0.31207   0.87584   0.74827   0.00000  Uiso   1.00
C990   C     0.31201   0.79084   0.75188   0.00000  Uiso   1.00
C991   C     0.02132   0.87582   0.74812   0.00000  Uiso   1.00
C992   C     0.29059   0.83335   0.75011   0.00000  Uiso   1.00
Cu993  Cu    0.16667   0.88022   0.75000   0.00000  Uiso   1.00
Cu994  Cu    0.16667   0.78645   0.75000   0.00000  Uiso   1.00
H995   H     0.10532   0.85470   0.88739   0.00000  Uiso   1.00
H996   H     0.03737   0.90904   0.74657   0.00000  Uiso   1.00
H997   H     0.11860   0.71035   0.70260   0.00000  Uiso   1.00
H998   H     0.21474   0.95632   0.79740   0.00000  Uiso   1.00
H999   H     0.21476   0.70990   0.79736   0.00000  Uiso   1.00
H1000  H     0.11858   0.95677   0.70264   0.00000  Uiso   1.00
H1001  H     0.30232   0.82930   0.86944   0.00000  Uiso   1.00
H1002  H     0.03103   0.83736   0.63058   0.00000  Uiso   1.00
H1003  H     0.22801   0.81196   0.61261   0.00000  Uiso   1.00
H1004  H     0.06829   0.86814   0.95630   0.00000  Uiso   1.00
H1005  H     0.26504   0.79852   0.54370   0.00000  Uiso   1.00
H1006  H     0.06590   0.86907   0.53669   0.00000  Uiso   1.00
H1007  H     0.26744   0.79759   0.96331   0.00000  Uiso   1.00
H1008  H     0.03725   0.75760   0.75315   0.00000  Uiso   1.00
H1009  H     0.29608   0.90907   0.74685   0.00000  Uiso   1.00
H1010  H     0.29596   0.75763   0.75343   0.00000  Uiso   1.00
N1011  N     0.16667   0.95069   0.75000   0.00000  Uiso   1.00
N1012  N     0.16667   0.71598   0.75000   0.00000  Uiso   1.00
O1013  O     0.10655   0.87291   0.74999   0.00000  Uiso   1.00
O1014  O     0.27812   0.83922   0.88857   0.00000  Uiso   1.00
O1015  O     0.08873   0.88783   0.64448   0.00000  Uiso   1.00
O1016  O     0.05522   0.82744   0.61146   0.00000  Uiso   1.00
O1017  O     0.22679   0.79375   0.75000   0.00000  Uiso   1.00
O1018  O     0.22679   0.87291   0.75000   0.00000  Uiso   1.00
O1019  O     0.10655   0.79375   0.74999   0.00000  Uiso   1.00
O1020  O     0.16666   0.87293   0.68513   0.00000  Uiso   1.00
O1021  O     0.16668   0.79373   0.81487   0.00000  Uiso   1.00
O1022  O     0.16668   0.87293   0.81487   0.00000  Uiso   1.00
O1023  O     0.16666   0.79373   0.68513   0.00000  Uiso   1.00
O1024  O     0.24461   0.77887   0.85550   0.00000  Uiso   1.00
C1025  C     0.42069   0.83332   0.74994   0.00000  Uiso   1.00
C1026  C     0.37608   0.83332   0.74989   0.00000  Uiso   1.00
C1027  C     0.47331   0.69158   0.72370   0.00000  Uiso   1.00
C1028  C     0.52669   0.97508   0.77630   0.00000  Uiso   1.00
C1029  C     0.52669   0.69134   0.77630   0.00000  Uiso   1.00
C1030  C     0.47331   0.97533   0.72370   0.00000  Uiso   1.00
C1031  C     0.49929   0.83345   0.66453   0.00000  Uiso   1.00
C1032  C     0.50071   0.83321   0.83547   0.00000  Uiso   1.00
C1033  C     0.53817   0.82118   0.90689   0.00000  Uiso   1.00
C1034  C     0.46183   0.84549   0.59311   0.00000  Uiso   1.00
C1035  C     0.50185   0.83283   0.88365   0.00000  Uiso   1.00
C1036  C     0.57931   0.83334   0.75006   0.00000  Uiso   1.00
C1037  C     0.49816   0.83384   0.61635   0.00000  Uiso   1.00
C1038  C     0.46601   0.84540   0.90616   0.00000  Uiso   1.00
C1039  C     0.53399   0.82126   0.59384   0.00000  Uiso   1.00
C1040  C     0.46510   0.84575   0.95239   0.00000  Uiso   1.00
C1041  C     0.53490   0.82091   0.54761   0.00000  Uiso   1.00
C1042  C     0.50067   0.83338   0.97655   0.00000  Uiso   1.00
C1043  C     0.49933   0.83328   0.52345   0.00000  Uiso   1.00
C1044  C     0.53751   0.82113   0.95393   0.00000  Uiso   1.00
C1045  C     0.46249   0.84553   0.54607   0.00000  Uiso   1.00
C1046  C     0.42898   0.85827   0.97470   0.00000  Uiso   1.00
C1047  C     0.42767   0.85839   0.52096   0.00000  Uiso   1.00
C1048  C     0.57102   0.80839   0.52530   0.00000  Uiso   1.00
C1049  C     0.57671   0.81123   0.88191   0.00000  Uiso   1.00
C1050  C     0.42330   0.85544   0.61808   0.00000  Uiso   1.00
C1051  C     0.57233   0.80827   0.97904   0.00000  Uiso   1.00
C1052  C     0.35459   0.79083   0.75173   0.00000  Uiso   1.00
C1053  C     0.64541   0.87584   0.74827   0.00000  Uiso   1.00
C1054  C     0.64534   0.79084   0.75188   0.00000  Uiso   1.00
C1055  C     0.35466   0.87582   0.74812   0.00000  Uiso   1.00
C1056  C     0.62392   0.83335   0.75011   0.00000  Uiso   1.00
Cu1057 Cu    0.50000   0.88022   0.75000   0.00000  Uiso   1.00
Cu1058 Cu    0.50000   0.78645   0.75000   0.00000  Uiso   1.00
H1059  H     0.43866   0.85470   0.88739   0.00000  Uiso   1.00
H1060  H     0.37070   0.90904   0.74657   0.00000  Uiso   1.00
H1061  H     0.45193   0.71035   0.70260   0.00000  Uiso   1.00
H1062  H     0.54807   0.95632   0.79740   0.00000  Uiso   1.00
H1063  H     0.54809   0.70990   0.79736   0.00000  Uiso   1.00
H1064  H     0.45191   0.95677   0.70264   0.00000  Uiso   1.00
H1065  H     0.63565   0.82930   0.86944   0.00000  Uiso   1.00
H1066  H     0.36436   0.83736   0.63058   0.00000  Uiso   1.00
H1067  H     0.56134   0.81196   0.61261   0.00000  Uiso   1.00
H1068  H     0.40163   0.86814   0.95630   0.00000  Uiso   1.00
H1069  H     0.59837   0.79852   0.54370   0.00000  Uiso   1.00
H1070  H     0.39923   0.86907   0.53669   0.00000  Uiso   1.00
H1071  H     0.60077   0.79759   0.96331   0.00000  Uiso   1.00
H1072  H     0.37059   0.75760   0.75315   0.00000  Uiso   1.00
H1073  H     0.62941   0.90907   0.74685   0.00000  Uiso   1.00
H1074  H     0.62930   0.75763   0.75343   0.00000  Uiso   1.00
N1075  N     0.50000   0.95069   0.75000   0.00000  Uiso   1.00
N1076  N     0.50000   0.71598   0.75000   0.00000  Uiso   1.00
O1077  O     0.43988   0.87291   0.74999   0.00000  Uiso   1.00
O1078  O     0.61145   0.83922   0.88857   0.00000  Uiso   1.00
O1079  O     0.42206   0.88783   0.64448   0.00000  Uiso   1.00
O1080  O     0.38856   0.82744   0.61146   0.00000  Uiso   1.00
O1081  O     0.56012   0.79375   0.75000   0.00000  Uiso   1.00
O1082  O     0.56012   0.87291   0.75000   0.00000  Uiso   1.00
O1083  O     0.43988   0.79375   0.74999   0.00000  Uiso   1.00
O1084  O     0.49999   0.87293   0.68513   0.00000  Uiso   1.00
O1085  O     0.50001   0.79373   0.81487   0.00000  Uiso   1.00
O1086  O     0.50001   0.87293   0.81487   0.00000  Uiso   1.00
O1087  O     0.49999   0.79373   0.68513   0.00000  Uiso   1.00
O1088  O     0.57794   0.77887   0.85550   0.00000  Uiso   1.00
C1089  C     0.75403   0.83332   0.74994   0.00000  Uiso   1.00
C1090  C     0.70941   0.83332   0.74989   0.00000  Uiso   1.00
C1091  C     0.80664   0.69158   0.72370   0.00000  Uiso   1.00
C1092  C     0.86002   0.97508   0.77630   0.00000  Uiso   1.00
C1093  C     0.86003   0.69134   0.77630   0.00000  Uiso   1.00
C1094  C     0.80664   0.97533   0.72370   0.00000  Uiso   1.00
C1095  C     0.83262   0.83345   0.66453   0.00000  Uiso   1.00
C1096  C     0.83404   0.83321   0.83547   0.00000  Uiso   1.00
C1097  C     0.87150   0.82118   0.90689   0.00000  Uiso   1.00
C1098  C     0.79517   0.84549   0.59311   0.00000  Uiso   1.00
C1099  C     0.83518   0.83283   0.88365   0.00000  Uiso   1.00
C1100  C     0.91264   0.83334   0.75006   0.00000  Uiso   1.00
C1101  C     0.83149   0.83384   0.61635   0.00000  Uiso   1.00
C1102  C     0.79935   0.84540   0.90616   0.00000  Uiso   1.00
C1103  C     0.86732   0.82126   0.59384   0.00000  Uiso   1.00
C1104  C     0.79843   0.84575   0.95239   0.00000  Uiso   1.00
C1105  C     0.86824   0.82091   0.54761   0.00000  Uiso   1.00
C1106  C     0.83401   0.83338   0.97655   0.00000  Uiso   1.00
C1107  C     0.83266   0.83328   0.52345   0.00000  Uiso   1.00
C1108  C     0.87085   0.82113   0.95393   0.00000  Uiso   1.00
C1109  C     0.79582   0.84553   0.54607   0.00000  Uiso   1.00
C1110  C     0.76231   0.85827   0.97470   0.00000  Uiso   1.00
C1111  C     0.76100   0.85839   0.52096   0.00000  Uiso   1.00
C1112  C     0.90435   0.80839   0.52530   0.00000  Uiso   1.00
C1113  C     0.91004   0.81123   0.88191   0.00000  Uiso   1.00
C1114  C     0.75663   0.85544   0.61808   0.00000  Uiso   1.00
C1115  C     0.90567   0.80827   0.97904   0.00000  Uiso   1.00
C1116  C     0.68793   0.79083   0.75173   0.00000  Uiso   1.00
C1117  C     0.97874   0.87584   0.74827   0.00000  Uiso   1.00
C1118  C     0.97868   0.79084   0.75188   0.00000  Uiso   1.00
C1119  C     0.68799   0.87582   0.74812   0.00000  Uiso   1.00
C1120  C     0.95725   0.83335   0.75011   0.00000  Uiso   1.00
Cu1121 Cu    0.83333   0.88022   0.75000   0.00000  Uiso   1.00
Cu1122 Cu    0.83333   0.78645   0.75000   0.00000  Uiso   1.00
H1123  H     0.77199   0.85470   0.88739   0.00000  Uiso   1.00
H1124  H     0.70404   0.90904   0.74657   0.00000  Uiso   1.00
H1125  H     0.78526   0.71035   0.70260   0.00000  Uiso   1.00
H1126  H     0.88140   0.95632   0.79740   0.00000  Uiso   1.00
H1127  H     0.88142   0.70990   0.79736   0.00000  Uiso   1.00
H1128  H     0.78524   0.95677   0.70264   0.00000  Uiso   1.00
H1129  H     0.96898   0.82930   0.86944   0.00000  Uiso   1.00
H1130  H     0.69769   0.83736   0.63058   0.00000  Uiso   1.00
H1131  H     0.89468   0.81196   0.61261   0.00000  Uiso   1.00
H1132  H     0.73496   0.86814   0.95630   0.00000  Uiso   1.00
H1133  H     0.93171   0.79852   0.54370   0.00000  Uiso   1.00
H1134  H     0.73256   0.86907   0.53669   0.00000  Uiso   1.00
H1135  H     0.93410   0.79759   0.96331   0.00000  Uiso   1.00
H1136  H     0.70392   0.75760   0.75315   0.00000  Uiso   1.00
H1137  H     0.96275   0.90907   0.74685   0.00000  Uiso   1.00
H1138  H     0.96263   0.75763   0.75343   0.00000  Uiso   1.00
N1139  N     0.83333   0.95069   0.75000   0.00000  Uiso   1.00
N1140  N     0.83333   0.71598   0.75000   0.00000  Uiso   1.00
O1141  O     0.77321   0.87291   0.74999   0.00000  Uiso   1.00
O1142  O     0.94478   0.83922   0.88857   0.00000  Uiso   1.00
O1143  O     0.75539   0.88783   0.64448   0.00000  Uiso   1.00
O1144  O     0.72189   0.82744   0.61146   0.00000  Uiso   1.00
O1145  O     0.89345   0.79375   0.75000   0.00000  Uiso   1.00
O1146  O     0.89345   0.87291   0.75000   0.00000  Uiso   1.00
O1147  O     0.77321   0.79375   0.74999   0.00000  Uiso   1.00
O1148  O     0.83332   0.87293   0.68513   0.00000  Uiso   1.00
O1149  O     0.83334   0.79373   0.81487   0.00000  Uiso   1.00
O1150  O     0.83334   0.87293   0.81487   0.00000  Uiso   1.00
O1151  O     0.83332   0.79373   0.68513   0.00000  Uiso   1.00
O1152  O     0.91127   0.77887   0.85550   0.00000  Uiso   1.00
loop_
_geom_bond_atom_site_label_1
_geom_bond_atom_site_label_2
_geom_bond_distance
_geom_bond_site_symmetry_2
_ccdc_geom_bond_type
C1     O59     1.291   .     A
C1     C2      1.449   .     S
C1     O53     1.291   .     A
C2     C31     1.401   .     A
C2     C28     1.401   .     A
C3     N52     1.367   .     A
C3     H37     1.082   .     S
C3     C390    1.417   1_545 S
C4     H38     1.082   .     S
C4     N51     1.367   .     A
C4     C197    1.417   .     S
C5     N52     1.367   .     A
C5     H39     1.081   .     S
C5     C388    1.417   1_545 S
C6     N51     1.367   .     A
C6     H40     1.081   .     S
C6     C195    1.417   .     S
C7     O63     1.290   .     A
C7     O60     1.289   .     A
C7     C13     1.448   .     S
C8     O61     1.289   .     A
C8     C11     1.448   .     S
C8     O62     1.290   .     A
C9     C20     1.413   .     A
C9     C11     1.411   .     A
C9     C25     1.486   .     S
C10    C26     1.486   .     S
C10    C21     1.413   .     A
C10    C13     1.411   .     A
C11    C14     1.393   .     A
C12    O58     1.291   .     A
C12    C32     1.449   .     S
C12    O57     1.291   .     A
C13    C15     1.393   .     A
C14    C16     1.389   .     A
C14    H35     1.086   .     S
C15    H43     1.086   .     S
C15    C17     1.389   .     A
C16    C22     1.398   .     A
C16    C18     1.410   .     A
C17    C19     1.410   .     A
C17    C24     1.398   .     A
C18    C20     1.420   .     A
C18    C595    1.409   .     S
C19    C21     1.420   .     A
C19    C594    1.409   1_554 S
C20    C27     1.409   .     A
C21    C23     1.409   .     A
C22    H44     1.084   .     S
C22    C599    1.390   .     S
C23    H46     1.081   .     S
C23    C598    1.390   1_554 S
C24    H45     1.084   .     S
C24    C603    1.390   1_554 S
C25    O54     1.398   .     S
C25    O64     1.222   .     D
C26    O55     1.222   .     D
C26    O56     1.398   .     S
C27    H47     1.081   .     S
C27    C600    1.390   .     S
C28    H48     1.083   .     S
C28    C158    1.383   1_455 S
C29    H49     1.083   .     S
C29    C32     1.401   .     A
C29    C95     1.383   .     S
C30    H50     1.083   .     S
C30    C32     1.401   .     A
C30    C92     1.383   .     S
C31    H36     1.083   .     S
C31    C157    1.383   1_455 S
Cu33   O58     1.964   .     S
Cu33   N51     2.014   .     S
Cu33   Cu34    2.679   .     S
Cu33   O60     1.961   .     S
Cu33   O53     1.964   .     S
Cu33   O62     1.959   .     S
Cu34   O57     1.964   .     S
Cu34   N52     2.014   .     S
Cu34   O63     1.959   .     S
Cu34   O59     1.964   .     S
Cu34   O61     1.961   .     S
H41    O54     1.014   .     S
H42    O56     1.014   .     S
C65    O123    1.291   .     A
C65    C66     1.449   .     S
C65    O117    1.291   .     A
C66    C95     1.401   .     A
C66    C92     1.401   .     A
C67    N116    1.367   .     A
C67    H101    1.082   .     S
C67    C454    1.417   1_545 S
C68    H102    1.082   .     S
C68    N115    1.367   .     A
C68    C261    1.417   .     S
C69    N116    1.367   .     A
C69    H103    1.081   .     S
C69    C452    1.417   1_545 S
C70    N115    1.367   .     A
C70    H104    1.081   .     S
C70    C259    1.417   .     S
C71    O127    1.290   .     A
C71    O124    1.289   .     A
C71    C77     1.448   .     S
C72    O125    1.289   .     A
C72    C75     1.448   .     S
C72    O126    1.290   .     A
C73    C84     1.413   .     A
C73    C75     1.411   .     A
C73    C89     1.486   .     S
C74    C90     1.486   .     S
C74    C85     1.413   .     A
C74    C77     1.411   .     A
C75    C78     1.393   .     A
C76    O122    1.291   .     A
C76    C96     1.449   .     S
C76    O121    1.291   .     A
C77    C79     1.393   .     A
C78    C80     1.389   .     A
C78    H99     1.086   .     S
C79    H107    1.086   .     S
C79    C81     1.389   .     A
C80    C86     1.398   .     A
C80    C82     1.410   .     A
C81    C83     1.410   .     A
C81    C88     1.398   .     A
C82    C84     1.420   .     A
C82    C659    1.409   .     S
C83    C85     1.420   .     A
C83    C658    1.409   1_554 S
C84    C91     1.409   .     A
C85    C87     1.409   .     A
C86    H108    1.084   .     S
C86    C663    1.390   .     S
C87    H110    1.081   .     S
C87    C662    1.390   1_554 S
C88    H109    1.084   .     S
C88    C667    1.390   1_554 S
C89    O118    1.398   .     S
C89    O128    1.222   .     D
C90    O119    1.222   .     D
C90    O120    1.398   .     S
C91    H111    1.081   .     S
C91    C664    1.390   .     S
C92    H112    1.083   .     S
C93    H113    1.083   .     S
C93    C96     1.401   .     A
C93    C159    1.383   .     S
C94    H114    1.083   .     S
C94    C96     1.401   .     A
C94    C156    1.383   .     S
C95    H100    1.083   .     S
Cu97   O122    1.964   .     S
Cu97   N115    2.014   .     S
Cu97   Cu98    2.679   .     S
Cu97   O124    1.961   .     S
Cu97   O117    1.964   .     S
Cu97   O126    1.959   .     S
Cu98   O121    1.964   .     S
Cu98   N116    2.014   .     S
Cu98   O127    1.959   .     S
Cu98   O123    1.964   .     S
Cu98   O125    1.961   .     S
H105   O118    1.014   .     S
H106   O120    1.014   .     S
C129   O187    1.291   .     A
C129   C130    1.449   .     S
C129   O181    1.291   .     A
C130   C159    1.401   .     A
C130   C156    1.401   .     A
C131   N180    1.367   .     A
C131   H165    1.082   .     S
C131   C518    1.417   1_545 S
C132   H166    1.082   .     S
C132   N179    1.367   .     A
C132   C325    1.417   .     S
C133   N180    1.367   .     A
C133   H167    1.081   .     S
C133   C516    1.417   1_545 S
C134   N179    1.367   .     A
C134   H168    1.081   .     S
C134   C323    1.417   .     S
C135   O191    1.290   .     A
C135   O188    1.289   .     A
C135   C141    1.448   .     S
C136   O189    1.289   .     A
C136   C139    1.448   .     S
C136   O190    1.290   .     A
C137   C148    1.413   .     A
C137   C139    1.411   .     A
C137   C153    1.486   .     S
C138   C154    1.486   .     S
C138   C149    1.413   .     A
C138   C141    1.411   .     A
C139   C142    1.393   .     A
C140   O186    1.291   .     A
C140   C160    1.449   .     S
C140   O185    1.291   .     A
C141   C143    1.393   .     A
C142   C144    1.389   .     A
C142   H163    1.086   .     S
C143   H171    1.086   .     S
C143   C145    1.389   .     A
C144   C150    1.398   .     A
C144   C146    1.410   .     A
C145   C147    1.410   .     A
C145   C152    1.398   .     A
C146   C148    1.420   .     A
C146   C723    1.409   .     S
C147   C149    1.420   .     A
C147   C722    1.409   1_554 S
C148   C155    1.409   .     A
C149   C151    1.409   .     A
C150   H172    1.084   .     S
C150   C727    1.390   .     S
C151   H174    1.081   .     S
C151   C726    1.390   1_554 S
C152   H173    1.084   .     S
C152   C731    1.390   1_554 S
C153   O182    1.398   .     S
C153   O192    1.222   .     D
C154   O183    1.222   .     D
C154   O184    1.398   .     S
C155   H175    1.081   .     S
C155   C728    1.390   .     S
C156   H176    1.083   .     S
C157   H177    1.083   .     S
C157   C160    1.401   .     A
C157   C31     1.383   1_655 S
C158   H178    1.083   .     S
C158   C160    1.401   .     A
C158   C28     1.383   1_655 S
C159   H164    1.083   .     S
Cu161  O186    1.964   .     S
Cu161  N179    2.014   .     S
Cu161  Cu162   2.679   .     S
Cu161  O188    1.961   .     S
Cu161  O181    1.964   .     S
Cu161  O190    1.959   .     S
Cu162  O185    1.964   .     S
Cu162  N180    2.014   .     S
Cu162  O191    1.959   .     S
Cu162  O187    1.964   .     S
Cu162  O189    1.961   .     S
H169   O182    1.014   .     S
H170   O184    1.014   .     S
C193   O251    1.291   .     A
C193   C194    1.449   .     S
C193   O245    1.291   .     A
C194   C223    1.401   .     A
C194   C220    1.401   .     A
C195   N244    1.367   .     A
C195   H229    1.082   .     S
C196   H230    1.082   .     S
C196   N243    1.367   .     A
C196   C389    1.417   .     S
C197   N244    1.367   .     A
C197   H231    1.081   .     S
C198   N243    1.367   .     A
C198   H232    1.081   .     S
C198   C387    1.417   .     S
C199   O255    1.290   .     A
C199   O252    1.289   .     A
C199   C205    1.448   .     S
C200   O253    1.289   .     A
C200   C203    1.448   .     S
C200   O254    1.290   .     A
C201   C212    1.413   .     A
C201   C203    1.411   .     A
C201   C217    1.486   .     S
C202   C218    1.486   .     S
C202   C213    1.413   .     A
C202   C205    1.411   .     A
C203   C206    1.393   .     A
C204   O250    1.291   .     A
C204   C224    1.449   .     S
C204   O249    1.291   .     A
C205   C207    1.393   .     A
C206   C208    1.389   .     A
C206   H227    1.086   .     S
C207   H235    1.086   .     S
C207   C209    1.389   .     A
C208   C214    1.398   .     A
C208   C210    1.410   .     A
C209   C211    1.410   .     A
C209   C216    1.398   .     A
C210   C212    1.420   .     A
C210   C787    1.409   .     S
C211   C213    1.420   .     A
C211   C786    1.409   1_554 S
C212   C219    1.409   .     A
C213   C215    1.409   .     A
C214   H236    1.084   .     S
C214   C791    1.390   .     S
C215   H238    1.081   .     S
C215   C790    1.390   1_554 S
C216   H237    1.084   .     S
C216   C795    1.390   1_554 S
C217   O246    1.398   .     S
C217   O256    1.222   .     D
C218   O247    1.222   .     D
C218   O248    1.398   .     S
C219   H239    1.081   .     S
C219   C792    1.390   .     S
C220   H240    1.083   .     S
C220   C350    1.383   1_455 S
C221   H241    1.083   .     S
C221   C224    1.401   .     A
C221   C287    1.383   .     S
C222   H242    1.083   .     S
C222   C224    1.401   .     A
C222   C284    1.383   .     S
C223   H228    1.083   .     S
C223   C349    1.383   1_455 S
Cu225  O250    1.964   .     S
Cu225  N243    2.014   .     S
Cu225  Cu226   2.679   .     S
Cu225  O252    1.961   .     S
Cu225  O245    1.964   .     S
Cu225  O254    1.959   .     S
Cu226  O249    1.964   .     S
Cu226  N244    2.014   .     S
Cu226  O255    1.959   .     S
Cu226  O251    1.964   .     S
Cu226  O253    1.961   .     S
H233   O246    1.014   .     S
H234   O248    1.014   .     S
C257   O315    1.291   .     A
C257   C258    1.449   .     S
C257   O309    1.291   .     A
C258   C287    1.401   .     A
C258   C284    1.401   .     A
C259   N308    1.367   .     A
C259   H293    1.082   .     S
C260   H294    1.082   .     S
C260   N307    1.367   .     A
C260   C453    1.417   .     S
C261   N308    1.367   .     A
C261   H295    1.081   .     S
C262   N307    1.367   .     A
C262   H296    1.081   .     S
C262   C451    1.417   .     S
C263   O319    1.290   .     A
C263   O316    1.289   .     A
C263   C269    1.448   .     S
C264   O317    1.289   .     A
C264   C267    1.448   .     S
C264   O318    1.290   .     A
C265   C276    1.413   .     A
C265   C267    1.411   .     A
C265   C281    1.486   .     S
C266   C282    1.486   .     S
C266   C277    1.413   .     A
C266   C269    1.411   .     A
C267   C270    1.393   .     A
C268   O314    1.291   .     A
C268   C288    1.449   .     S
C268   O313    1.291   .     A
C269   C271    1.393   .     A
C270   C272    1.389   .     A
C270   H291    1.086   .     S
C271   H299    1.086   .     S
C271   C273    1.389   .     A
C272   C278    1.398   .     A
C272   C274    1.410   .     A
C273   C275    1.410   .     A
C273   C280    1.398   .     A
C274   C276    1.420   .     A
C274   C851    1.409   .     S
C275   C277    1.420   .     A
C275   C850    1.409   1_554 S
C276   C283    1.409   .     A
C277   C279    1.409   .     A
C278   H300    1.084   .     S
C278   C855    1.390   .     S
C279   H302    1.081   .     S
C279   C854    1.390   1_554 S
C280   H301    1.084   .     S
C280   C859    1.390   1_554 S
C281   O310    1.398   .     S
C281   O320    1.222   .     D
C282   O311    1.222   .     D
C282   O312    1.398   .     S
C283   H303    1.081   .     S
C283   C856    1.390   .     S
C284   H304    1.083   .     S
C285   H305    1.083   .     S
C285   C288    1.401   .     A
C285   C351    1.383   .     S
C286   H306    1.083   .     S
C286   C288    1.401   .     A
C286   C348    1.383   .     S
C287   H292    1.083   .     S
Cu289  O314    1.964   .     S
Cu289  N307    2.014   .     S
Cu289  Cu290   2.679   .     S
Cu289  O316    1.961   .     S
Cu289  O309    1.964   .     S
Cu289  O318    1.959   .     S
Cu290  O313    1.964   .     S
Cu290  N308    2.014   .     S
Cu290  O319    1.959   .     S
Cu290  O315    1.964   .     S
Cu290  O317    1.961   .     S
H297   O310    1.014   .     S
H298   O312    1.014   .     S
C321   O379    1.291   .     A
C321   C322    1.449   .     S
C321   O373    1.291   .     A
C322   C351    1.401   .     A
C322   C348    1.401   .     A
C323   N372    1.367   .     A
C323   H357    1.082   .     S
C324   H358    1.082   .     S
C324   N371    1.367   .     A
C324   C517    1.417   .     S
C325   N372    1.367   .     A
C325   H359    1.081   .     S
C326   N371    1.367   .     A
C326   H360    1.081   .     S
C326   C515    1.417   .     S
C327   O383    1.290   .     A
C327   O380    1.289   .     A
C327   C333    1.448   .     S
C328   O381    1.289   .     A
C328   C331    1.448   .     S
C328   O382    1.290   .     A
C329   C340    1.413   .     A
C329   C331    1.411   .     A
C329   C345    1.486   .     S
C330   C346    1.486   .     S
C330   C341    1.413   .     A
C330   C333    1.411   .     A
C331   C334    1.393   .     A
C332   O378    1.291   .     A
C332   C352    1.449   .     S
C332   O377    1.291   .     A
C333   C335    1.393   .     A
C334   C336    1.389   .     A
C334   H355    1.086   .     S
C335   H363    1.086   .     S
C335   C337    1.389   .     A
C336   C342    1.398   .     A
C336   C338    1.410   .     A
C337   C339    1.410   .     A
C337   C344    1.398   .     A
C338   C340    1.420   .     A
C338   C915    1.409   .     S
C339   C341    1.420   .     A
C339   C914    1.409   1_554 S
C340   C347    1.409   .     A
C341   C343    1.409   .     A
C342   H364    1.084   .     S
C342   C919    1.390   .     S
C343   H366    1.081   .     S
C343   C918    1.390   1_554 S
C344   H365    1.084   .     S
C344   C923    1.390   1_554 S
C345   O374    1.398   .     S
C345   O384    1.222   .     D
C346   O375    1.222   .     D
C346   O376    1.398   .     S
C347   H367    1.081   .     S
C347   C920    1.390   .     S
C348   H368    1.083   .     S
C349   H369    1.083   .     S
C349   C352    1.401   .     A
C349   C223    1.383   1_655 S
C350   H370    1.083   .     S
C350   C352    1.401   .     A
C350   C220    1.383   1_655 S
C351   H356    1.083   .     S
Cu353  O378    1.964   .     S
Cu353  N371    2.014   .     S
Cu353  Cu354   2.679   .     S
Cu353  O380    1.961   .     S
Cu353  O373    1.964   .     S
Cu353  O382    1.959   .     S
Cu354  O377    1.964   .     S
Cu354  N372    2.014   .     S
Cu354  O383    1.959   .     S
Cu354  O379    1.964   .     S
Cu354  O381    1.961   .     S
H361   O374    1.014   .     S
H362   O376    1.014   .     S
C385   O443    1.291   .     A
C385   C386    1.449   .     S
C385   O437    1.291   .     A
C386   C415    1.401   .     A
C386   C412    1.401   .     A
C387   N436    1.367   .     A
C387   H421    1.082   .     S
C388   H422    1.082   .     S
C388   N435    1.367   .     A
C388   C5      1.417   1_565 S
C389   N436    1.367   .     A
C389   H423    1.081   .     S
C390   N435    1.367   .     A
C390   H424    1.081   .     S
C390   C3      1.417   1_565 S
C391   O447    1.290   .     A
C391   O444    1.289   .     A
C391   C397    1.448   .     S
C392   O445    1.289   .     A
C392   C395    1.448   .     S
C392   O446    1.290   .     A
C393   C404    1.413   .     A
C393   C395    1.411   .     A
C393   C409    1.486   .     S
C394   C410    1.486   .     S
C394   C405    1.413   .     A
C394   C397    1.411   .     A
C395   C398    1.393   .     A
C396   O442    1.291   .     A
C396   C416    1.449   .     S
C396   O441    1.291   .     A
C397   C399    1.393   .     A
C398   C400    1.389   .     A
C398   H419    1.086   .     S
C399   H427    1.086   .     S
C399   C401    1.389   .     A
C400   C406    1.398   .     A
C400   C402    1.410   .     A
C401   C403    1.410   .     A
C401   C408    1.398   .     A
C402   C404    1.420   .     A
C402   C979    1.409   .     S
C403   C405    1.420   .     A
C403   C978    1.409   1_554 S
C404   C411    1.409   .     A
C405   C407    1.409   .     A
C406   H428    1.084   .     S
C406   C983    1.390   .     S
C407   H430    1.081   .     S
C407   C982    1.390   1_554 S
C408   H429    1.084   .     S
C408   C987    1.390   1_554 S
C409   O438    1.398   .     S
C409   O448    1.222   .     D
C410   O439    1.222   .     D
C410   O440    1.398   .     S
C411   H431    1.081   .     S
C411   C984    1.390   .     S
C412   H432    1.083   .     S
C412   C542    1.383   1_455 S
C413   H433    1.083   .     S
C413   C416    1.401   .     A
C413   C479    1.383   .     S
C414   H434    1.083   .     S
C414   C416    1.401   .     A
C414   C476    1.383   .     S
C415   H420    1.083   .     S
C415   C541    1.383   1_455 S
Cu417  O442    1.964   .     S
Cu417  N435    2.014   .     S
Cu417  Cu418   2.679   .     S
Cu417  O444    1.961   .     S
Cu417  O437    1.964   .     S
Cu417  O446    1.959   .     S
Cu418  O441    1.964   .     S
Cu418  N436    2.014   .     S
Cu418  O447    1.959   .     S
Cu418  O443    1.964   .     S
Cu418  O445    1.961   .     S
H425   O438    1.014   .     S
H426   O440    1.014   .     S
C449   O507    1.291   .     A
C449   C450    1.449   .     S
C449   O501    1.291   .     A
C450   C479    1.401   .     A
C450   C476    1.401   .     A
C451   N500    1.367   .     A
C451   H485    1.082   .     S
C452   H486    1.082   .     S
C452   N499    1.367   .     A
C452   C69     1.417   1_565 S
C453   N500    1.367   .     A
C453   H487    1.081   .     S
C454   N499    1.367   .     A
C454   H488    1.081   .     S
C454   C67     1.417   1_565 S
C455   O511    1.290   .     A
C455   O508    1.289   .     A
C455   C461    1.448   .     S
C456   O509    1.289   .     A
C456   C459    1.448   .     S
C456   O510    1.290   .     A
C457   C468    1.413   .     A
C457   C459    1.411   .     A
C457   C473    1.486   .     S
C458   C474    1.486   .     S
C458   C469    1.413   .     A
C458   C461    1.411   .     A
C459   C462    1.393   .     A
C460   O506    1.291   .     A
C460   C480    1.449   .     S
C460   O505    1.291   .     A
C461   C463    1.393   .     A
C462   C464    1.389   .     A
C462   H483    1.086   .     S
C463   H491    1.086   .     S
C463   C465    1.389   .     A
C464   C470    1.398   .     A
C464   C466    1.410   .     A
C465   C467    1.410   .     A
C465   C472    1.398   .     A
C466   C468    1.420   .     A
C466   C1043   1.409   .     S
C467   C469    1.420   .     A
C467   C1042   1.409   1_554 S
C468   C475    1.409   .     A
C469   C471    1.409   .     A
C470   H492    1.084   .     S
C470   C1047   1.390   .     S
C471   H494    1.081   .     S
C471   C1046   1.390   1_554 S
C472   H493    1.084   .     S
C472   C1051   1.390   1_554 S
C473   O502    1.398   .     S
C473   O512    1.222   .     D
C474   O503    1.222   .     D
C474   O504    1.398   .     S
C475   H495    1.081   .     S
C475   C1048   1.390   .     S
C476   H496    1.083   .     S
C477   H497    1.083   .     S
C477   C480    1.401   .     A
C477   C543    1.383   .     S
C478   H498    1.083   .     S
C478   C480    1.401   .     A
C478   C540    1.383   .     S
C479   H484    1.083   .     S
Cu481  O506    1.964   .     S
Cu481  N499    2.014   .     S
Cu481  Cu482   2.679   .     S
Cu481  O508    1.961   .     S
Cu481  O501    1.964   .     S
Cu481  O510    1.959   .     S
Cu482  O505    1.964   .     S
Cu482  N500    2.014   .     S
Cu482  O511    1.959   .     S
Cu482  O507    1.964   .     S
Cu482  O509    1.961   .     S
H489   O502    1.014   .     S
H490   O504    1.014   .     S
C513   O571    1.291   .     A
C513   C514    1.449   .     S
C513   O565    1.291   .     A
C514   C543    1.401   .     A
C514   C540    1.401   .     A
C515   N564    1.367   .     A
C515   H549    1.082   .     S
C516   H550    1.082   .     S
C516   N563    1.367   .     A
C516   C133    1.417   1_565 S
C517   N564    1.367   .     A
C517   H551    1.081   .     S
C518   N563    1.367   .     A
C518   H552    1.081   .     S
C518   C131    1.417   1_565 S
C519   O575    1.290   .     A
C519   O572    1.289   .     A
C519   C525    1.448   .     S
C520   O573    1.289   .     A
C520   C523    1.448   .     S
C520   O574    1.290   .     A
C521   C532    1.413   .     A
C521   C523    1.411   .     A
C521   C537    1.486   .     S
C522   C538    1.486   .     S
C522   C533    1.413   .     A
C522   C525    1.411   .     A
C523   C526    1.393   .     A
C524   O570    1.291   .     A
C524   C544    1.449   .     S
C524   O569    1.291   .     A
C525   C527    1.393   .     A
C526   C528    1.389   .     A
C526   H547    1.086   .     S
C527   H555    1.086   .     S
C527   C529    1.389   .     A
C528   C534    1.398   .     A
C528   C530    1.410   .     A
C529   C531    1.410   .     A
C529   C536    1.398   .     A
C530   C532    1.420   .     A
C530   C1107   1.409   .     S
C531   C533    1.420   .     A
C531   C1106   1.409   1_554 S
C532   C539    1.409   .     A
C533   C535    1.409   .     A
C534   H556    1.084   .     S
C534   C1111   1.390   .     S
C535   H558    1.081   .     S
C535   C1110   1.390   1_554 S
C536   H557    1.084   .     S
C536   C1115   1.390   1_554 S
C537   O566    1.398   .     S
C537   O576    1.222   .     D
C538   O567    1.222   .     D
C538   O568    1.398   .     S
C539   H559    1.081   .     S
C539   C1112   1.390   .     S
C540   H560    1.083   .     S
C541   H561    1.083   .     S
C541   C544    1.401   .     A
C541   C415    1.383   1_655 S
C542   H562    1.083   .     S
C542   C544    1.401   .     A
C542   C412    1.383   1_655 S
C543   H548    1.083   .     S
Cu545  O570    1.964   .     S
Cu545  N563    2.014   .     S
Cu545  Cu546   2.679   .     S
Cu545  O572    1.961   .     S
Cu545  O565    1.964   .     S
Cu545  O574    1.959   .     S
Cu546  O569    1.964   .     S
Cu546  N564    2.014   .     S
Cu546  O575    1.959   .     S
Cu546  O571    1.964   .     S
Cu546  O573    1.961   .     S
H553   O566    1.014   .     S
H554   O568    1.014   .     S
C577   O635    1.291   .     A
C577   C578    1.449   .     S
C577   O629    1.291   .     A
C578   C607    1.401   .     A
C578   C604    1.401   .     A
C579   N628    1.367   .     A
C579   H613    1.082   .     S
C579   C966    1.417   1_545 S
C580   H614    1.082   .     S
C580   N627    1.367   .     A
C580   C773    1.417   .     S
C581   N628    1.367   .     A
C581   H615    1.081   .     S
C581   C964    1.417   1_545 S
C582   N627    1.367   .     A
C582   H616    1.081   .     S
C582   C771    1.417   .     S
C583   O639    1.290   .     A
C583   O636    1.289   .     A
C583   C589    1.448   .     S
C584   O637    1.289   .     A
C584   C587    1.448   .     S
C584   O638    1.290   .     A
C585   C596    1.413   .     A
C585   C587    1.411   .     A
C585   C601    1.486   .     S
C586   C602    1.486   .     S
C586   C597    1.413   .     A
C586   C589    1.411   .     A
C587   C590    1.393   .     A
C588   O634    1.291   .     A
C588   C608    1.449   .     S
C588   O633    1.291   .     A
C589   C591    1.393   .     A
C590   C592    1.389   .     A
C590   H611    1.086   .     S
C591   H619    1.086   .     S
C591   C593    1.389   .     A
C592   C598    1.398   .     A
C592   C594    1.410   .     A
C593   C595    1.410   .     A
C593   C600    1.398   .     A
C594   C596    1.420   .     A
C594   C19     1.409   1_556 S
C595   C597    1.420   .     A
C596   C603    1.409   .     A
C597   C599    1.409   .     A
C598   H620    1.084   .     S
C598   C23     1.390   1_556 S
C599   H622    1.081   .     S
C600   H621    1.084   .     S
C601   O630    1.398   .     S
C601   O640    1.222   .     D
C602   O631    1.222   .     D
C602   O632    1.398   .     S
C603   H623    1.081   .     S
C603   C24     1.390   1_556 S
C604   H624    1.083   .     S
C604   C734    1.383   1_455 S
C605   H625    1.083   .     S
C605   C608    1.401   .     A
C605   C671    1.383   .     S
C606   H626    1.083   .     S
C606   C608    1.401   .     A
C606   C668    1.383   .     S
C607   H612    1.083   .     S
C607   C733    1.383   1_455 S
Cu609  O634    1.964   .     S
Cu609  N627    2.014   .     S
Cu609  Cu610   2.679   .     S
Cu609  O636    1.961   .     S
Cu609  O629    1.964   .     S
Cu609  O638    1.959   .     S
Cu610  O633    1.964   .     S
Cu610  N628    2.014   .     S
Cu610  O639    1.959   .     S
Cu610  O635    1.964   .     S
Cu610  O637    1.961   .     S
H617   O630    1.014   .     S
H618   O632    1.014   .     S
C641   O699    1.291   .     A
C641   C642    1.449   .     S
C641   O693    1.291   .     A
C642   C671    1.401   .     A
C642   C668    1.401   .     A
C643   N692    1.367   .     A
C643   H677    1.082   .     S
C643   C1030   1.417   1_545 S
C644   H678    1.082   .     S
C644   N691    1.367   .     A
C644   C837    1.417   .     S
C645   N692    1.367   .     A
C645   H679    1.081   .     S
C645   C1028   1.417   1_545 S
C646   N691    1.367   .     A
C646   H680    1.081   .     S
C646   C835    1.417   .     S
C647   O703    1.290   .     A
C647   O700    1.289   .     A
C647   C653    1.448   .     S
C648   O701    1.289   .     A
C648   C651    1.448   .     S
C648   O702    1.290   .     A
C649   C660    1.413   .     A
C649   C651    1.411   .     A
C649   C665    1.486   .     S
C650   C666    1.486   .     S
C650   C661    1.413   .     A
C650   C653    1.411   .     A
C651   C654    1.393   .     A
C652   O698    1.291   .     A
C652   C672    1.449   .     S
C652   O697    1.291   .     A
C653   C655    1.393   .     A
C654   C656    1.389   .     A
C654   H675    1.086   .     S
C655   H683    1.086   .     S
C655   C657    1.389   .     A
C656   C662    1.398   .     A
C656   C658    1.410   .     A
C657   C659    1.410   .     A
C657   C664    1.398   .     A
C658   C660    1.420   .     A
C658   C83     1.409   1_556 S
C659   C661    1.420   .     A
C660   C667    1.409   .     A
C661   C663    1.409   .     A
C662   H684    1.084   .     S
C662   C87     1.390   1_556 S
C663   H686    1.081   .     S
C664   H685    1.084   .     S
C665   O694    1.398   .     S
C665   O704    1.222   .     D
C666   O695    1.222   .     D
C666   O696    1.398   .     S
C667   H687    1.081   .     S
C667   C88     1.390   1_556 S
C668   H688    1.083   .     S
C669   H689    1.083   .     S
C669   C672    1.401   .     A
C669   C735    1.383   .     S
C670   H690    1.083   .     S
C670   C672    1.401   .     A
C670   C732    1.383   .     S
C671   H676    1.083   .     S
Cu673  O698    1.964   .     S
Cu673  N691    2.014   .     S
Cu673  Cu674   2.679   .     S
Cu673  O700    1.961   .     S
Cu673  O693    1.964   .     S
Cu673  O702    1.959   .     S
Cu674  O697    1.964   .     S
Cu674  N692    2.014   .     S
Cu674  O703    1.959   .     S
Cu674  O699    1.964   .     S
Cu674  O701    1.961   .     S
H681   O694    1.014   .     S
H682   O696    1.014   .     S
C705   O763    1.291   .     A
C705   C706    1.449   .     S
C705   O757    1.291   .     A
C706   C735    1.401   .     A
C706   C732    1.401   .     A
C707   N756    1.367   .     A
C707   H741    1.082   .     S
C707   C1094   1.417   1_545 S
C708   H742    1.082   .     S
C708   N755    1.367   .     A
C708   C901    1.417   .     S
C709   N756    1.367   .     A
C709   H743    1.081   .     S
C709   C1092   1.417   1_545 S
C710   N755    1.367   .     A
C710   H744    1.081   .     S
C710   C899    1.417   .     S
C711   O767    1.290   .     A
C711   O764    1.289   .     A
C711   C717    1.448   .     S
C712   O765    1.289   .     A
C712   C715    1.448   .     S
C712   O766    1.290   .     A
C713   C724    1.413   .     A
C713   C715    1.411   .     A
C713   C729    1.486   .     S
C714   C730    1.486   .     S
C714   C725    1.413   .     A
C714   C717    1.411   .     A
C715   C718    1.393   .     A
C716   O762    1.291   .     A
C716   C736    1.449   .     S
C716   O761    1.291   .     A
C717   C719    1.393   .     A
C718   C720    1.389   .     A
C718   H739    1.086   .     S
C719   H747    1.086   .     S
C719   C721    1.389   .     A
C720   C726    1.398   .     A
C720   C722    1.410   .     A
C721   C723    1.410   .     A
C721   C728    1.398   .     A
C722   C724    1.420   .     A
C722   C147    1.409   1_556 S
C723   C725    1.420   .     A
C724   C731    1.409   .     A
C725   C727    1.409   .     A
C726   H748    1.084   .     S
C726   C151    1.390   1_556 S
C727   H750    1.081   .     S
C728   H749    1.084   .     S
C729   O758    1.398   .     S
C729   O768    1.222   .     D
C730   O759    1.222   .     D
C730   O760    1.398   .     S
C731   H751    1.081   .     S
C731   C152    1.390   1_556 S
C732   H752    1.083   .     S
C733   H753    1.083   .     S
C733   C736    1.401   .     A
C733   C607    1.383   1_655 S
C734   H754    1.083   .     S
C734   C736    1.401   .     A
C734   C604    1.383   1_655 S
C735   H740    1.083   .     S
Cu737  O762    1.964   .     S
Cu737  N755    2.014   .     S
Cu737  Cu738   2.679   .     S
Cu737  O764    1.961   .     S
Cu737  O757    1.964   .     S
Cu737  O766    1.959   .     S
Cu738  O761    1.964   .     S
Cu738  N756    2.014   .     S
Cu738  O767    1.959   .     S
Cu738  O763    1.964   .     S
Cu738  O765    1.961   .     S
H745   O758    1.014   .     S
H746   O760    1.014   .     S
C769   O827    1.291   .     A
C769   C770    1.449   .     S
C769   O821    1.291   .     A
C770   C799    1.401   .     A
C770   C796    1.401   .     A
C771   N820    1.367   .     A
C771   H805    1.082   .     S
C772   H806    1.082   .     S
C772   N819    1.367   .     A
C772   C965    1.417   .     S
C773   N820    1.367   .     A
C773   H807    1.081   .     S
C774   N819    1.367   .     A
C774   H808    1.081   .     S
C774   C963    1.417   .     S
C775   O831    1.290   .     A
C775   O828    1.289   .     A
C775   C781    1.448   .     S
C776   O829    1.289   .     A
C776   C779    1.448   .     S
C776   O830    1.290   .     A
C777   C788    1.413   .     A
C777   C779    1.411   .     A
C777   C793    1.486   .     S
C778   C794    1.486   .     S
C778   C789    1.413   .     A
C778   C781    1.411   .     A
C779   C782    1.393   .     A
C780   O826    1.291   .     A
C780   C800    1.449   .     S
C780   O825    1.291   .     A
C781   C783    1.393   .     A
C782   C784    1.389   .     A
C782   H803    1.086   .     S
C783   H811    1.086   .     S
C783   C785    1.389   .     A
C784   C790    1.398   .     A
C784   C786    1.410   .     A
C785   C787    1.410   .     A
C785   C792    1.398   .     A
C786   C788    1.420   .     A
C786   C211    1.409   1_556 S
C787   C789    1.420   .     A
C788   C795    1.409   .     A
C789   C791    1.409   .     A
C790   H812    1.084   .     S
C790   C215    1.390   1_556 S
C791   H814    1.081   .     S
C792   H813    1.084   .     S
C793   O822    1.398   .     S
C793   O832    1.222   .     D
C794   O823    1.222   .     D
C794   O824    1.398   .     S
C795   H815    1.081   .     S
C795   C216    1.390   1_556 S
C796   H816    1.083   .     S
C796   C926    1.383   1_455 S
C797   H817    1.083   .     S
C797   C800    1.401   .     A
C797   C863    1.383   .     S
C798   H818    1.083   .     S
C798   C800    1.401   .     A
C798   C860    1.383   .     S
C799   H804    1.083   .     S
C799   C925    1.383   1_455 S
Cu801  O826    1.964   .     S
Cu801  N819    2.014   .     S
Cu801  Cu802   2.679   .     S
Cu801  O828    1.961   .     S
Cu801  O821    1.964   .     S
Cu801  O830    1.959   .     S
Cu802  O825    1.964   .     S
Cu802  N820    2.014   .     S
Cu802  O831    1.959   .     S
Cu802  O827    1.964   .     S
Cu802  O829    1.961   .     S
H809   O822    1.014   .     S
H810   O824    1.014   .     S
C833   O891    1.291   .     A
C833   C834    1.449   .     S
C833   O885    1.291   .     A
C834   C863    1.401   .     A
C834   C860    1.401   .     A
C835   N884    1.367   .     A
C835   H869    1.082   .     S
C836   H870    1.082   .     S
C836   N883    1.367   .     A
C836   C1029   1.417   .     S
C837   N884    1.367   .     A
C837   H871    1.081   .     S
C838   N883    1.367   .     A
C838   H872    1.081   .     S
C838   C1027   1.417   .     S
C839   O895    1.290   .     A
C839   O892    1.289   .     A
C839   C845    1.448   .     S
C840   O893    1.289   .     A
C840   C843    1.448   .     S
C840   O894    1.290   .     A
C841   C852    1.413   .     A
C841   C843    1.411   .     A
C841   C857    1.486   .     S
C842   C858    1.486   .     S
C842   C853    1.413   .     A
C842   C845    1.411   .     A
C843   C846    1.393   .     A
C844   O890    1.291   .     A
C844   C864    1.449   .     S
C844   O889    1.291   .     A
C845   C847    1.393   .     A
C846   C848    1.389   .     A
C846   H867    1.086   .     S
C847   H875    1.086   .     S
C847   C849    1.389   .     A
C848   C854    1.398   .     A
C848   C850    1.410   .     A
C849   C851    1.410   .     A
C849   C856    1.398   .     A
C850   C852    1.420   .     A
C850   C275    1.409   1_556 S
C851   C853    1.420   .     A
C852   C859    1.409   .     A
C853   C855    1.409   .     A
C854   H876    1.084   .     S
C854   C279    1.390   1_556 S
C855   H878    1.081   .     S
C856   H877    1.084   .     S
C857   O886    1.398   .     S
C857   O896    1.222   .     D
C858   O887    1.222   .     D
C858   O888    1.398   .     S
C859   H879    1.081   .     S
C859   C280    1.390   1_556 S
C860   H880    1.083   .     S
C861   H881    1.083   .     S
C861   C864    1.401   .     A
C861   C927    1.383   .     S
C862   H882    1.083   .     S
C862   C864    1.401   .     A
C862   C924    1.383   .     S
C863   H868    1.083   .     S
Cu865  O890    1.964   .     S
Cu865  N883    2.014   .     S
Cu865  Cu866   2.679   .     S
Cu865  O892    1.961   .     S
Cu865  O885    1.964   .     S
Cu865  O894    1.959   .     S
Cu866  O889    1.964   .     S
Cu866  N884    2.014   .     S
Cu866  O895    1.959   .     S
Cu866  O891    1.964   .     S
Cu866  O893    1.961   .     S
H873   O886    1.014   .     S
H874   O888    1.014   .     S
C897   O955    1.291   .     A
C897   C898    1.449   .     S
C897   O949    1.291   .     A
C898   C927    1.401   .     A
C898   C924    1.401   .     A
C899   N948    1.367   .     A
C899   H933    1.082   .     S
C900   H934    1.082   .     S
C900   N947    1.367   .     A
C900   C1093   1.417   .     S
C901   N948    1.367   .     A
C901   H935    1.081   .     S
C902   N947    1.367   .     A
C902   H936    1.081   .     S
C902   C1091   1.417   .     S
C903   O959    1.290   .     A
C903   O956    1.289   .     A
C903   C909    1.448   .     S
C904   O957    1.289   .     A
C904   C907    1.448   .     S
C904   O958    1.290   .     A
C905   C916    1.413   .     A
C905   C907    1.411   .     A
C905   C921    1.486   .     S
C906   C922    1.486   .     S
C906   C917    1.413   .     A
C906   C909    1.411   .     A
C907   C910    1.393   .     A
C908   O954    1.291   .     A
C908   C928    1.449   .     S
C908   O953    1.291   .     A
C909   C911    1.393   .     A
C910   C912    1.389   .     A
C910   H931    1.086   .     S
C911   H939    1.086   .     S
C911   C913    1.389   .     A
C912   C918    1.398   .     A
C912   C914    1.410   .     A
C913   C915    1.410   .     A
C913   C920    1.398   .     A
C914   C916    1.420   .     A
C914   C339    1.409   1_556 S
C915   C917    1.420   .     A
C916   C923    1.409   .     A
C917   C919    1.409   .     A
C918   H940    1.084   .     S
C918   C343    1.390   1_556 S
C919   H942    1.081   .     S
C920   H941    1.084   .     S
C921   O950    1.398   .     S
C921   O960    1.222   .     D
C922   O951    1.222   .     D
C922   O952    1.398   .     S
C923   H943    1.081   .     S
C923   C344    1.390   1_556 S
C924   H944    1.083   .     S
C925   H945    1.083   .     S
C925   C928    1.401   .     A
C925   C799    1.383   1_655 S
C926   H946    1.083   .     S
C926   C928    1.401   .     A
C926   C796    1.383   1_655 S
C927   H932    1.083   .     S
Cu929  O954    1.964   .     S
Cu929  N947    2.014   .     S
Cu929  Cu930   2.679   .     S
Cu929  O956    1.961   .     S
Cu929  O949    1.964   .     S
Cu929  O958    1.959   .     S
Cu930  O953    1.964   .     S
Cu930  N948    2.014   .     S
Cu930  O959    1.959   .     S
Cu930  O955    1.964   .     S
Cu930  O957    1.961   .     S
H937   O950    1.014   .     S
H938   O952    1.014   .     S
C961   O1019   1.291   .     A
C961   C962    1.449   .     S
C961   O1013   1.291   .     A
C962   C991    1.401   .     A
C962   C988    1.401   .     A
C963   N1012   1.367   .     A
C963   H997    1.082   .     S
C964   H998    1.082   .     S
C964   N1011   1.367   .     A
C964   C581    1.417   1_565 S
C965   N1012   1.367   .     A
C965   H999    1.081   .     S
C966   N1011   1.367   .     A
C966   H1000   1.081   .     S
C966   C579    1.417   1_565 S
C967   O1023   1.290   .     A
C967   O1020   1.289   .     A
C967   C973    1.448   .     S
C968   O1021   1.289   .     A
C968   C971    1.448   .     S
C968   O1022   1.290   .     A
C969   C980    1.413   .     A
C969   C971    1.411   .     A
C969   C985    1.486   .     S
C970   C986    1.486   .     S
C970   C981    1.413   .     A
C970   C973    1.411   .     A
C971   C974    1.393   .     A
C972   O1018   1.291   .     A
C972   C992    1.449   .     S
C972   O1017   1.291   .     A
C973   C975    1.393   .     A
C974   C976    1.389   .     A
C974   H995    1.086   .     S
C975   H1003   1.086   .     S
C975   C977    1.389   .     A
C976   C982    1.398   .     A
C976   C978    1.410   .     A
C977   C979    1.410   .     A
C977   C984    1.398   .     A
C978   C980    1.420   .     A
C978   C403    1.409   1_556 S
C979   C981    1.420   .     A
C980   C987    1.409   .     A
C981   C983    1.409   .     A
C982   H1004   1.084   .     S
C982   C407    1.390   1_556 S
C983   H1006   1.081   .     S
C984   H1005   1.084   .     S
C985   O1014   1.398   .     S
C985   O1024   1.222   .     D
C986   O1015   1.222   .     D
C986   O1016   1.398   .     S
C987   H1007   1.081   .     S
C987   C408    1.390   1_556 S
C988   H1008   1.083   .     S
C988   C1118   1.383   1_455 S
C989   H1009   1.083   .     S
C989   C992    1.401   .     A
C989   C1055   1.383   .     S
C990   H1010   1.083   .     S
C990   C992    1.401   .     A
C990   C1052   1.383   .     S
C991   H996    1.083   .     S
C991   C1117   1.383   1_455 S
Cu993  O1018   1.964   .     S
Cu993  N1011   2.014   .     S
Cu993  Cu994   2.679   .     S
Cu993  O1020   1.961   .     S
Cu993  O1013   1.964   .     S
Cu993  O1022   1.959   .     S
Cu994  O1017   1.964   .     S
Cu994  N1012   2.014   .     S
Cu994  O1023   1.959   .     S
Cu994  O1019   1.964   .     S
Cu994  O1021   1.961   .     S
H1001  O1014   1.014   .     S
H1002  O1016   1.014   .     S
C1025  O1083   1.291   .     A
C1025  C1026   1.449   .     S
C1025  O1077   1.291   .     A
C1026  C1055   1.401   .     A
C1026  C1052   1.401   .     A
C1027  N1076   1.367   .     A
C1027  H1061   1.082   .     S
C1028  H1062   1.082   .     S
C1028  N1075   1.367   .     A
C1028  C645    1.417   1_565 S
C1029  N1076   1.367   .     A
C1029  H1063   1.081   .     S
C1030  N1075   1.367   .     A
C1030  H1064   1.081   .     S
C1030  C643    1.417   1_565 S
C1031  O1087   1.290   .     A
C1031  O1084   1.289   .     A
C1031  C1037   1.448   .     S
C1032  O1085   1.289   .     A
C1032  C1035   1.448   .     S
C1032  O1086   1.290   .     A
C1033  C1044   1.413   .     A
C1033  C1035   1.411   .     A
C1033  C1049   1.486   .     S
C1034  C1050   1.486   .     S
C1034  C1045   1.413   .     A
C1034  C1037   1.411   .     A
C1035  C1038   1.393   .     A
C1036  O1082   1.291   .     A
C1036  C1056   1.449   .     S
C1036  O1081   1.291   .     A
C1037  C1039   1.393   .     A
C1038  C1040   1.389   .     A
C1038  H1059   1.086   .     S
C1039  H1067   1.086   .     S
C1039  C1041   1.389   .     A
C1040  C1046   1.398   .     A
C1040  C1042   1.410   .     A
C1041  C1043   1.410   .     A
C1041  C1048   1.398   .     A
C1042  C1044   1.420   .     A
C1042  C467    1.409   1_556 S
C1043  C1045   1.420   .     A
C1044  C1051   1.409   .     A
C1045  C1047   1.409   .     A
C1046  H1068   1.084   .     S
C1046  C471    1.390   1_556 S
C1047  H1070   1.081   .     S
C1048  H1069   1.084   .     S
C1049  O1078   1.398   .     S
C1049  O1088   1.222   .     D
C1050  O1079   1.222   .     D
C1050  O1080   1.398   .     S
C1051  H1071   1.081   .     S
C1051  C472    1.390   1_556 S
C1052  H1072   1.083   .     S
C1053  H1073   1.083   .     S
C1053  C1056   1.401   .     A
C1053  C1119   1.383   .     S
C1054  H1074   1.083   .     S
C1054  C1056   1.401   .     A
C1054  C1116   1.383   .     S
C1055  H1060   1.083   .     S
Cu1057 O1082   1.964   .     S
Cu1057 N1075   2.014   .     S
Cu1057 Cu1058  2.679   .     S
Cu1057 O1084   1.961   .     S
Cu1057 O1077   1.964   .     S
Cu1057 O1086   1.959   .     S
Cu1058 O1081   1.964   .     S
Cu1058 N1076   2.014   .     S
Cu1058 O1087   1.959   .     S
Cu1058 O1083   1.964   .     S
Cu1058 O1085   1.961   .     S
H1065  O1078   1.014   .     S
H1066  O1080   1.014   .     S
C1089  O1147   1.291   .     A
C1089  C1090   1.449   .     S
C1089  O1141   1.291   .     A
C1090  C1119   1.401   .     A
C1090  C1116   1.401   .     A
C1091  N1140   1.367   .     A
C1091  H1125   1.082   .     S
C1092  H1126   1.082   .     S
C1092  N1139   1.367   .     A
C1092  C709    1.417   1_565 S
C1093  N1140   1.367   .     A
C1093  H1127   1.081   .     S
C1094  N1139   1.367   .     A
C1094  H1128   1.081   .     S
C1094  C707    1.417   1_565 S
C1095  O1151   1.290   .     A
C1095  O1148   1.289   .     A
C1095  C1101   1.448   .     S
C1096  O1149   1.289   .     A
C1096  C1099   1.448   .     S
C1096  O1150   1.290   .     A
C1097  C1108   1.413   .     A
C1097  C1099   1.411   .     A
C1097  C1113   1.486   .     S
C1098  C1114   1.486   .     S
C1098  C1109   1.413   .     A
C1098  C1101   1.411   .     A
C1099  C1102   1.393   .     A
C1100  O1146   1.291   .     A
C1100  C1120   1.449   .     S
C1100  O1145   1.291   .     A
C1101  C1103   1.393   .     A
C1102  C1104   1.389   .     A
C1102  H1123   1.086   .     S
C1103  H1131   1.086   .     S
C1103  C1105   1.389   .     A
C1104  C1110   1.398   .     A
C1104  C1106   1.410   .     A
C1105  C1107   1.410   .     A
C1105  C1112   1.398   .     A
C1106  C1108   1.420   .     A
C1106  C531    1.409   1_556 S
C1107  C1109   1.420   .     A
C1108  C1115   1.409   .     A
C1109  C1111   1.409   .     A
C1110  H1132   1.084   .     S
C1110  C535    1.390   1_556 S
C1111  H1134   1.081   .     S
C1112  H1133   1.084   .     S
C1113  O1142   1.398   .     S
C1113  O1152   1.222   .     D
C1114  O1143   1.222   .     D
C1114  O1144   1.398   .     S
C1115  H1135   1.081   .     S
C1115  C536    1.390   1_556 S
C1116  H1136   1.083   .     S
C1117  H1137   1.083   .     S
C1117  C1120   1.401   .     A
C1117  C991    1.383   1_655 S
C1118  H1138   1.083   .     S
C1118  C1120   1.401   .     A
C1118  C988    1.383   1_655 S
C1119  H1124   1.083   .     S
Cu1121 O1146   1.964   .     S
Cu1121 N1139   2.014   .     S
Cu1121 Cu1122  2.679   .     S
Cu1121 O1148   1.961   .     S
Cu1121 O1141   1.964   .     S
Cu1121 O1150   1.959   .     S
Cu1122 O1145   1.964   .     S
Cu1122 N1140   2.014   .     S
Cu1122 O1151   1.959   .     S
Cu1122 O1147   1.964   .     S
Cu1122 O1149   1.961   .     S
H1129  O1142   1.014   .     S
H1130  O1144   1.014   .     S
