data_str_m3_o1_o16_pcu_sym.265
_audit_creation_date              2020-01-03
_audit_creation_method            'Materials Studio'
_symmetry_space_group_name_H-M    'P1'
_symmetry_Int_Tables_number       1
_symmetry_cell_setting            triclinic
loop_
_symmetry_equiv_pos_as_xyz
  x,y,z
_cell_length_a                    29.9162
_cell_length_b                    32.1346
_cell_length_c                    26.1703
_cell_angle_alpha                 93.0452
_cell_angle_beta                  68.9138
_cell_angle_gamma                 90.2643
loop_
_atom_site_label
_atom_site_type_symbol
_atom_site_fract_x
_atom_site_fract_y
_atom_site_fract_z
_atom_site_U_iso_or_equiv
_atom_site_adp_type
_atom_site_occupancy
C1     C     0.16671   0.24658   0.25010   0.00000  Uiso   1.00
C2     C     0.14492   0.15474   0.49264   0.00000  Uiso   1.00
C3     C     0.15321   0.14484   0.43695   0.00000  Uiso   1.00
C4     C     0.18216   0.14807   0.01275   0.00000  Uiso   1.00
C5     C     0.22290   0.12330   0.48176   0.00000  Uiso   1.00
C6     C     0.22701   0.10834   0.42873   0.00000  Uiso   1.00
C7     C     0.19294   0.11899   0.40678   0.00000  Uiso   1.00
C8     C     0.17956   0.16650   0.06286   0.00000  Uiso   1.00
C9     C     0.25333   0.13209   0.05737   0.00000  Uiso   1.00
C10    C     0.12163   0.16116   0.41307   0.00000  Uiso   1.00
C11    C     0.20251   0.31273   0.26204   0.00000  Uiso   1.00
C12    C     0.13952   0.16517   0.35269   0.00000  Uiso   1.00
C13    C     0.20235   0.02205   0.26223   0.00000  Uiso   1.00
C14    C     0.16647   0.04256   0.25029   0.00000  Uiso   1.00
C15    C     0.13067   0.02064   0.23840   0.00000  Uiso   1.00
C16    C     0.13086   0.31133   0.23818   0.00000  Uiso   1.00
C17    C     0.16675   0.29080   0.25007   0.00000  Uiso   1.00
C18    C     0.31919   0.13913   0.21697   0.00000  Uiso   1.00
C19    C     0.03343   0.13876   0.21658   0.00000  Uiso   1.00
C20    C     0.01381   0.19506   0.28282   0.00000  Uiso   1.00
C21    C     0.29904   0.19463   0.28370   0.00000  Uiso   1.00
C22    C     0.16660   0.08676   0.24998   0.00000  Uiso   1.00
C23    C     0.19397   0.16500   0.14735   0.00000  Uiso   1.00
C24    C     0.25804   0.11389   0.00469   0.00000  Uiso   1.00
C25    C     0.21165   0.15634   0.08743   0.00000  Uiso   1.00
C26    C     0.07617   0.17754   0.44841   0.00000  Uiso   1.00
C27    C     0.06535   0.18042   0.00496   0.00000  Uiso   1.00
C28    C     0.09934   0.17026   0.02677   0.00000  Uiso   1.00
H29    H     0.25721   0.08945   0.40266   0.00000  Uiso   1.00
H30    H     0.08847   0.17363   0.07086   0.00000  Uiso   1.00
H31    H     0.19759   0.10580   0.36627   0.00000  Uiso   1.00
N32    N     0.04760   0.16668   0.25002   0.00000  Uiso   1.00
N33    N     0.28573   0.16665   0.25001   0.00000  Uiso   1.00
O34    O     0.12846   0.22775   0.25001   0.00000  Uiso   1.00
O35    O     0.20490   0.22774   0.25001   0.00000  Uiso   1.00
O36    O     0.10947   0.16666   0.32681   0.00000  Uiso   1.00
O37    O     0.18591   0.16665   0.32681   0.00000  Uiso   1.00
O38    O     0.12843   0.10559   0.25000   0.00000  Uiso   1.00
O39    O     0.20488   0.10558   0.25000   0.00000  Uiso   1.00
O40    O     0.14742   0.16668   0.17319   0.00000  Uiso   1.00
O41    O     0.22387   0.16667   0.17319   0.00000  Uiso   1.00
Zn42   Zn    0.11562   0.16667   0.25000   0.00000  Uiso   1.00
Zn43   Zn    0.21771   0.16666   0.25000   0.00000  Uiso   1.00
C44    C     0.29195   0.12637   0.08132   0.00000  Uiso   1.00
H45    H     0.29889   0.15641   0.09975   0.00000  Uiso   1.00
H46    H     0.28078   0.10272   0.11274   0.00000  Uiso   1.00
H47    H     0.32731   0.11749   0.05020   0.00000  Uiso   1.00
H48    H     0.23004   0.03884   0.27194   0.00000  Uiso   1.00
H49    H     0.10289   0.03626   0.22886   0.00000  Uiso   1.00
H50    H     0.10327   0.29456   0.22827   0.00000  Uiso   1.00
H51    H     0.30892   0.11706   0.19064   0.00000  Uiso   1.00
C52    C     0.06658   0.10683   0.17723   0.00000  Uiso   1.00
H53    H     0.10323   0.10707   0.17665   0.00000  Uiso   1.00
H54    H     0.05226   0.07522   0.18776   0.00000  Uiso   1.00
H55    H     0.06849   0.11217   0.13491   0.00000  Uiso   1.00
C56    C     0.02755   0.22872   0.31632   0.00000  Uiso   1.00
H57    H     0.06065   0.22116   0.32198   0.00000  Uiso   1.00
H58    H     0.03138   0.25872   0.29612   0.00000  Uiso   1.00
H59    H     0.00068   0.23266   0.35842   0.00000  Uiso   1.00
C60    C     0.26342   0.22516   0.32385   0.00000  Uiso   1.00
H61    H     0.22785   0.22577   0.32209   0.00000  Uiso   1.00
H62    H     0.25831   0.21745   0.36643   0.00000  Uiso   1.00
H63    H     0.27668   0.25745   0.31688   0.00000  Uiso   1.00
C64    C     0.29760   0.08221   0.47469   0.00000  Uiso   1.00
H65    H     0.28273   0.05499   0.45865   0.00000  Uiso   1.00
H66    H     0.32566   0.09681   0.44028   0.00000  Uiso   1.00
H67    H     0.31411   0.06810   0.00139   0.00000  Uiso   1.00
H68    H     0.15149   0.18893   0.08467   0.00000  Uiso   1.00
C69    C     0.03946   0.19462   0.42816   0.00000  Uiso   1.00
H70    H     0.03099   0.17130   0.40032   0.00000  Uiso   1.00
H71    H     0.00507   0.20265   0.46213   0.00000  Uiso   1.00
H72    H     0.05350   0.22386   0.40817   0.00000  Uiso   1.00
H73    H     0.03105   0.19281   0.03256   0.00000  Uiso   1.00
H74    H     0.23033   0.29710   0.27152   0.00000  Uiso   1.00
C75    C     0.50005   0.24658   0.25010   0.00000  Uiso   1.00
C76    C     0.47825   0.15474   0.49264   0.00000  Uiso   1.00
C77    C     0.48654   0.14484   0.43695   0.00000  Uiso   1.00
C78    C     0.51549   0.14807   0.01275   0.00000  Uiso   1.00
C79    C     0.55624   0.12330   0.48176   0.00000  Uiso   1.00
C80    C     0.56034   0.10834   0.42873   0.00000  Uiso   1.00
C81    C     0.52627   0.11899   0.40678   0.00000  Uiso   1.00
C82    C     0.51290   0.16650   0.06286   0.00000  Uiso   1.00
C83    C     0.58666   0.13209   0.05737   0.00000  Uiso   1.00
C84    C     0.45497   0.16116   0.41307   0.00000  Uiso   1.00
C85    C     0.53585   0.31273   0.26204   0.00000  Uiso   1.00
C86    C     0.47286   0.16517   0.35269   0.00000  Uiso   1.00
C87    C     0.53569   0.02205   0.26223   0.00000  Uiso   1.00
C88    C     0.49980   0.04256   0.25029   0.00000  Uiso   1.00
C89    C     0.46400   0.02064   0.23840   0.00000  Uiso   1.00
C90    C     0.46419   0.31133   0.23818   0.00000  Uiso   1.00
C91    C     0.50008   0.29080   0.25007   0.00000  Uiso   1.00
C92    C     0.65252   0.13913   0.21697   0.00000  Uiso   1.00
C93    C     0.36676   0.13876   0.21658   0.00000  Uiso   1.00
C94    C     0.34714   0.19506   0.28282   0.00000  Uiso   1.00
C95    C     0.63237   0.19463   0.28370   0.00000  Uiso   1.00
C96    C     0.49993   0.08676   0.24998   0.00000  Uiso   1.00
C97    C     0.52730   0.16500   0.14735   0.00000  Uiso   1.00
C98    C     0.59137   0.11389   0.00469   0.00000  Uiso   1.00
C99    C     0.54498   0.15634   0.08743   0.00000  Uiso   1.00
C100   C     0.40950   0.17754   0.44841   0.00000  Uiso   1.00
C101   C     0.39868   0.18042   0.00496   0.00000  Uiso   1.00
C102   C     0.43267   0.17026   0.02677   0.00000  Uiso   1.00
H103   H     0.59055   0.08945   0.40266   0.00000  Uiso   1.00
H104   H     0.42180   0.17363   0.07086   0.00000  Uiso   1.00
H105   H     0.53092   0.10580   0.36627   0.00000  Uiso   1.00
N106   N     0.38093   0.16668   0.25002   0.00000  Uiso   1.00
N107   N     0.61906   0.16665   0.25001   0.00000  Uiso   1.00
O108   O     0.46179   0.22775   0.25001   0.00000  Uiso   1.00
O109   O     0.53823   0.22774   0.25001   0.00000  Uiso   1.00
O110   O     0.44280   0.16666   0.32681   0.00000  Uiso   1.00
O111   O     0.51924   0.16665   0.32681   0.00000  Uiso   1.00
O112   O     0.46177   0.10559   0.25000   0.00000  Uiso   1.00
O113   O     0.53821   0.10558   0.25000   0.00000  Uiso   1.00
O114   O     0.48076   0.16668   0.17319   0.00000  Uiso   1.00
O115   O     0.55720   0.16667   0.17319   0.00000  Uiso   1.00
Zn116  Zn    0.44896   0.16667   0.25000   0.00000  Uiso   1.00
Zn117  Zn    0.55104   0.16666   0.25000   0.00000  Uiso   1.00
C118   C     0.62528   0.12637   0.08132   0.00000  Uiso   1.00
H119   H     0.63223   0.15641   0.09975   0.00000  Uiso   1.00
H120   H     0.61411   0.10272   0.11274   0.00000  Uiso   1.00
H121   H     0.66064   0.11749   0.05020   0.00000  Uiso   1.00
H122   H     0.56337   0.03884   0.27194   0.00000  Uiso   1.00
H123   H     0.43622   0.03626   0.22886   0.00000  Uiso   1.00
H124   H     0.43661   0.29456   0.22827   0.00000  Uiso   1.00
H125   H     0.64225   0.11706   0.19064   0.00000  Uiso   1.00
C126   C     0.39992   0.10683   0.17723   0.00000  Uiso   1.00
H127   H     0.43656   0.10707   0.17665   0.00000  Uiso   1.00
H128   H     0.38559   0.07522   0.18776   0.00000  Uiso   1.00
H129   H     0.40183   0.11217   0.13491   0.00000  Uiso   1.00
C130   C     0.36089   0.22872   0.31632   0.00000  Uiso   1.00
H131   H     0.39398   0.22116   0.32198   0.00000  Uiso   1.00
H132   H     0.36472   0.25872   0.29612   0.00000  Uiso   1.00
H133   H     0.33402   0.23266   0.35842   0.00000  Uiso   1.00
C134   C     0.59675   0.22516   0.32385   0.00000  Uiso   1.00
H135   H     0.56118   0.22577   0.32209   0.00000  Uiso   1.00
H136   H     0.59165   0.21745   0.36643   0.00000  Uiso   1.00
H137   H     0.61001   0.25745   0.31688   0.00000  Uiso   1.00
C138   C     0.63093   0.08221   0.47469   0.00000  Uiso   1.00
H139   H     0.61606   0.05499   0.45865   0.00000  Uiso   1.00
H140   H     0.65899   0.09681   0.44028   0.00000  Uiso   1.00
H141   H     0.64745   0.06810   0.00139   0.00000  Uiso   1.00
H142   H     0.48482   0.18893   0.08467   0.00000  Uiso   1.00
C143   C     0.37280   0.19462   0.42816   0.00000  Uiso   1.00
H144   H     0.36432   0.17130   0.40032   0.00000  Uiso   1.00
H145   H     0.33840   0.20265   0.46213   0.00000  Uiso   1.00
H146   H     0.38683   0.22386   0.40817   0.00000  Uiso   1.00
H147   H     0.36439   0.19281   0.03256   0.00000  Uiso   1.00
H148   H     0.56366   0.29710   0.27152   0.00000  Uiso   1.00
C149   C     0.83338   0.24658   0.25010   0.00000  Uiso   1.00
C150   C     0.81158   0.15474   0.49264   0.00000  Uiso   1.00
C151   C     0.81987   0.14484   0.43695   0.00000  Uiso   1.00
C152   C     0.84882   0.14807   0.01275   0.00000  Uiso   1.00
C153   C     0.88957   0.12330   0.48176   0.00000  Uiso   1.00
C154   C     0.89368   0.10834   0.42873   0.00000  Uiso   1.00
C155   C     0.85961   0.11899   0.40678   0.00000  Uiso   1.00
C156   C     0.84623   0.16650   0.06286   0.00000  Uiso   1.00
C157   C     0.92000   0.13209   0.05737   0.00000  Uiso   1.00
C158   C     0.78830   0.16116   0.41307   0.00000  Uiso   1.00
C159   C     0.86918   0.31273   0.26204   0.00000  Uiso   1.00
C160   C     0.80619   0.16517   0.35269   0.00000  Uiso   1.00
C161   C     0.86902   0.02205   0.26223   0.00000  Uiso   1.00
C162   C     0.83314   0.04256   0.25029   0.00000  Uiso   1.00
C163   C     0.79734   0.02064   0.23840   0.00000  Uiso   1.00
C164   C     0.79753   0.31133   0.23818   0.00000  Uiso   1.00
C165   C     0.83342   0.29080   0.25007   0.00000  Uiso   1.00
C166   C     0.98586   0.13913   0.21697   0.00000  Uiso   1.00
C167   C     0.70010   0.13876   0.21658   0.00000  Uiso   1.00
C168   C     0.68048   0.19506   0.28282   0.00000  Uiso   1.00
C169   C     0.96570   0.19463   0.28370   0.00000  Uiso   1.00
C170   C     0.83326   0.08676   0.24998   0.00000  Uiso   1.00
C171   C     0.86063   0.16500   0.14735   0.00000  Uiso   1.00
C172   C     0.92471   0.11389   0.00469   0.00000  Uiso   1.00
C173   C     0.87831   0.15634   0.08743   0.00000  Uiso   1.00
C174   C     0.74284   0.17754   0.44841   0.00000  Uiso   1.00
C175   C     0.73201   0.18042   0.00496   0.00000  Uiso   1.00
C176   C     0.76601   0.17026   0.02677   0.00000  Uiso   1.00
H177   H     0.92388   0.08945   0.40266   0.00000  Uiso   1.00
H178   H     0.75514   0.17363   0.07086   0.00000  Uiso   1.00
H179   H     0.86426   0.10580   0.36627   0.00000  Uiso   1.00
N180   N     0.71426   0.16668   0.25002   0.00000  Uiso   1.00
N181   N     0.95239   0.16665   0.25001   0.00000  Uiso   1.00
O182   O     0.79512   0.22775   0.25001   0.00000  Uiso   1.00
O183   O     0.87157   0.22774   0.25001   0.00000  Uiso   1.00
O184   O     0.77613   0.16666   0.32681   0.00000  Uiso   1.00
O185   O     0.85258   0.16665   0.32681   0.00000  Uiso   1.00
O186   O     0.79510   0.10559   0.25000   0.00000  Uiso   1.00
O187   O     0.87154   0.10558   0.25000   0.00000  Uiso   1.00
O188   O     0.81409   0.16668   0.17319   0.00000  Uiso   1.00
O189   O     0.89053   0.16667   0.17319   0.00000  Uiso   1.00
Zn190  Zn    0.78229   0.16667   0.25000   0.00000  Uiso   1.00
Zn191  Zn    0.88438   0.16666   0.25000   0.00000  Uiso   1.00
C192   C     0.95862   0.12637   0.08132   0.00000  Uiso   1.00
H193   H     0.96556   0.15641   0.09975   0.00000  Uiso   1.00
H194   H     0.94744   0.10272   0.11274   0.00000  Uiso   1.00
H195   H     0.99398   0.11749   0.05020   0.00000  Uiso   1.00
H196   H     0.89671   0.03884   0.27194   0.00000  Uiso   1.00
H197   H     0.76955   0.03626   0.22886   0.00000  Uiso   1.00
H198   H     0.76994   0.29456   0.22827   0.00000  Uiso   1.00
H199   H     0.97558   0.11706   0.19064   0.00000  Uiso   1.00
C200   C     0.73325   0.10683   0.17723   0.00000  Uiso   1.00
H201   H     0.76990   0.10707   0.17665   0.00000  Uiso   1.00
H202   H     0.71892   0.07522   0.18776   0.00000  Uiso   1.00
H203   H     0.73516   0.11217   0.13491   0.00000  Uiso   1.00
C204   C     0.69422   0.22872   0.31632   0.00000  Uiso   1.00
H205   H     0.72731   0.22116   0.32198   0.00000  Uiso   1.00
H206   H     0.69805   0.25872   0.29612   0.00000  Uiso   1.00
H207   H     0.66735   0.23266   0.35842   0.00000  Uiso   1.00
C208   C     0.93009   0.22516   0.32385   0.00000  Uiso   1.00
H209   H     0.89451   0.22577   0.32209   0.00000  Uiso   1.00
H210   H     0.92498   0.21745   0.36643   0.00000  Uiso   1.00
H211   H     0.94335   0.25745   0.31688   0.00000  Uiso   1.00
C212   C     0.96427   0.08221   0.47469   0.00000  Uiso   1.00
H213   H     0.94939   0.05499   0.45865   0.00000  Uiso   1.00
H214   H     0.99232   0.09681   0.44028   0.00000  Uiso   1.00
H215   H     0.98078   0.06810   0.00139   0.00000  Uiso   1.00
H216   H     0.81816   0.18893   0.08467   0.00000  Uiso   1.00
C217   C     0.70613   0.19462   0.42816   0.00000  Uiso   1.00
H218   H     0.69765   0.17130   0.40032   0.00000  Uiso   1.00
H219   H     0.67174   0.20265   0.46213   0.00000  Uiso   1.00
H220   H     0.72016   0.22386   0.40817   0.00000  Uiso   1.00
H221   H     0.69772   0.19281   0.03256   0.00000  Uiso   1.00
H222   H     0.89699   0.29710   0.27152   0.00000  Uiso   1.00
C223   C     0.16671   0.57991   0.25010   0.00000  Uiso   1.00
C224   C     0.14492   0.48807   0.49264   0.00000  Uiso   1.00
C225   C     0.15321   0.47817   0.43695   0.00000  Uiso   1.00
C226   C     0.18216   0.48140   0.01275   0.00000  Uiso   1.00
C227   C     0.22290   0.45663   0.48176   0.00000  Uiso   1.00
C228   C     0.22701   0.44168   0.42873   0.00000  Uiso   1.00
C229   C     0.19294   0.45232   0.40678   0.00000  Uiso   1.00
C230   C     0.17956   0.49984   0.06286   0.00000  Uiso   1.00
C231   C     0.25333   0.46542   0.05737   0.00000  Uiso   1.00
C232   C     0.12163   0.49450   0.41307   0.00000  Uiso   1.00
C233   C     0.20251   0.64606   0.26204   0.00000  Uiso   1.00
C234   C     0.13952   0.49851   0.35269   0.00000  Uiso   1.00
C235   C     0.20235   0.35539   0.26223   0.00000  Uiso   1.00
C236   C     0.16647   0.37589   0.25029   0.00000  Uiso   1.00
C237   C     0.13067   0.35397   0.23840   0.00000  Uiso   1.00
C238   C     0.13086   0.64466   0.23818   0.00000  Uiso   1.00
C239   C     0.16675   0.62414   0.25007   0.00000  Uiso   1.00
C240   C     0.31919   0.47247   0.21697   0.00000  Uiso   1.00
C241   C     0.03343   0.47209   0.21658   0.00000  Uiso   1.00
C242   C     0.01381   0.52839   0.28282   0.00000  Uiso   1.00
C243   C     0.29904   0.52797   0.28370   0.00000  Uiso   1.00
C244   C     0.16660   0.42009   0.24998   0.00000  Uiso   1.00
C245   C     0.19397   0.49833   0.14735   0.00000  Uiso   1.00
C246   C     0.25804   0.44723   0.00469   0.00000  Uiso   1.00
C247   C     0.21165   0.48967   0.08743   0.00000  Uiso   1.00
C248   C     0.07617   0.51087   0.44841   0.00000  Uiso   1.00
C249   C     0.06535   0.51375   0.00496   0.00000  Uiso   1.00
C250   C     0.09934   0.50359   0.02677   0.00000  Uiso   1.00
H251   H     0.25721   0.42278   0.40266   0.00000  Uiso   1.00
H252   H     0.08847   0.50697   0.07086   0.00000  Uiso   1.00
H253   H     0.19759   0.43913   0.36627   0.00000  Uiso   1.00
N254   N     0.04760   0.50001   0.25002   0.00000  Uiso   1.00
N255   N     0.28573   0.49998   0.25001   0.00000  Uiso   1.00
O256   O     0.12846   0.56108   0.25001   0.00000  Uiso   1.00
O257   O     0.20490   0.56107   0.25001   0.00000  Uiso   1.00
O258   O     0.10947   0.50000   0.32681   0.00000  Uiso   1.00
O259   O     0.18591   0.49999   0.32681   0.00000  Uiso   1.00
O260   O     0.12843   0.43893   0.25000   0.00000  Uiso   1.00
O261   O     0.20488   0.43892   0.25000   0.00000  Uiso   1.00
O262   O     0.14742   0.50001   0.17319   0.00000  Uiso   1.00
O263   O     0.22387   0.50000   0.17319   0.00000  Uiso   1.00
Zn264  Zn    0.11562   0.50001   0.25000   0.00000  Uiso   1.00
Zn265  Zn    0.21771   0.49999   0.25000   0.00000  Uiso   1.00
C266   C     0.29195   0.45970   0.08132   0.00000  Uiso   1.00
H267   H     0.29889   0.48974   0.09975   0.00000  Uiso   1.00
H268   H     0.28078   0.43605   0.11274   0.00000  Uiso   1.00
H269   H     0.32731   0.45082   0.05020   0.00000  Uiso   1.00
H270   H     0.23004   0.37217   0.27194   0.00000  Uiso   1.00
H271   H     0.10289   0.36959   0.22886   0.00000  Uiso   1.00
H272   H     0.10327   0.62789   0.22827   0.00000  Uiso   1.00
H273   H     0.30892   0.45039   0.19064   0.00000  Uiso   1.00
C274   C     0.06658   0.44017   0.17723   0.00000  Uiso   1.00
H275   H     0.10323   0.44040   0.17665   0.00000  Uiso   1.00
H276   H     0.05226   0.40855   0.18776   0.00000  Uiso   1.00
H277   H     0.06849   0.44550   0.13491   0.00000  Uiso   1.00
C278   C     0.02755   0.56205   0.31632   0.00000  Uiso   1.00
H279   H     0.06065   0.55450   0.32198   0.00000  Uiso   1.00
H280   H     0.03138   0.59205   0.29612   0.00000  Uiso   1.00
H281   H     0.00068   0.56600   0.35842   0.00000  Uiso   1.00
C282   C     0.26342   0.55849   0.32385   0.00000  Uiso   1.00
H283   H     0.22785   0.55910   0.32209   0.00000  Uiso   1.00
H284   H     0.25831   0.55078   0.36643   0.00000  Uiso   1.00
H285   H     0.27668   0.59079   0.31688   0.00000  Uiso   1.00
C286   C     0.29760   0.41555   0.47469   0.00000  Uiso   1.00
H287   H     0.28273   0.38833   0.45865   0.00000  Uiso   1.00
H288   H     0.32566   0.43014   0.44028   0.00000  Uiso   1.00
H289   H     0.31411   0.40143   0.00139   0.00000  Uiso   1.00
H290   H     0.15149   0.52226   0.08467   0.00000  Uiso   1.00
C291   C     0.03946   0.52796   0.42816   0.00000  Uiso   1.00
H292   H     0.03099   0.50464   0.40032   0.00000  Uiso   1.00
H293   H     0.00507   0.53598   0.46213   0.00000  Uiso   1.00
H294   H     0.05350   0.55719   0.40817   0.00000  Uiso   1.00
H295   H     0.03105   0.52614   0.03256   0.00000  Uiso   1.00
H296   H     0.23033   0.63043   0.27152   0.00000  Uiso   1.00
C297   C     0.50005   0.57991   0.25010   0.00000  Uiso   1.00
C298   C     0.47825   0.48807   0.49264   0.00000  Uiso   1.00
C299   C     0.48654   0.47817   0.43695   0.00000  Uiso   1.00
C300   C     0.51549   0.48140   0.01275   0.00000  Uiso   1.00
C301   C     0.55624   0.45663   0.48176   0.00000  Uiso   1.00
C302   C     0.56034   0.44168   0.42873   0.00000  Uiso   1.00
C303   C     0.52627   0.45232   0.40678   0.00000  Uiso   1.00
C304   C     0.51290   0.49984   0.06286   0.00000  Uiso   1.00
C305   C     0.58666   0.46542   0.05737   0.00000  Uiso   1.00
C306   C     0.45497   0.49450   0.41307   0.00000  Uiso   1.00
C307   C     0.53585   0.64606   0.26204   0.00000  Uiso   1.00
C308   C     0.47286   0.49851   0.35269   0.00000  Uiso   1.00
C309   C     0.53569   0.35539   0.26223   0.00000  Uiso   1.00
C310   C     0.49980   0.37589   0.25029   0.00000  Uiso   1.00
C311   C     0.46400   0.35397   0.23840   0.00000  Uiso   1.00
C312   C     0.46419   0.64466   0.23818   0.00000  Uiso   1.00
C313   C     0.50008   0.62414   0.25007   0.00000  Uiso   1.00
C314   C     0.65252   0.47247   0.21697   0.00000  Uiso   1.00
C315   C     0.36676   0.47209   0.21658   0.00000  Uiso   1.00
C316   C     0.34714   0.52839   0.28282   0.00000  Uiso   1.00
C317   C     0.63237   0.52797   0.28370   0.00000  Uiso   1.00
C318   C     0.49993   0.42009   0.24998   0.00000  Uiso   1.00
C319   C     0.52730   0.49833   0.14735   0.00000  Uiso   1.00
C320   C     0.59137   0.44723   0.00469   0.00000  Uiso   1.00
C321   C     0.54498   0.48967   0.08743   0.00000  Uiso   1.00
C322   C     0.40950   0.51087   0.44841   0.00000  Uiso   1.00
C323   C     0.39868   0.51375   0.00496   0.00000  Uiso   1.00
C324   C     0.43267   0.50359   0.02677   0.00000  Uiso   1.00
H325   H     0.59055   0.42278   0.40266   0.00000  Uiso   1.00
H326   H     0.42180   0.50697   0.07086   0.00000  Uiso   1.00
H327   H     0.53092   0.43913   0.36627   0.00000  Uiso   1.00
N328   N     0.38093   0.50001   0.25002   0.00000  Uiso   1.00
N329   N     0.61906   0.49998   0.25001   0.00000  Uiso   1.00
O330   O     0.46179   0.56108   0.25001   0.00000  Uiso   1.00
O331   O     0.53823   0.56107   0.25001   0.00000  Uiso   1.00
O332   O     0.44280   0.50000   0.32681   0.00000  Uiso   1.00
O333   O     0.51924   0.49999   0.32681   0.00000  Uiso   1.00
O334   O     0.46177   0.43893   0.25000   0.00000  Uiso   1.00
O335   O     0.53821   0.43892   0.25000   0.00000  Uiso   1.00
O336   O     0.48076   0.50001   0.17319   0.00000  Uiso   1.00
O337   O     0.55720   0.50000   0.17319   0.00000  Uiso   1.00
Zn338  Zn    0.44896   0.50001   0.25000   0.00000  Uiso   1.00
Zn339  Zn    0.55104   0.49999   0.25000   0.00000  Uiso   1.00
C340   C     0.62528   0.45970   0.08132   0.00000  Uiso   1.00
H341   H     0.63223   0.48974   0.09975   0.00000  Uiso   1.00
H342   H     0.61411   0.43605   0.11274   0.00000  Uiso   1.00
H343   H     0.66064   0.45082   0.05020   0.00000  Uiso   1.00
H344   H     0.56337   0.37217   0.27194   0.00000  Uiso   1.00
H345   H     0.43622   0.36959   0.22886   0.00000  Uiso   1.00
H346   H     0.43661   0.62789   0.22827   0.00000  Uiso   1.00
H347   H     0.64225   0.45039   0.19064   0.00000  Uiso   1.00
C348   C     0.39992   0.44017   0.17723   0.00000  Uiso   1.00
H349   H     0.43656   0.44040   0.17665   0.00000  Uiso   1.00
H350   H     0.38559   0.40855   0.18776   0.00000  Uiso   1.00
H351   H     0.40183   0.44550   0.13491   0.00000  Uiso   1.00
C352   C     0.36089   0.56205   0.31632   0.00000  Uiso   1.00
H353   H     0.39398   0.55450   0.32198   0.00000  Uiso   1.00
H354   H     0.36472   0.59205   0.29612   0.00000  Uiso   1.00
H355   H     0.33402   0.56600   0.35842   0.00000  Uiso   1.00
C356   C     0.59675   0.55849   0.32385   0.00000  Uiso   1.00
H357   H     0.56118   0.55910   0.32209   0.00000  Uiso   1.00
H358   H     0.59165   0.55078   0.36643   0.00000  Uiso   1.00
H359   H     0.61001   0.59079   0.31688   0.00000  Uiso   1.00
C360   C     0.63093   0.41555   0.47469   0.00000  Uiso   1.00
H361   H     0.61606   0.38833   0.45865   0.00000  Uiso   1.00
H362   H     0.65899   0.43014   0.44028   0.00000  Uiso   1.00
H363   H     0.64745   0.40143   0.00139   0.00000  Uiso   1.00
H364   H     0.48482   0.52226   0.08467   0.00000  Uiso   1.00
C365   C     0.37280   0.52796   0.42816   0.00000  Uiso   1.00
H366   H     0.36432   0.50464   0.40032   0.00000  Uiso   1.00
H367   H     0.33840   0.53598   0.46213   0.00000  Uiso   1.00
H368   H     0.38683   0.55719   0.40817   0.00000  Uiso   1.00
H369   H     0.36439   0.52614   0.03256   0.00000  Uiso   1.00
H370   H     0.56366   0.63043   0.27152   0.00000  Uiso   1.00
C371   C     0.83338   0.57991   0.25010   0.00000  Uiso   1.00
C372   C     0.81158   0.48807   0.49264   0.00000  Uiso   1.00
C373   C     0.81987   0.47817   0.43695   0.00000  Uiso   1.00
C374   C     0.84882   0.48140   0.01275   0.00000  Uiso   1.00
C375   C     0.88957   0.45663   0.48176   0.00000  Uiso   1.00
C376   C     0.89368   0.44168   0.42873   0.00000  Uiso   1.00
C377   C     0.85961   0.45232   0.40678   0.00000  Uiso   1.00
C378   C     0.84623   0.49984   0.06286   0.00000  Uiso   1.00
C379   C     0.92000   0.46542   0.05737   0.00000  Uiso   1.00
C380   C     0.78830   0.49450   0.41307   0.00000  Uiso   1.00
C381   C     0.86918   0.64606   0.26204   0.00000  Uiso   1.00
C382   C     0.80619   0.49851   0.35269   0.00000  Uiso   1.00
C383   C     0.86902   0.35539   0.26223   0.00000  Uiso   1.00
C384   C     0.83314   0.37589   0.25029   0.00000  Uiso   1.00
C385   C     0.79734   0.35397   0.23840   0.00000  Uiso   1.00
C386   C     0.79753   0.64466   0.23818   0.00000  Uiso   1.00
C387   C     0.83342   0.62414   0.25007   0.00000  Uiso   1.00
C388   C     0.98586   0.47247   0.21697   0.00000  Uiso   1.00
C389   C     0.70010   0.47209   0.21658   0.00000  Uiso   1.00
C390   C     0.68048   0.52839   0.28282   0.00000  Uiso   1.00
C391   C     0.96570   0.52797   0.28370   0.00000  Uiso   1.00
C392   C     0.83326   0.42009   0.24998   0.00000  Uiso   1.00
C393   C     0.86063   0.49833   0.14735   0.00000  Uiso   1.00
C394   C     0.92471   0.44723   0.00469   0.00000  Uiso   1.00
C395   C     0.87831   0.48967   0.08743   0.00000  Uiso   1.00
C396   C     0.74284   0.51087   0.44841   0.00000  Uiso   1.00
C397   C     0.73201   0.51375   0.00496   0.00000  Uiso   1.00
C398   C     0.76601   0.50359   0.02677   0.00000  Uiso   1.00
H399   H     0.92388   0.42278   0.40266   0.00000  Uiso   1.00
H400   H     0.75514   0.50697   0.07086   0.00000  Uiso   1.00
H401   H     0.86426   0.43913   0.36627   0.00000  Uiso   1.00
N402   N     0.71426   0.50001   0.25002   0.00000  Uiso   1.00
N403   N     0.95239   0.49998   0.25001   0.00000  Uiso   1.00
O404   O     0.79512   0.56108   0.25001   0.00000  Uiso   1.00
O405   O     0.87157   0.56107   0.25001   0.00000  Uiso   1.00
O406   O     0.77613   0.50000   0.32681   0.00000  Uiso   1.00
O407   O     0.85258   0.49999   0.32681   0.00000  Uiso   1.00
O408   O     0.79510   0.43893   0.25000   0.00000  Uiso   1.00
O409   O     0.87154   0.43892   0.25000   0.00000  Uiso   1.00
O410   O     0.81409   0.50001   0.17319   0.00000  Uiso   1.00
O411   O     0.89053   0.50000   0.17319   0.00000  Uiso   1.00
Zn412  Zn    0.78229   0.50001   0.25000   0.00000  Uiso   1.00
Zn413  Zn    0.88438   0.49999   0.25000   0.00000  Uiso   1.00
C414   C     0.95862   0.45970   0.08132   0.00000  Uiso   1.00
H415   H     0.96556   0.48974   0.09975   0.00000  Uiso   1.00
H416   H     0.94744   0.43605   0.11274   0.00000  Uiso   1.00
H417   H     0.99398   0.45082   0.05020   0.00000  Uiso   1.00
H418   H     0.89671   0.37217   0.27194   0.00000  Uiso   1.00
H419   H     0.76955   0.36959   0.22886   0.00000  Uiso   1.00
H420   H     0.76994   0.62789   0.22827   0.00000  Uiso   1.00
H421   H     0.97558   0.45039   0.19064   0.00000  Uiso   1.00
C422   C     0.73325   0.44017   0.17723   0.00000  Uiso   1.00
H423   H     0.76990   0.44040   0.17665   0.00000  Uiso   1.00
H424   H     0.71892   0.40855   0.18776   0.00000  Uiso   1.00
H425   H     0.73516   0.44550   0.13491   0.00000  Uiso   1.00
C426   C     0.69422   0.56205   0.31632   0.00000  Uiso   1.00
H427   H     0.72731   0.55450   0.32198   0.00000  Uiso   1.00
H428   H     0.69805   0.59205   0.29612   0.00000  Uiso   1.00
H429   H     0.66735   0.56600   0.35842   0.00000  Uiso   1.00
C430   C     0.93009   0.55849   0.32385   0.00000  Uiso   1.00
H431   H     0.89451   0.55910   0.32209   0.00000  Uiso   1.00
H432   H     0.92498   0.55078   0.36643   0.00000  Uiso   1.00
H433   H     0.94335   0.59079   0.31688   0.00000  Uiso   1.00
C434   C     0.96427   0.41555   0.47469   0.00000  Uiso   1.00
H435   H     0.94939   0.38833   0.45865   0.00000  Uiso   1.00
H436   H     0.99232   0.43014   0.44028   0.00000  Uiso   1.00
H437   H     0.98078   0.40143   0.00139   0.00000  Uiso   1.00
H438   H     0.81816   0.52226   0.08467   0.00000  Uiso   1.00
C439   C     0.70613   0.52796   0.42816   0.00000  Uiso   1.00
H440   H     0.69765   0.50464   0.40032   0.00000  Uiso   1.00
H441   H     0.67174   0.53598   0.46213   0.00000  Uiso   1.00
H442   H     0.72016   0.55719   0.40817   0.00000  Uiso   1.00
H443   H     0.69772   0.52614   0.03256   0.00000  Uiso   1.00
H444   H     0.89699   0.63043   0.27152   0.00000  Uiso   1.00
C445   C     0.16671   0.91325   0.25010   0.00000  Uiso   1.00
C446   C     0.14492   0.82140   0.49264   0.00000  Uiso   1.00
C447   C     0.15321   0.81150   0.43695   0.00000  Uiso   1.00
C448   C     0.18216   0.81473   0.01275   0.00000  Uiso   1.00
C449   C     0.22290   0.78997   0.48176   0.00000  Uiso   1.00
C450   C     0.22701   0.77501   0.42873   0.00000  Uiso   1.00
C451   C     0.19294   0.78566   0.40678   0.00000  Uiso   1.00
C452   C     0.17956   0.83317   0.06286   0.00000  Uiso   1.00
C453   C     0.25333   0.79876   0.05737   0.00000  Uiso   1.00
C454   C     0.12163   0.82783   0.41307   0.00000  Uiso   1.00
C455   C     0.20251   0.97940   0.26204   0.00000  Uiso   1.00
C456   C     0.13952   0.83184   0.35269   0.00000  Uiso   1.00
C457   C     0.20235   0.68872   0.26223   0.00000  Uiso   1.00
C458   C     0.16647   0.70923   0.25029   0.00000  Uiso   1.00
C459   C     0.13067   0.68730   0.23840   0.00000  Uiso   1.00
C460   C     0.13086   0.97799   0.23818   0.00000  Uiso   1.00
C461   C     0.16675   0.95747   0.25007   0.00000  Uiso   1.00
C462   C     0.31919   0.80580   0.21697   0.00000  Uiso   1.00
C463   C     0.03343   0.80542   0.21658   0.00000  Uiso   1.00
C464   C     0.01381   0.86172   0.28282   0.00000  Uiso   1.00
C465   C     0.29904   0.86130   0.28370   0.00000  Uiso   1.00
C466   C     0.16660   0.75343   0.24998   0.00000  Uiso   1.00
C467   C     0.19397   0.83166   0.14735   0.00000  Uiso   1.00
C468   C     0.25804   0.78056   0.00469   0.00000  Uiso   1.00
C469   C     0.21165   0.82301   0.08743   0.00000  Uiso   1.00
C470   C     0.07617   0.84420   0.44841   0.00000  Uiso   1.00
C471   C     0.06535   0.84708   0.00496   0.00000  Uiso   1.00
C472   C     0.09934   0.83693   0.02677   0.00000  Uiso   1.00
H473   H     0.25721   0.75612   0.40266   0.00000  Uiso   1.00
H474   H     0.08847   0.84030   0.07086   0.00000  Uiso   1.00
H475   H     0.19759   0.77247   0.36627   0.00000  Uiso   1.00
N476   N     0.04760   0.83334   0.25002   0.00000  Uiso   1.00
N477   N     0.28573   0.83331   0.25001   0.00000  Uiso   1.00
O478   O     0.12846   0.89442   0.25001   0.00000  Uiso   1.00
O479   O     0.20490   0.89441   0.25001   0.00000  Uiso   1.00
O480   O     0.10947   0.83333   0.32681   0.00000  Uiso   1.00
O481   O     0.18591   0.83332   0.32681   0.00000  Uiso   1.00
O482   O     0.12843   0.77226   0.25000   0.00000  Uiso   1.00
O483   O     0.20488   0.77225   0.25000   0.00000  Uiso   1.00
O484   O     0.14742   0.83335   0.17319   0.00000  Uiso   1.00
O485   O     0.22387   0.83334   0.17319   0.00000  Uiso   1.00
Zn486  Zn    0.11562   0.83334   0.25000   0.00000  Uiso   1.00
Zn487  Zn    0.21771   0.83333   0.25000   0.00000  Uiso   1.00
C488   C     0.29195   0.79303   0.08132   0.00000  Uiso   1.00
H489   H     0.29889   0.82308   0.09975   0.00000  Uiso   1.00
H490   H     0.28078   0.76938   0.11274   0.00000  Uiso   1.00
H491   H     0.32731   0.78416   0.05020   0.00000  Uiso   1.00
H492   H     0.23004   0.70551   0.27194   0.00000  Uiso   1.00
H493   H     0.10289   0.70293   0.22886   0.00000  Uiso   1.00
H494   H     0.10327   0.96123   0.22827   0.00000  Uiso   1.00
H495   H     0.30892   0.78372   0.19064   0.00000  Uiso   1.00
C496   C     0.06658   0.77350   0.17723   0.00000  Uiso   1.00
H497   H     0.10323   0.77374   0.17665   0.00000  Uiso   1.00
H498   H     0.05226   0.74188   0.18776   0.00000  Uiso   1.00
H499   H     0.06849   0.77884   0.13491   0.00000  Uiso   1.00
C500   C     0.02755   0.89539   0.31632   0.00000  Uiso   1.00
H501   H     0.06065   0.88783   0.32198   0.00000  Uiso   1.00
H502   H     0.03138   0.92539   0.29612   0.00000  Uiso   1.00
H503   H     0.00068   0.89933   0.35842   0.00000  Uiso   1.00
C504   C     0.26342   0.89182   0.32385   0.00000  Uiso   1.00
H505   H     0.22785   0.89243   0.32209   0.00000  Uiso   1.00
H506   H     0.25831   0.88412   0.36643   0.00000  Uiso   1.00
H507   H     0.27668   0.92412   0.31688   0.00000  Uiso   1.00
C508   C     0.29760   0.74888   0.47469   0.00000  Uiso   1.00
H509   H     0.28273   0.72166   0.45865   0.00000  Uiso   1.00
H510   H     0.32566   0.76347   0.44028   0.00000  Uiso   1.00
H511   H     0.31411   0.73476   0.00139   0.00000  Uiso   1.00
H512   H     0.15149   0.85559   0.08467   0.00000  Uiso   1.00
C513   C     0.03946   0.86129   0.42816   0.00000  Uiso   1.00
H514   H     0.03099   0.83797   0.40032   0.00000  Uiso   1.00
H515   H     0.00507   0.86932   0.46213   0.00000  Uiso   1.00
H516   H     0.05350   0.89053   0.40817   0.00000  Uiso   1.00
H517   H     0.03105   0.85947   0.03256   0.00000  Uiso   1.00
H518   H     0.23033   0.96377   0.27152   0.00000  Uiso   1.00
C519   C     0.50005   0.91325   0.25010   0.00000  Uiso   1.00
C520   C     0.47825   0.82140   0.49264   0.00000  Uiso   1.00
C521   C     0.48654   0.81150   0.43695   0.00000  Uiso   1.00
C522   C     0.51549   0.81473   0.01275   0.00000  Uiso   1.00
C523   C     0.55624   0.78997   0.48176   0.00000  Uiso   1.00
C524   C     0.56034   0.77501   0.42873   0.00000  Uiso   1.00
C525   C     0.52627   0.78566   0.40678   0.00000  Uiso   1.00
C526   C     0.51290   0.83317   0.06286   0.00000  Uiso   1.00
C527   C     0.58666   0.79876   0.05737   0.00000  Uiso   1.00
C528   C     0.45497   0.82783   0.41307   0.00000  Uiso   1.00
C529   C     0.53585   0.97940   0.26204   0.00000  Uiso   1.00
C530   C     0.47286   0.83184   0.35269   0.00000  Uiso   1.00
C531   C     0.53569   0.68872   0.26223   0.00000  Uiso   1.00
C532   C     0.49980   0.70923   0.25029   0.00000  Uiso   1.00
C533   C     0.46400   0.68730   0.23840   0.00000  Uiso   1.00
C534   C     0.46419   0.97799   0.23818   0.00000  Uiso   1.00
C535   C     0.50008   0.95747   0.25007   0.00000  Uiso   1.00
C536   C     0.65252   0.80580   0.21697   0.00000  Uiso   1.00
C537   C     0.36676   0.80542   0.21658   0.00000  Uiso   1.00
C538   C     0.34714   0.86172   0.28282   0.00000  Uiso   1.00
C539   C     0.63237   0.86130   0.28370   0.00000  Uiso   1.00
C540   C     0.49993   0.75343   0.24998   0.00000  Uiso   1.00
C541   C     0.52730   0.83166   0.14735   0.00000  Uiso   1.00
C542   C     0.59137   0.78056   0.00469   0.00000  Uiso   1.00
C543   C     0.54498   0.82301   0.08743   0.00000  Uiso   1.00
C544   C     0.40950   0.84420   0.44841   0.00000  Uiso   1.00
C545   C     0.39868   0.84708   0.00496   0.00000  Uiso   1.00
C546   C     0.43267   0.83693   0.02677   0.00000  Uiso   1.00
H547   H     0.59055   0.75612   0.40266   0.00000  Uiso   1.00
H548   H     0.42180   0.84030   0.07086   0.00000  Uiso   1.00
H549   H     0.53092   0.77247   0.36627   0.00000  Uiso   1.00
N550   N     0.38093   0.83334   0.25002   0.00000  Uiso   1.00
N551   N     0.61906   0.83331   0.25001   0.00000  Uiso   1.00
O552   O     0.46179   0.89442   0.25001   0.00000  Uiso   1.00
O553   O     0.53823   0.89441   0.25001   0.00000  Uiso   1.00
O554   O     0.44280   0.83333   0.32681   0.00000  Uiso   1.00
O555   O     0.51924   0.83332   0.32681   0.00000  Uiso   1.00
O556   O     0.46177   0.77226   0.25000   0.00000  Uiso   1.00
O557   O     0.53821   0.77225   0.25000   0.00000  Uiso   1.00
O558   O     0.48076   0.83335   0.17319   0.00000  Uiso   1.00
O559   O     0.55720   0.83334   0.17319   0.00000  Uiso   1.00
Zn560  Zn    0.44896   0.83334   0.25000   0.00000  Uiso   1.00
Zn561  Zn    0.55104   0.83333   0.25000   0.00000  Uiso   1.00
C562   C     0.62528   0.79303   0.08132   0.00000  Uiso   1.00
H563   H     0.63223   0.82308   0.09975   0.00000  Uiso   1.00
H564   H     0.61411   0.76938   0.11274   0.00000  Uiso   1.00
H565   H     0.66064   0.78416   0.05020   0.00000  Uiso   1.00
H566   H     0.56337   0.70551   0.27194   0.00000  Uiso   1.00
H567   H     0.43622   0.70293   0.22886   0.00000  Uiso   1.00
H568   H     0.43661   0.96123   0.22827   0.00000  Uiso   1.00
H569   H     0.64225   0.78372   0.19064   0.00000  Uiso   1.00
C570   C     0.39992   0.77350   0.17723   0.00000  Uiso   1.00
H571   H     0.43656   0.77374   0.17665   0.00000  Uiso   1.00
H572   H     0.38559   0.74188   0.18776   0.00000  Uiso   1.00
H573   H     0.40183   0.77884   0.13491   0.00000  Uiso   1.00
C574   C     0.36089   0.89539   0.31632   0.00000  Uiso   1.00
H575   H     0.39398   0.88783   0.32198   0.00000  Uiso   1.00
H576   H     0.36472   0.92539   0.29612   0.00000  Uiso   1.00
H577   H     0.33402   0.89933   0.35842   0.00000  Uiso   1.00
C578   C     0.59675   0.89182   0.32385   0.00000  Uiso   1.00
H579   H     0.56118   0.89243   0.32209   0.00000  Uiso   1.00
H580   H     0.59165   0.88412   0.36643   0.00000  Uiso   1.00
H581   H     0.61001   0.92412   0.31688   0.00000  Uiso   1.00
C582   C     0.63093   0.74888   0.47469   0.00000  Uiso   1.00
H583   H     0.61606   0.72166   0.45865   0.00000  Uiso   1.00
H584   H     0.65899   0.76347   0.44028   0.00000  Uiso   1.00
H585   H     0.64745   0.73476   0.00139   0.00000  Uiso   1.00
H586   H     0.48482   0.85559   0.08467   0.00000  Uiso   1.00
C587   C     0.37280   0.86129   0.42816   0.00000  Uiso   1.00
H588   H     0.36432   0.83797   0.40032   0.00000  Uiso   1.00
H589   H     0.33840   0.86932   0.46213   0.00000  Uiso   1.00
H590   H     0.38683   0.89053   0.40817   0.00000  Uiso   1.00
H591   H     0.36439   0.85947   0.03256   0.00000  Uiso   1.00
H592   H     0.56366   0.96377   0.27152   0.00000  Uiso   1.00
C593   C     0.83338   0.91325   0.25010   0.00000  Uiso   1.00
C594   C     0.81158   0.82140   0.49264   0.00000  Uiso   1.00
C595   C     0.81987   0.81150   0.43695   0.00000  Uiso   1.00
C596   C     0.84882   0.81473   0.01275   0.00000  Uiso   1.00
C597   C     0.88957   0.78997   0.48176   0.00000  Uiso   1.00
C598   C     0.89368   0.77501   0.42873   0.00000  Uiso   1.00
C599   C     0.85961   0.78566   0.40678   0.00000  Uiso   1.00
C600   C     0.84623   0.83317   0.06286   0.00000  Uiso   1.00
C601   C     0.92000   0.79876   0.05737   0.00000  Uiso   1.00
C602   C     0.78830   0.82783   0.41307   0.00000  Uiso   1.00
C603   C     0.86918   0.97940   0.26204   0.00000  Uiso   1.00
C604   C     0.80619   0.83184   0.35269   0.00000  Uiso   1.00
C605   C     0.86902   0.68872   0.26223   0.00000  Uiso   1.00
C606   C     0.83314   0.70923   0.25029   0.00000  Uiso   1.00
C607   C     0.79734   0.68730   0.23840   0.00000  Uiso   1.00
C608   C     0.79753   0.97799   0.23818   0.00000  Uiso   1.00
C609   C     0.83342   0.95747   0.25007   0.00000  Uiso   1.00
C610   C     0.98586   0.80580   0.21697   0.00000  Uiso   1.00
C611   C     0.70010   0.80542   0.21658   0.00000  Uiso   1.00
C612   C     0.68048   0.86172   0.28282   0.00000  Uiso   1.00
C613   C     0.96570   0.86130   0.28370   0.00000  Uiso   1.00
C614   C     0.83326   0.75343   0.24998   0.00000  Uiso   1.00
C615   C     0.86063   0.83166   0.14735   0.00000  Uiso   1.00
C616   C     0.92471   0.78056   0.00469   0.00000  Uiso   1.00
C617   C     0.87831   0.82301   0.08743   0.00000  Uiso   1.00
C618   C     0.74284   0.84420   0.44841   0.00000  Uiso   1.00
C619   C     0.73201   0.84708   0.00496   0.00000  Uiso   1.00
C620   C     0.76601   0.83693   0.02677   0.00000  Uiso   1.00
H621   H     0.92388   0.75612   0.40266   0.00000  Uiso   1.00
H622   H     0.75514   0.84030   0.07086   0.00000  Uiso   1.00
H623   H     0.86426   0.77247   0.36627   0.00000  Uiso   1.00
N624   N     0.71426   0.83334   0.25002   0.00000  Uiso   1.00
N625   N     0.95239   0.83331   0.25001   0.00000  Uiso   1.00
O626   O     0.79512   0.89442   0.25001   0.00000  Uiso   1.00
O627   O     0.87157   0.89441   0.25001   0.00000  Uiso   1.00
O628   O     0.77613   0.83333   0.32681   0.00000  Uiso   1.00
O629   O     0.85258   0.83332   0.32681   0.00000  Uiso   1.00
O630   O     0.79510   0.77226   0.25000   0.00000  Uiso   1.00
O631   O     0.87154   0.77225   0.25000   0.00000  Uiso   1.00
O632   O     0.81409   0.83335   0.17319   0.00000  Uiso   1.00
O633   O     0.89053   0.83334   0.17319   0.00000  Uiso   1.00
Zn634  Zn    0.78229   0.83334   0.25000   0.00000  Uiso   1.00
Zn635  Zn    0.88438   0.83333   0.25000   0.00000  Uiso   1.00
C636   C     0.95862   0.79303   0.08132   0.00000  Uiso   1.00
H637   H     0.96556   0.82308   0.09975   0.00000  Uiso   1.00
H638   H     0.94744   0.76938   0.11274   0.00000  Uiso   1.00
H639   H     0.99398   0.78416   0.05020   0.00000  Uiso   1.00
H640   H     0.89671   0.70551   0.27194   0.00000  Uiso   1.00
H641   H     0.76955   0.70293   0.22886   0.00000  Uiso   1.00
H642   H     0.76994   0.96123   0.22827   0.00000  Uiso   1.00
H643   H     0.97558   0.78372   0.19064   0.00000  Uiso   1.00
C644   C     0.73325   0.77350   0.17723   0.00000  Uiso   1.00
H645   H     0.76990   0.77374   0.17665   0.00000  Uiso   1.00
H646   H     0.71892   0.74188   0.18776   0.00000  Uiso   1.00
H647   H     0.73516   0.77884   0.13491   0.00000  Uiso   1.00
C648   C     0.69422   0.89539   0.31632   0.00000  Uiso   1.00
H649   H     0.72731   0.88783   0.32198   0.00000  Uiso   1.00
H650   H     0.69805   0.92539   0.29612   0.00000  Uiso   1.00
H651   H     0.66735   0.89933   0.35842   0.00000  Uiso   1.00
C652   C     0.93009   0.89182   0.32385   0.00000  Uiso   1.00
H653   H     0.89451   0.89243   0.32209   0.00000  Uiso   1.00
H654   H     0.92498   0.88412   0.36643   0.00000  Uiso   1.00
H655   H     0.94335   0.92412   0.31688   0.00000  Uiso   1.00
C656   C     0.96427   0.74888   0.47469   0.00000  Uiso   1.00
H657   H     0.94939   0.72166   0.45865   0.00000  Uiso   1.00
H658   H     0.99232   0.76347   0.44028   0.00000  Uiso   1.00
H659   H     0.98078   0.73476   0.00139   0.00000  Uiso   1.00
H660   H     0.81816   0.85559   0.08467   0.00000  Uiso   1.00
C661   C     0.70613   0.86129   0.42816   0.00000  Uiso   1.00
H662   H     0.69765   0.83797   0.40032   0.00000  Uiso   1.00
H663   H     0.67174   0.86932   0.46213   0.00000  Uiso   1.00
H664   H     0.72016   0.89053   0.40817   0.00000  Uiso   1.00
H665   H     0.69772   0.85947   0.03256   0.00000  Uiso   1.00
H666   H     0.89699   0.96377   0.27152   0.00000  Uiso   1.00
C667   C     0.16671   0.24658   0.75010   0.00000  Uiso   1.00
C668   C     0.14492   0.15474   0.99264   0.00000  Uiso   1.00
C669   C     0.15321   0.14484   0.93695   0.00000  Uiso   1.00
C670   C     0.18216   0.14807   0.51275   0.00000  Uiso   1.00
C671   C     0.22290   0.12330   0.98176   0.00000  Uiso   1.00
C672   C     0.22701   0.10834   0.92873   0.00000  Uiso   1.00
C673   C     0.19294   0.11899   0.90678   0.00000  Uiso   1.00
C674   C     0.17956   0.16650   0.56286   0.00000  Uiso   1.00
C675   C     0.25333   0.13209   0.55737   0.00000  Uiso   1.00
C676   C     0.12163   0.16116   0.91307   0.00000  Uiso   1.00
C677   C     0.20251   0.31273   0.76204   0.00000  Uiso   1.00
C678   C     0.13952   0.16517   0.85269   0.00000  Uiso   1.00
C679   C     0.20235   0.02205   0.76223   0.00000  Uiso   1.00
C680   C     0.16647   0.04256   0.75029   0.00000  Uiso   1.00
C681   C     0.13067   0.02064   0.73840   0.00000  Uiso   1.00
C682   C     0.13086   0.31133   0.73818   0.00000  Uiso   1.00
C683   C     0.16675   0.29080   0.75007   0.00000  Uiso   1.00
C684   C     0.31919   0.13913   0.71697   0.00000  Uiso   1.00
C685   C     0.03343   0.13876   0.71658   0.00000  Uiso   1.00
C686   C     0.01381   0.19506   0.78282   0.00000  Uiso   1.00
C687   C     0.29904   0.19463   0.78370   0.00000  Uiso   1.00
C688   C     0.16660   0.08676   0.74998   0.00000  Uiso   1.00
C689   C     0.19397   0.16500   0.64735   0.00000  Uiso   1.00
C690   C     0.25804   0.11389   0.50469   0.00000  Uiso   1.00
C691   C     0.21165   0.15634   0.58743   0.00000  Uiso   1.00
C692   C     0.07617   0.17754   0.94841   0.00000  Uiso   1.00
C693   C     0.06535   0.18042   0.50496   0.00000  Uiso   1.00
C694   C     0.09934   0.17026   0.52677   0.00000  Uiso   1.00
H695   H     0.25721   0.08945   0.90266   0.00000  Uiso   1.00
H696   H     0.08847   0.17363   0.57086   0.00000  Uiso   1.00
H697   H     0.19759   0.10580   0.86627   0.00000  Uiso   1.00
N698   N     0.04760   0.16668   0.75002   0.00000  Uiso   1.00
N699   N     0.28573   0.16665   0.75001   0.00000  Uiso   1.00
O700   O     0.12846   0.22775   0.75001   0.00000  Uiso   1.00
O701   O     0.20490   0.22774   0.75001   0.00000  Uiso   1.00
O702   O     0.10947   0.16666   0.82681   0.00000  Uiso   1.00
O703   O     0.18591   0.16665   0.82681   0.00000  Uiso   1.00
O704   O     0.12843   0.10559   0.75000   0.00000  Uiso   1.00
O705   O     0.20488   0.10558   0.75000   0.00000  Uiso   1.00
O706   O     0.14742   0.16668   0.67319   0.00000  Uiso   1.00
O707   O     0.22387   0.16667   0.67319   0.00000  Uiso   1.00
Zn708  Zn    0.11562   0.16667   0.75000   0.00000  Uiso   1.00
Zn709  Zn    0.21771   0.16666   0.75000   0.00000  Uiso   1.00
C710   C     0.29195   0.12637   0.58132   0.00000  Uiso   1.00
H711   H     0.29889   0.15641   0.59975   0.00000  Uiso   1.00
H712   H     0.28078   0.10272   0.61274   0.00000  Uiso   1.00
H713   H     0.32731   0.11749   0.55020   0.00000  Uiso   1.00
H714   H     0.23004   0.03884   0.77194   0.00000  Uiso   1.00
H715   H     0.10289   0.03626   0.72886   0.00000  Uiso   1.00
H716   H     0.10327   0.29456   0.72827   0.00000  Uiso   1.00
H717   H     0.30892   0.11706   0.69064   0.00000  Uiso   1.00
C718   C     0.06658   0.10683   0.67723   0.00000  Uiso   1.00
H719   H     0.10323   0.10707   0.67665   0.00000  Uiso   1.00
H720   H     0.05226   0.07522   0.68776   0.00000  Uiso   1.00
H721   H     0.06849   0.11217   0.63491   0.00000  Uiso   1.00
C722   C     0.02755   0.22872   0.81632   0.00000  Uiso   1.00
H723   H     0.06065   0.22116   0.82198   0.00000  Uiso   1.00
H724   H     0.03138   0.25872   0.79612   0.00000  Uiso   1.00
H725   H     0.00068   0.23266   0.85842   0.00000  Uiso   1.00
C726   C     0.26342   0.22516   0.82385   0.00000  Uiso   1.00
H727   H     0.22785   0.22577   0.82209   0.00000  Uiso   1.00
H728   H     0.25831   0.21745   0.86643   0.00000  Uiso   1.00
H729   H     0.27668   0.25745   0.81688   0.00000  Uiso   1.00
C730   C     0.29760   0.08221   0.97469   0.00000  Uiso   1.00
H731   H     0.28273   0.05499   0.95865   0.00000  Uiso   1.00
H732   H     0.32566   0.09681   0.94028   0.00000  Uiso   1.00
H733   H     0.31411   0.06810   0.50139   0.00000  Uiso   1.00
H734   H     0.15149   0.18893   0.58467   0.00000  Uiso   1.00
C735   C     0.03946   0.19462   0.92816   0.00000  Uiso   1.00
H736   H     0.03099   0.17130   0.90032   0.00000  Uiso   1.00
H737   H     0.00507   0.20265   0.96213   0.00000  Uiso   1.00
H738   H     0.05350   0.22386   0.90817   0.00000  Uiso   1.00
H739   H     0.03105   0.19281   0.53256   0.00000  Uiso   1.00
H740   H     0.23033   0.29710   0.77152   0.00000  Uiso   1.00
C741   C     0.50005   0.24658   0.75010   0.00000  Uiso   1.00
C742   C     0.47825   0.15474   0.99264   0.00000  Uiso   1.00
C743   C     0.48654   0.14484   0.93695   0.00000  Uiso   1.00
C744   C     0.51549   0.14807   0.51275   0.00000  Uiso   1.00
C745   C     0.55624   0.12330   0.98176   0.00000  Uiso   1.00
C746   C     0.56034   0.10834   0.92873   0.00000  Uiso   1.00
C747   C     0.52627   0.11899   0.90678   0.00000  Uiso   1.00
C748   C     0.51290   0.16650   0.56286   0.00000  Uiso   1.00
C749   C     0.58666   0.13209   0.55737   0.00000  Uiso   1.00
C750   C     0.45497   0.16116   0.91307   0.00000  Uiso   1.00
C751   C     0.53585   0.31273   0.76204   0.00000  Uiso   1.00
C752   C     0.47286   0.16517   0.85269   0.00000  Uiso   1.00
C753   C     0.53569   0.02205   0.76223   0.00000  Uiso   1.00
C754   C     0.49980   0.04256   0.75029   0.00000  Uiso   1.00
C755   C     0.46400   0.02064   0.73840   0.00000  Uiso   1.00
C756   C     0.46419   0.31133   0.73818   0.00000  Uiso   1.00
C757   C     0.50008   0.29080   0.75007   0.00000  Uiso   1.00
C758   C     0.65252   0.13913   0.71697   0.00000  Uiso   1.00
C759   C     0.36676   0.13876   0.71658   0.00000  Uiso   1.00
C760   C     0.34714   0.19506   0.78282   0.00000  Uiso   1.00
C761   C     0.63237   0.19463   0.78370   0.00000  Uiso   1.00
C762   C     0.49993   0.08676   0.74998   0.00000  Uiso   1.00
C763   C     0.52730   0.16500   0.64735   0.00000  Uiso   1.00
C764   C     0.59137   0.11389   0.50469   0.00000  Uiso   1.00
C765   C     0.54498   0.15634   0.58743   0.00000  Uiso   1.00
C766   C     0.40950   0.17754   0.94841   0.00000  Uiso   1.00
C767   C     0.39868   0.18042   0.50496   0.00000  Uiso   1.00
C768   C     0.43267   0.17026   0.52677   0.00000  Uiso   1.00
H769   H     0.59055   0.08945   0.90266   0.00000  Uiso   1.00
H770   H     0.42180   0.17363   0.57086   0.00000  Uiso   1.00
H771   H     0.53092   0.10580   0.86627   0.00000  Uiso   1.00
N772   N     0.38093   0.16668   0.75002   0.00000  Uiso   1.00
N773   N     0.61906   0.16665   0.75001   0.00000  Uiso   1.00
O774   O     0.46179   0.22775   0.75001   0.00000  Uiso   1.00
O775   O     0.53823   0.22774   0.75001   0.00000  Uiso   1.00
O776   O     0.44280   0.16666   0.82681   0.00000  Uiso   1.00
O777   O     0.51924   0.16665   0.82681   0.00000  Uiso   1.00
O778   O     0.46177   0.10559   0.75000   0.00000  Uiso   1.00
O779   O     0.53821   0.10558   0.75000   0.00000  Uiso   1.00
O780   O     0.48076   0.16668   0.67319   0.00000  Uiso   1.00
O781   O     0.55720   0.16667   0.67319   0.00000  Uiso   1.00
Zn782  Zn    0.44896   0.16667   0.75000   0.00000  Uiso   1.00
Zn783  Zn    0.55104   0.16666   0.75000   0.00000  Uiso   1.00
C784   C     0.62528   0.12637   0.58132   0.00000  Uiso   1.00
H785   H     0.63223   0.15641   0.59975   0.00000  Uiso   1.00
H786   H     0.61411   0.10272   0.61274   0.00000  Uiso   1.00
H787   H     0.66064   0.11749   0.55020   0.00000  Uiso   1.00
H788   H     0.56337   0.03884   0.77194   0.00000  Uiso   1.00
H789   H     0.43622   0.03626   0.72886   0.00000  Uiso   1.00
H790   H     0.43661   0.29456   0.72827   0.00000  Uiso   1.00
H791   H     0.64225   0.11706   0.69064   0.00000  Uiso   1.00
C792   C     0.39992   0.10683   0.67723   0.00000  Uiso   1.00
H793   H     0.43656   0.10707   0.67665   0.00000  Uiso   1.00
H794   H     0.38559   0.07522   0.68776   0.00000  Uiso   1.00
H795   H     0.40183   0.11217   0.63491   0.00000  Uiso   1.00
C796   C     0.36089   0.22872   0.81632   0.00000  Uiso   1.00
H797   H     0.39398   0.22116   0.82198   0.00000  Uiso   1.00
H798   H     0.36472   0.25872   0.79612   0.00000  Uiso   1.00
H799   H     0.33402   0.23266   0.85842   0.00000  Uiso   1.00
C800   C     0.59675   0.22516   0.82385   0.00000  Uiso   1.00
H801   H     0.56118   0.22577   0.82209   0.00000  Uiso   1.00
H802   H     0.59165   0.21745   0.86643   0.00000  Uiso   1.00
H803   H     0.61001   0.25745   0.81688   0.00000  Uiso   1.00
C804   C     0.63093   0.08221   0.97469   0.00000  Uiso   1.00
H805   H     0.61606   0.05499   0.95865   0.00000  Uiso   1.00
H806   H     0.65899   0.09681   0.94028   0.00000  Uiso   1.00
H807   H     0.64745   0.06810   0.50139   0.00000  Uiso   1.00
H808   H     0.48482   0.18893   0.58467   0.00000  Uiso   1.00
C809   C     0.37280   0.19462   0.92816   0.00000  Uiso   1.00
H810   H     0.36432   0.17130   0.90032   0.00000  Uiso   1.00
H811   H     0.33840   0.20265   0.96213   0.00000  Uiso   1.00
H812   H     0.38683   0.22386   0.90817   0.00000  Uiso   1.00
H813   H     0.36439   0.19281   0.53256   0.00000  Uiso   1.00
H814   H     0.56366   0.29710   0.77152   0.00000  Uiso   1.00
C815   C     0.83338   0.24658   0.75010   0.00000  Uiso   1.00
C816   C     0.81158   0.15474   0.99264   0.00000  Uiso   1.00
C817   C     0.81987   0.14484   0.93695   0.00000  Uiso   1.00
C818   C     0.84882   0.14807   0.51275   0.00000  Uiso   1.00
C819   C     0.88957   0.12330   0.98176   0.00000  Uiso   1.00
C820   C     0.89368   0.10834   0.92873   0.00000  Uiso   1.00
C821   C     0.85961   0.11899   0.90678   0.00000  Uiso   1.00
C822   C     0.84623   0.16650   0.56286   0.00000  Uiso   1.00
C823   C     0.92000   0.13209   0.55737   0.00000  Uiso   1.00
C824   C     0.78830   0.16116   0.91307   0.00000  Uiso   1.00
C825   C     0.86918   0.31273   0.76204   0.00000  Uiso   1.00
C826   C     0.80619   0.16517   0.85269   0.00000  Uiso   1.00
C827   C     0.86902   0.02205   0.76223   0.00000  Uiso   1.00
C828   C     0.83314   0.04256   0.75029   0.00000  Uiso   1.00
C829   C     0.79734   0.02064   0.73840   0.00000  Uiso   1.00
C830   C     0.79753   0.31133   0.73818   0.00000  Uiso   1.00
C831   C     0.83342   0.29080   0.75007   0.00000  Uiso   1.00
C832   C     0.98586   0.13913   0.71697   0.00000  Uiso   1.00
C833   C     0.70010   0.13876   0.71658   0.00000  Uiso   1.00
C834   C     0.68048   0.19506   0.78282   0.00000  Uiso   1.00
C835   C     0.96570   0.19463   0.78370   0.00000  Uiso   1.00
C836   C     0.83326   0.08676   0.74998   0.00000  Uiso   1.00
C837   C     0.86063   0.16500   0.64735   0.00000  Uiso   1.00
C838   C     0.92471   0.11389   0.50469   0.00000  Uiso   1.00
C839   C     0.87831   0.15634   0.58743   0.00000  Uiso   1.00
C840   C     0.74284   0.17754   0.94841   0.00000  Uiso   1.00
C841   C     0.73201   0.18042   0.50496   0.00000  Uiso   1.00
C842   C     0.76601   0.17026   0.52677   0.00000  Uiso   1.00
H843   H     0.92388   0.08945   0.90266   0.00000  Uiso   1.00
H844   H     0.75514   0.17363   0.57086   0.00000  Uiso   1.00
H845   H     0.86426   0.10580   0.86627   0.00000  Uiso   1.00
N846   N     0.71426   0.16668   0.75002   0.00000  Uiso   1.00
N847   N     0.95239   0.16665   0.75001   0.00000  Uiso   1.00
O848   O     0.79512   0.22775   0.75001   0.00000  Uiso   1.00
O849   O     0.87157   0.22774   0.75001   0.00000  Uiso   1.00
O850   O     0.77613   0.16666   0.82681   0.00000  Uiso   1.00
O851   O     0.85258   0.16665   0.82681   0.00000  Uiso   1.00
O852   O     0.79510   0.10559   0.75000   0.00000  Uiso   1.00
O853   O     0.87154   0.10558   0.75000   0.00000  Uiso   1.00
O854   O     0.81409   0.16668   0.67319   0.00000  Uiso   1.00
O855   O     0.89053   0.16667   0.67319   0.00000  Uiso   1.00
Zn856  Zn    0.78229   0.16667   0.75000   0.00000  Uiso   1.00
Zn857  Zn    0.88438   0.16666   0.75000   0.00000  Uiso   1.00
C858   C     0.95862   0.12637   0.58132   0.00000  Uiso   1.00
H859   H     0.96556   0.15641   0.59975   0.00000  Uiso   1.00
H860   H     0.94744   0.10272   0.61274   0.00000  Uiso   1.00
H861   H     0.99398   0.11749   0.55020   0.00000  Uiso   1.00
H862   H     0.89671   0.03884   0.77194   0.00000  Uiso   1.00
H863   H     0.76955   0.03626   0.72886   0.00000  Uiso   1.00
H864   H     0.76994   0.29456   0.72827   0.00000  Uiso   1.00
H865   H     0.97558   0.11706   0.69064   0.00000  Uiso   1.00
C866   C     0.73325   0.10683   0.67723   0.00000  Uiso   1.00
H867   H     0.76990   0.10707   0.67665   0.00000  Uiso   1.00
H868   H     0.71892   0.07522   0.68776   0.00000  Uiso   1.00
H869   H     0.73516   0.11217   0.63491   0.00000  Uiso   1.00
C870   C     0.69422   0.22872   0.81632   0.00000  Uiso   1.00
H871   H     0.72731   0.22116   0.82198   0.00000  Uiso   1.00
H872   H     0.69805   0.25872   0.79612   0.00000  Uiso   1.00
H873   H     0.66735   0.23266   0.85842   0.00000  Uiso   1.00
C874   C     0.93009   0.22516   0.82385   0.00000  Uiso   1.00
H875   H     0.89451   0.22577   0.82209   0.00000  Uiso   1.00
H876   H     0.92498   0.21745   0.86643   0.00000  Uiso   1.00
H877   H     0.94335   0.25745   0.81688   0.00000  Uiso   1.00
C878   C     0.96427   0.08221   0.97469   0.00000  Uiso   1.00
H879   H     0.94939   0.05499   0.95865   0.00000  Uiso   1.00
H880   H     0.99232   0.09681   0.94028   0.00000  Uiso   1.00
H881   H     0.98078   0.06810   0.50139   0.00000  Uiso   1.00
H882   H     0.81816   0.18893   0.58467   0.00000  Uiso   1.00
C883   C     0.70613   0.19462   0.92816   0.00000  Uiso   1.00
H884   H     0.69765   0.17130   0.90032   0.00000  Uiso   1.00
H885   H     0.67174   0.20265   0.96213   0.00000  Uiso   1.00
H886   H     0.72016   0.22386   0.90817   0.00000  Uiso   1.00
H887   H     0.69772   0.19281   0.53256   0.00000  Uiso   1.00
H888   H     0.89699   0.29710   0.77152   0.00000  Uiso   1.00
C889   C     0.16671   0.57991   0.75010   0.00000  Uiso   1.00
C890   C     0.14492   0.48807   0.99264   0.00000  Uiso   1.00
C891   C     0.15321   0.47817   0.93695   0.00000  Uiso   1.00
C892   C     0.18216   0.48140   0.51275   0.00000  Uiso   1.00
C893   C     0.22290   0.45663   0.98176   0.00000  Uiso   1.00
C894   C     0.22701   0.44168   0.92873   0.00000  Uiso   1.00
C895   C     0.19294   0.45232   0.90678   0.00000  Uiso   1.00
C896   C     0.17956   0.49984   0.56286   0.00000  Uiso   1.00
C897   C     0.25333   0.46542   0.55737   0.00000  Uiso   1.00
C898   C     0.12163   0.49450   0.91307   0.00000  Uiso   1.00
C899   C     0.20251   0.64606   0.76204   0.00000  Uiso   1.00
C900   C     0.13952   0.49851   0.85269   0.00000  Uiso   1.00
C901   C     0.20235   0.35539   0.76223   0.00000  Uiso   1.00
C902   C     0.16647   0.37589   0.75029   0.00000  Uiso   1.00
C903   C     0.13067   0.35397   0.73840   0.00000  Uiso   1.00
C904   C     0.13086   0.64466   0.73818   0.00000  Uiso   1.00
C905   C     0.16675   0.62414   0.75007   0.00000  Uiso   1.00
C906   C     0.31919   0.47247   0.71697   0.00000  Uiso   1.00
C907   C     0.03343   0.47209   0.71658   0.00000  Uiso   1.00
C908   C     0.01381   0.52839   0.78282   0.00000  Uiso   1.00
C909   C     0.29904   0.52797   0.78370   0.00000  Uiso   1.00
C910   C     0.16660   0.42009   0.74998   0.00000  Uiso   1.00
C911   C     0.19397   0.49833   0.64735   0.00000  Uiso   1.00
C912   C     0.25804   0.44723   0.50469   0.00000  Uiso   1.00
C913   C     0.21165   0.48967   0.58743   0.00000  Uiso   1.00
C914   C     0.07617   0.51087   0.94841   0.00000  Uiso   1.00
C915   C     0.06535   0.51375   0.50496   0.00000  Uiso   1.00
C916   C     0.09934   0.50359   0.52677   0.00000  Uiso   1.00
H917   H     0.25721   0.42278   0.90266   0.00000  Uiso   1.00
H918   H     0.08847   0.50697   0.57086   0.00000  Uiso   1.00
H919   H     0.19759   0.43913   0.86627   0.00000  Uiso   1.00
N920   N     0.04760   0.50001   0.75002   0.00000  Uiso   1.00
N921   N     0.28573   0.49998   0.75001   0.00000  Uiso   1.00
O922   O     0.12846   0.56108   0.75001   0.00000  Uiso   1.00
O923   O     0.20490   0.56107   0.75001   0.00000  Uiso   1.00
O924   O     0.10947   0.50000   0.82681   0.00000  Uiso   1.00
O925   O     0.18591   0.49999   0.82681   0.00000  Uiso   1.00
O926   O     0.12843   0.43893   0.75000   0.00000  Uiso   1.00
O927   O     0.20488   0.43892   0.75000   0.00000  Uiso   1.00
O928   O     0.14742   0.50001   0.67319   0.00000  Uiso   1.00
O929   O     0.22387   0.50000   0.67319   0.00000  Uiso   1.00
Zn930  Zn    0.11562   0.50001   0.75000   0.00000  Uiso   1.00
Zn931  Zn    0.21771   0.49999   0.75000   0.00000  Uiso   1.00
C932   C     0.29195   0.45970   0.58132   0.00000  Uiso   1.00
H933   H     0.29889   0.48974   0.59975   0.00000  Uiso   1.00
H934   H     0.28078   0.43605   0.61274   0.00000  Uiso   1.00
H935   H     0.32731   0.45082   0.55020   0.00000  Uiso   1.00
H936   H     0.23004   0.37217   0.77194   0.00000  Uiso   1.00
H937   H     0.10289   0.36959   0.72886   0.00000  Uiso   1.00
H938   H     0.10327   0.62789   0.72827   0.00000  Uiso   1.00
H939   H     0.30892   0.45039   0.69064   0.00000  Uiso   1.00
C940   C     0.06658   0.44017   0.67723   0.00000  Uiso   1.00
H941   H     0.10323   0.44040   0.67665   0.00000  Uiso   1.00
H942   H     0.05226   0.40855   0.68776   0.00000  Uiso   1.00
H943   H     0.06849   0.44550   0.63491   0.00000  Uiso   1.00
C944   C     0.02755   0.56205   0.81632   0.00000  Uiso   1.00
H945   H     0.06065   0.55450   0.82198   0.00000  Uiso   1.00
H946   H     0.03138   0.59205   0.79612   0.00000  Uiso   1.00
H947   H     0.00068   0.56600   0.85842   0.00000  Uiso   1.00
C948   C     0.26342   0.55849   0.82385   0.00000  Uiso   1.00
H949   H     0.22785   0.55910   0.82209   0.00000  Uiso   1.00
H950   H     0.25831   0.55078   0.86643   0.00000  Uiso   1.00
H951   H     0.27668   0.59079   0.81688   0.00000  Uiso   1.00
C952   C     0.29760   0.41555   0.97469   0.00000  Uiso   1.00
H953   H     0.28273   0.38833   0.95865   0.00000  Uiso   1.00
H954   H     0.32566   0.43014   0.94028   0.00000  Uiso   1.00
H955   H     0.31411   0.40143   0.50139   0.00000  Uiso   1.00
H956   H     0.15149   0.52226   0.58467   0.00000  Uiso   1.00
C957   C     0.03946   0.52796   0.92816   0.00000  Uiso   1.00
H958   H     0.03099   0.50464   0.90032   0.00000  Uiso   1.00
H959   H     0.00507   0.53598   0.96213   0.00000  Uiso   1.00
H960   H     0.05350   0.55719   0.90817   0.00000  Uiso   1.00
H961   H     0.03105   0.52614   0.53256   0.00000  Uiso   1.00
H962   H     0.23033   0.63043   0.77152   0.00000  Uiso   1.00
C963   C     0.50005   0.57991   0.75010   0.00000  Uiso   1.00
C964   C     0.47825   0.48807   0.99264   0.00000  Uiso   1.00
C965   C     0.48654   0.47817   0.93695   0.00000  Uiso   1.00
C966   C     0.51549   0.48140   0.51275   0.00000  Uiso   1.00
C967   C     0.55624   0.45663   0.98176   0.00000  Uiso   1.00
C968   C     0.56034   0.44168   0.92873   0.00000  Uiso   1.00
C969   C     0.52627   0.45232   0.90678   0.00000  Uiso   1.00
C970   C     0.51290   0.49984   0.56286   0.00000  Uiso   1.00
C971   C     0.58666   0.46542   0.55737   0.00000  Uiso   1.00
C972   C     0.45497   0.49450   0.91307   0.00000  Uiso   1.00
C973   C     0.53585   0.64606   0.76204   0.00000  Uiso   1.00
C974   C     0.47286   0.49851   0.85269   0.00000  Uiso   1.00
C975   C     0.53569   0.35539   0.76223   0.00000  Uiso   1.00
C976   C     0.49980   0.37589   0.75029   0.00000  Uiso   1.00
C977   C     0.46400   0.35397   0.73840   0.00000  Uiso   1.00
C978   C     0.46419   0.64466   0.73818   0.00000  Uiso   1.00
C979   C     0.50008   0.62414   0.75007   0.00000  Uiso   1.00
C980   C     0.65252   0.47247   0.71697   0.00000  Uiso   1.00
C981   C     0.36676   0.47209   0.71658   0.00000  Uiso   1.00
C982   C     0.34714   0.52839   0.78282   0.00000  Uiso   1.00
C983   C     0.63237   0.52797   0.78370   0.00000  Uiso   1.00
C984   C     0.49993   0.42009   0.74998   0.00000  Uiso   1.00
C985   C     0.52730   0.49833   0.64735   0.00000  Uiso   1.00
C986   C     0.59137   0.44723   0.50469   0.00000  Uiso   1.00
C987   C     0.54498   0.48967   0.58743   0.00000  Uiso   1.00
C988   C     0.40950   0.51087   0.94841   0.00000  Uiso   1.00
C989   C     0.39868   0.51375   0.50496   0.00000  Uiso   1.00
C990   C     0.43267   0.50359   0.52677   0.00000  Uiso   1.00
H991   H     0.59055   0.42278   0.90266   0.00000  Uiso   1.00
H992   H     0.42180   0.50697   0.57086   0.00000  Uiso   1.00
H993   H     0.53092   0.43913   0.86627   0.00000  Uiso   1.00
N994   N     0.38093   0.50001   0.75002   0.00000  Uiso   1.00
N995   N     0.61906   0.49998   0.75001   0.00000  Uiso   1.00
O996   O     0.46179   0.56108   0.75001   0.00000  Uiso   1.00
O997   O     0.53823   0.56107   0.75001   0.00000  Uiso   1.00
O998   O     0.44280   0.50000   0.82681   0.00000  Uiso   1.00
O999   O     0.51924   0.49999   0.82681   0.00000  Uiso   1.00
O1000  O     0.46177   0.43893   0.75000   0.00000  Uiso   1.00
O1001  O     0.53821   0.43892   0.75000   0.00000  Uiso   1.00
O1002  O     0.48076   0.50001   0.67319   0.00000  Uiso   1.00
O1003  O     0.55720   0.50000   0.67319   0.00000  Uiso   1.00
Zn1004 Zn    0.44896   0.50001   0.75000   0.00000  Uiso   1.00
Zn1005 Zn    0.55104   0.49999   0.75000   0.00000  Uiso   1.00
C1006  C     0.62528   0.45970   0.58132   0.00000  Uiso   1.00
H1007  H     0.63223   0.48974   0.59975   0.00000  Uiso   1.00
H1008  H     0.61411   0.43605   0.61274   0.00000  Uiso   1.00
H1009  H     0.66064   0.45082   0.55020   0.00000  Uiso   1.00
H1010  H     0.56337   0.37217   0.77194   0.00000  Uiso   1.00
H1011  H     0.43622   0.36959   0.72886   0.00000  Uiso   1.00
H1012  H     0.43661   0.62789   0.72827   0.00000  Uiso   1.00
H1013  H     0.64225   0.45039   0.69064   0.00000  Uiso   1.00
C1014  C     0.39992   0.44017   0.67723   0.00000  Uiso   1.00
H1015  H     0.43656   0.44040   0.67665   0.00000  Uiso   1.00
H1016  H     0.38559   0.40855   0.68776   0.00000  Uiso   1.00
H1017  H     0.40183   0.44550   0.63491   0.00000  Uiso   1.00
C1018  C     0.36089   0.56205   0.81632   0.00000  Uiso   1.00
H1019  H     0.39398   0.55450   0.82198   0.00000  Uiso   1.00
H1020  H     0.36472   0.59205   0.79612   0.00000  Uiso   1.00
H1021  H     0.33402   0.56600   0.85842   0.00000  Uiso   1.00
C1022  C     0.59675   0.55849   0.82385   0.00000  Uiso   1.00
H1023  H     0.56118   0.55910   0.82209   0.00000  Uiso   1.00
H1024  H     0.59165   0.55078   0.86643   0.00000  Uiso   1.00
H1025  H     0.61001   0.59079   0.81688   0.00000  Uiso   1.00
C1026  C     0.63093   0.41555   0.97469   0.00000  Uiso   1.00
H1027  H     0.61606   0.38833   0.95865   0.00000  Uiso   1.00
H1028  H     0.65899   0.43014   0.94028   0.00000  Uiso   1.00
H1029  H     0.64745   0.40143   0.50139   0.00000  Uiso   1.00
H1030  H     0.48482   0.52226   0.58467   0.00000  Uiso   1.00
C1031  C     0.37280   0.52796   0.92816   0.00000  Uiso   1.00
H1032  H     0.36432   0.50464   0.90032   0.00000  Uiso   1.00
H1033  H     0.33840   0.53598   0.96213   0.00000  Uiso   1.00
H1034  H     0.38683   0.55719   0.90817   0.00000  Uiso   1.00
H1035  H     0.36439   0.52614   0.53256   0.00000  Uiso   1.00
H1036  H     0.56366   0.63043   0.77152   0.00000  Uiso   1.00
C1037  C     0.83338   0.57991   0.75010   0.00000  Uiso   1.00
C1038  C     0.81158   0.48807   0.99264   0.00000  Uiso   1.00
C1039  C     0.81987   0.47817   0.93695   0.00000  Uiso   1.00
C1040  C     0.84882   0.48140   0.51275   0.00000  Uiso   1.00
C1041  C     0.88957   0.45663   0.98176   0.00000  Uiso   1.00
C1042  C     0.89368   0.44168   0.92873   0.00000  Uiso   1.00
C1043  C     0.85961   0.45232   0.90678   0.00000  Uiso   1.00
C1044  C     0.84623   0.49984   0.56286   0.00000  Uiso   1.00
C1045  C     0.92000   0.46542   0.55737   0.00000  Uiso   1.00
C1046  C     0.78830   0.49450   0.91307   0.00000  Uiso   1.00
C1047  C     0.86918   0.64606   0.76204   0.00000  Uiso   1.00
C1048  C     0.80619   0.49851   0.85269   0.00000  Uiso   1.00
C1049  C     0.86902   0.35539   0.76223   0.00000  Uiso   1.00
C1050  C     0.83314   0.37589   0.75029   0.00000  Uiso   1.00
C1051  C     0.79734   0.35397   0.73840   0.00000  Uiso   1.00
C1052  C     0.79753   0.64466   0.73818   0.00000  Uiso   1.00
C1053  C     0.83342   0.62414   0.75007   0.00000  Uiso   1.00
C1054  C     0.98586   0.47247   0.71697   0.00000  Uiso   1.00
C1055  C     0.70010   0.47209   0.71658   0.00000  Uiso   1.00
C1056  C     0.68048   0.52839   0.78282   0.00000  Uiso   1.00
C1057  C     0.96570   0.52797   0.78370   0.00000  Uiso   1.00
C1058  C     0.83326   0.42009   0.74998   0.00000  Uiso   1.00
C1059  C     0.86063   0.49833   0.64735   0.00000  Uiso   1.00
C1060  C     0.92471   0.44723   0.50469   0.00000  Uiso   1.00
C1061  C     0.87831   0.48967   0.58743   0.00000  Uiso   1.00
C1062  C     0.74284   0.51087   0.94841   0.00000  Uiso   1.00
C1063  C     0.73201   0.51375   0.50496   0.00000  Uiso   1.00
C1064  C     0.76601   0.50359   0.52677   0.00000  Uiso   1.00
H1065  H     0.92388   0.42278   0.90266   0.00000  Uiso   1.00
H1066  H     0.75514   0.50697   0.57086   0.00000  Uiso   1.00
H1067  H     0.86426   0.43913   0.86627   0.00000  Uiso   1.00
N1068  N     0.71426   0.50001   0.75002   0.00000  Uiso   1.00
N1069  N     0.95239   0.49998   0.75001   0.00000  Uiso   1.00
O1070  O     0.79512   0.56108   0.75001   0.00000  Uiso   1.00
O1071  O     0.87157   0.56107   0.75001   0.00000  Uiso   1.00
O1072  O     0.77613   0.50000   0.82681   0.00000  Uiso   1.00
O1073  O     0.85258   0.49999   0.82681   0.00000  Uiso   1.00
O1074  O     0.79510   0.43893   0.75000   0.00000  Uiso   1.00
O1075  O     0.87154   0.43892   0.75000   0.00000  Uiso   1.00
O1076  O     0.81409   0.50001   0.67319   0.00000  Uiso   1.00
O1077  O     0.89053   0.50000   0.67319   0.00000  Uiso   1.00
Zn1078 Zn    0.78229   0.50001   0.75000   0.00000  Uiso   1.00
Zn1079 Zn    0.88438   0.49999   0.75000   0.00000  Uiso   1.00
C1080  C     0.95862   0.45970   0.58132   0.00000  Uiso   1.00
H1081  H     0.96556   0.48974   0.59975   0.00000  Uiso   1.00
H1082  H     0.94744   0.43605   0.61274   0.00000  Uiso   1.00
H1083  H     0.99398   0.45082   0.55020   0.00000  Uiso   1.00
H1084  H     0.89671   0.37217   0.77194   0.00000  Uiso   1.00
H1085  H     0.76955   0.36959   0.72886   0.00000  Uiso   1.00
H1086  H     0.76994   0.62789   0.72827   0.00000  Uiso   1.00
H1087  H     0.97558   0.45039   0.69064   0.00000  Uiso   1.00
C1088  C     0.73325   0.44017   0.67723   0.00000  Uiso   1.00
H1089  H     0.76990   0.44040   0.67665   0.00000  Uiso   1.00
H1090  H     0.71892   0.40855   0.68776   0.00000  Uiso   1.00
H1091  H     0.73516   0.44550   0.63491   0.00000  Uiso   1.00
C1092  C     0.69422   0.56205   0.81632   0.00000  Uiso   1.00
H1093  H     0.72731   0.55450   0.82198   0.00000  Uiso   1.00
H1094  H     0.69805   0.59205   0.79612   0.00000  Uiso   1.00
H1095  H     0.66735   0.56600   0.85842   0.00000  Uiso   1.00
C1096  C     0.93009   0.55849   0.82385   0.00000  Uiso   1.00
H1097  H     0.89451   0.55910   0.82209   0.00000  Uiso   1.00
H1098  H     0.92498   0.55078   0.86643   0.00000  Uiso   1.00
H1099  H     0.94335   0.59079   0.81688   0.00000  Uiso   1.00
C1100  C     0.96427   0.41555   0.97469   0.00000  Uiso   1.00
H1101  H     0.94939   0.38833   0.95865   0.00000  Uiso   1.00
H1102  H     0.99232   0.43014   0.94028   0.00000  Uiso   1.00
H1103  H     0.98078   0.40143   0.50139   0.00000  Uiso   1.00
H1104  H     0.81816   0.52226   0.58467   0.00000  Uiso   1.00
C1105  C     0.70613   0.52796   0.92816   0.00000  Uiso   1.00
H1106  H     0.69765   0.50464   0.90032   0.00000  Uiso   1.00
H1107  H     0.67174   0.53598   0.96213   0.00000  Uiso   1.00
H1108  H     0.72016   0.55719   0.90817   0.00000  Uiso   1.00
H1109  H     0.69772   0.52614   0.53256   0.00000  Uiso   1.00
H1110  H     0.89699   0.63043   0.77152   0.00000  Uiso   1.00
C1111  C     0.16671   0.91325   0.75010   0.00000  Uiso   1.00
C1112  C     0.14492   0.82140   0.99264   0.00000  Uiso   1.00
C1113  C     0.15321   0.81150   0.93695   0.00000  Uiso   1.00
C1114  C     0.18216   0.81473   0.51275   0.00000  Uiso   1.00
C1115  C     0.22290   0.78997   0.98176   0.00000  Uiso   1.00
C1116  C     0.22701   0.77501   0.92873   0.00000  Uiso   1.00
C1117  C     0.19294   0.78566   0.90678   0.00000  Uiso   1.00
C1118  C     0.17956   0.83317   0.56286   0.00000  Uiso   1.00
C1119  C     0.25333   0.79876   0.55737   0.00000  Uiso   1.00
C1120  C     0.12163   0.82783   0.91307   0.00000  Uiso   1.00
C1121  C     0.20251   0.97940   0.76204   0.00000  Uiso   1.00
C1122  C     0.13952   0.83184   0.85269   0.00000  Uiso   1.00
C1123  C     0.20235   0.68872   0.76223   0.00000  Uiso   1.00
C1124  C     0.16647   0.70923   0.75029   0.00000  Uiso   1.00
C1125  C     0.13067   0.68730   0.73840   0.00000  Uiso   1.00
C1126  C     0.13086   0.97799   0.73818   0.00000  Uiso   1.00
C1127  C     0.16675   0.95747   0.75007   0.00000  Uiso   1.00
C1128  C     0.31919   0.80580   0.71697   0.00000  Uiso   1.00
C1129  C     0.03343   0.80542   0.71658   0.00000  Uiso   1.00
C1130  C     0.01381   0.86172   0.78282   0.00000  Uiso   1.00
C1131  C     0.29904   0.86130   0.78370   0.00000  Uiso   1.00
C1132  C     0.16660   0.75343   0.74998   0.00000  Uiso   1.00
C1133  C     0.19397   0.83166   0.64735   0.00000  Uiso   1.00
C1134  C     0.25804   0.78056   0.50469   0.00000  Uiso   1.00
C1135  C     0.21165   0.82301   0.58743   0.00000  Uiso   1.00
C1136  C     0.07617   0.84420   0.94841   0.00000  Uiso   1.00
C1137  C     0.06535   0.84708   0.50496   0.00000  Uiso   1.00
C1138  C     0.09934   0.83693   0.52677   0.00000  Uiso   1.00
H1139  H     0.25721   0.75612   0.90266   0.00000  Uiso   1.00
H1140  H     0.08847   0.84030   0.57086   0.00000  Uiso   1.00
H1141  H     0.19759   0.77247   0.86627   0.00000  Uiso   1.00
N1142  N     0.04760   0.83334   0.75002   0.00000  Uiso   1.00
N1143  N     0.28573   0.83331   0.75001   0.00000  Uiso   1.00
O1144  O     0.12846   0.89442   0.75001   0.00000  Uiso   1.00
O1145  O     0.20490   0.89441   0.75001   0.00000  Uiso   1.00
O1146  O     0.10947   0.83333   0.82681   0.00000  Uiso   1.00
O1147  O     0.18591   0.83332   0.82681   0.00000  Uiso   1.00
O1148  O     0.12843   0.77226   0.75000   0.00000  Uiso   1.00
O1149  O     0.20488   0.77225   0.75000   0.00000  Uiso   1.00
O1150  O     0.14742   0.83335   0.67319   0.00000  Uiso   1.00
O1151  O     0.22387   0.83334   0.67319   0.00000  Uiso   1.00
Zn1152 Zn    0.11562   0.83334   0.75000   0.00000  Uiso   1.00
Zn1153 Zn    0.21771   0.83333   0.75000   0.00000  Uiso   1.00
C1154  C     0.29195   0.79303   0.58132   0.00000  Uiso   1.00
H1155  H     0.29889   0.82308   0.59975   0.00000  Uiso   1.00
H1156  H     0.28078   0.76938   0.61274   0.00000  Uiso   1.00
H1157  H     0.32731   0.78416   0.55020   0.00000  Uiso   1.00
H1158  H     0.23004   0.70551   0.77194   0.00000  Uiso   1.00
H1159  H     0.10289   0.70293   0.72886   0.00000  Uiso   1.00
H1160  H     0.10327   0.96123   0.72827   0.00000  Uiso   1.00
H1161  H     0.30892   0.78372   0.69064   0.00000  Uiso   1.00
C1162  C     0.06658   0.77350   0.67723   0.00000  Uiso   1.00
H1163  H     0.10323   0.77374   0.67665   0.00000  Uiso   1.00
H1164  H     0.05226   0.74188   0.68776   0.00000  Uiso   1.00
H1165  H     0.06849   0.77884   0.63491   0.00000  Uiso   1.00
C1166  C     0.02755   0.89539   0.81632   0.00000  Uiso   1.00
H1167  H     0.06065   0.88783   0.82198   0.00000  Uiso   1.00
H1168  H     0.03138   0.92539   0.79612   0.00000  Uiso   1.00
H1169  H     0.00068   0.89933   0.85842   0.00000  Uiso   1.00
C1170  C     0.26342   0.89182   0.82385   0.00000  Uiso   1.00
H1171  H     0.22785   0.89243   0.82209   0.00000  Uiso   1.00
H1172  H     0.25831   0.88412   0.86643   0.00000  Uiso   1.00
H1173  H     0.27668   0.92412   0.81688   0.00000  Uiso   1.00
C1174  C     0.29760   0.74888   0.97469   0.00000  Uiso   1.00
H1175  H     0.28273   0.72166   0.95865   0.00000  Uiso   1.00
H1176  H     0.32566   0.76347   0.94028   0.00000  Uiso   1.00
H1177  H     0.31411   0.73476   0.50139   0.00000  Uiso   1.00
H1178  H     0.15149   0.85559   0.58467   0.00000  Uiso   1.00
C1179  C     0.03946   0.86129   0.92816   0.00000  Uiso   1.00
H1180  H     0.03099   0.83797   0.90032   0.00000  Uiso   1.00
H1181  H     0.00507   0.86932   0.96213   0.00000  Uiso   1.00
H1182  H     0.05350   0.89053   0.90817   0.00000  Uiso   1.00
H1183  H     0.03105   0.85947   0.53256   0.00000  Uiso   1.00
H1184  H     0.23033   0.96377   0.77152   0.00000  Uiso   1.00
C1185  C     0.50005   0.91325   0.75010   0.00000  Uiso   1.00
C1186  C     0.47825   0.82140   0.99264   0.00000  Uiso   1.00
C1187  C     0.48654   0.81150   0.93695   0.00000  Uiso   1.00
C1188  C     0.51549   0.81473   0.51275   0.00000  Uiso   1.00
C1189  C     0.55624   0.78997   0.98176   0.00000  Uiso   1.00
C1190  C     0.56034   0.77501   0.92873   0.00000  Uiso   1.00
C1191  C     0.52627   0.78566   0.90678   0.00000  Uiso   1.00
C1192  C     0.51290   0.83317   0.56286   0.00000  Uiso   1.00
C1193  C     0.58666   0.79876   0.55737   0.00000  Uiso   1.00
C1194  C     0.45497   0.82783   0.91307   0.00000  Uiso   1.00
C1195  C     0.53585   0.97940   0.76204   0.00000  Uiso   1.00
C1196  C     0.47286   0.83184   0.85269   0.00000  Uiso   1.00
C1197  C     0.53569   0.68872   0.76223   0.00000  Uiso   1.00
C1198  C     0.49980   0.70923   0.75029   0.00000  Uiso   1.00
C1199  C     0.46400   0.68730   0.73840   0.00000  Uiso   1.00
C1200  C     0.46419   0.97799   0.73818   0.00000  Uiso   1.00
C1201  C     0.50008   0.95747   0.75007   0.00000  Uiso   1.00
C1202  C     0.65252   0.80580   0.71697   0.00000  Uiso   1.00
C1203  C     0.36676   0.80542   0.71658   0.00000  Uiso   1.00
C1204  C     0.34714   0.86172   0.78282   0.00000  Uiso   1.00
C1205  C     0.63237   0.86130   0.78370   0.00000  Uiso   1.00
C1206  C     0.49993   0.75343   0.74998   0.00000  Uiso   1.00
C1207  C     0.52730   0.83166   0.64735   0.00000  Uiso   1.00
C1208  C     0.59137   0.78056   0.50469   0.00000  Uiso   1.00
C1209  C     0.54498   0.82301   0.58743   0.00000  Uiso   1.00
C1210  C     0.40950   0.84420   0.94841   0.00000  Uiso   1.00
C1211  C     0.39868   0.84708   0.50496   0.00000  Uiso   1.00
C1212  C     0.43267   0.83693   0.52677   0.00000  Uiso   1.00
H1213  H     0.59055   0.75612   0.90266   0.00000  Uiso   1.00
H1214  H     0.42180   0.84030   0.57086   0.00000  Uiso   1.00
H1215  H     0.53092   0.77247   0.86627   0.00000  Uiso   1.00
N1216  N     0.38093   0.83334   0.75002   0.00000  Uiso   1.00
N1217  N     0.61906   0.83331   0.75001   0.00000  Uiso   1.00
O1218  O     0.46179   0.89442   0.75001   0.00000  Uiso   1.00
O1219  O     0.53823   0.89441   0.75001   0.00000  Uiso   1.00
O1220  O     0.44280   0.83333   0.82681   0.00000  Uiso   1.00
O1221  O     0.51924   0.83332   0.82681   0.00000  Uiso   1.00
O1222  O     0.46177   0.77226   0.75000   0.00000  Uiso   1.00
O1223  O     0.53821   0.77225   0.75000   0.00000  Uiso   1.00
O1224  O     0.48076   0.83335   0.67319   0.00000  Uiso   1.00
O1225  O     0.55720   0.83334   0.67319   0.00000  Uiso   1.00
Zn1226 Zn    0.44896   0.83334   0.75000   0.00000  Uiso   1.00
Zn1227 Zn    0.55104   0.83333   0.75000   0.00000  Uiso   1.00
C1228  C     0.62528   0.79303   0.58132   0.00000  Uiso   1.00
H1229  H     0.63223   0.82308   0.59975   0.00000  Uiso   1.00
H1230  H     0.61411   0.76938   0.61274   0.00000  Uiso   1.00
H1231  H     0.66064   0.78416   0.55020   0.00000  Uiso   1.00
H1232  H     0.56337   0.70551   0.77194   0.00000  Uiso   1.00
H1233  H     0.43622   0.70293   0.72886   0.00000  Uiso   1.00
H1234  H     0.43661   0.96123   0.72827   0.00000  Uiso   1.00
H1235  H     0.64225   0.78372   0.69064   0.00000  Uiso   1.00
C1236  C     0.39992   0.77350   0.67723   0.00000  Uiso   1.00
H1237  H     0.43656   0.77374   0.67665   0.00000  Uiso   1.00
H1238  H     0.38559   0.74188   0.68776   0.00000  Uiso   1.00
H1239  H     0.40183   0.77884   0.63491   0.00000  Uiso   1.00
C1240  C     0.36089   0.89539   0.81632   0.00000  Uiso   1.00
H1241  H     0.39398   0.88783   0.82198   0.00000  Uiso   1.00
H1242  H     0.36472   0.92539   0.79612   0.00000  Uiso   1.00
H1243  H     0.33402   0.89933   0.85842   0.00000  Uiso   1.00
C1244  C     0.59675   0.89182   0.82385   0.00000  Uiso   1.00
H1245  H     0.56118   0.89243   0.82209   0.00000  Uiso   1.00
H1246  H     0.59165   0.88412   0.86643   0.00000  Uiso   1.00
H1247  H     0.61001   0.92412   0.81688   0.00000  Uiso   1.00
C1248  C     0.63093   0.74888   0.97469   0.00000  Uiso   1.00
H1249  H     0.61606   0.72166   0.95865   0.00000  Uiso   1.00
H1250  H     0.65899   0.76347   0.94028   0.00000  Uiso   1.00
H1251  H     0.64745   0.73476   0.50139   0.00000  Uiso   1.00
H1252  H     0.48482   0.85559   0.58467   0.00000  Uiso   1.00
C1253  C     0.37280   0.86129   0.92816   0.00000  Uiso   1.00
H1254  H     0.36432   0.83797   0.90032   0.00000  Uiso   1.00
H1255  H     0.33840   0.86932   0.96213   0.00000  Uiso   1.00
H1256  H     0.38683   0.89053   0.90817   0.00000  Uiso   1.00
H1257  H     0.36439   0.85947   0.53256   0.00000  Uiso   1.00
H1258  H     0.56366   0.96377   0.77152   0.00000  Uiso   1.00
C1259  C     0.83338   0.91325   0.75010   0.00000  Uiso   1.00
C1260  C     0.81158   0.82140   0.99264   0.00000  Uiso   1.00
C1261  C     0.81987   0.81150   0.93695   0.00000  Uiso   1.00
C1262  C     0.84882   0.81473   0.51275   0.00000  Uiso   1.00
C1263  C     0.88957   0.78997   0.98176   0.00000  Uiso   1.00
C1264  C     0.89368   0.77501   0.92873   0.00000  Uiso   1.00
C1265  C     0.85961   0.78566   0.90678   0.00000  Uiso   1.00
C1266  C     0.84623   0.83317   0.56286   0.00000  Uiso   1.00
C1267  C     0.92000   0.79876   0.55737   0.00000  Uiso   1.00
C1268  C     0.78830   0.82783   0.91307   0.00000  Uiso   1.00
C1269  C     0.86918   0.97940   0.76204   0.00000  Uiso   1.00
C1270  C     0.80619   0.83184   0.85269   0.00000  Uiso   1.00
C1271  C     0.86902   0.68872   0.76223   0.00000  Uiso   1.00
C1272  C     0.83314   0.70923   0.75029   0.00000  Uiso   1.00
C1273  C     0.79734   0.68730   0.73840   0.00000  Uiso   1.00
C1274  C     0.79753   0.97799   0.73818   0.00000  Uiso   1.00
C1275  C     0.83342   0.95747   0.75007   0.00000  Uiso   1.00
C1276  C     0.98586   0.80580   0.71697   0.00000  Uiso   1.00
C1277  C     0.70010   0.80542   0.71658   0.00000  Uiso   1.00
C1278  C     0.68048   0.86172   0.78282   0.00000  Uiso   1.00
C1279  C     0.96570   0.86130   0.78370   0.00000  Uiso   1.00
C1280  C     0.83326   0.75343   0.74998   0.00000  Uiso   1.00
C1281  C     0.86063   0.83166   0.64735   0.00000  Uiso   1.00
C1282  C     0.92471   0.78056   0.50469   0.00000  Uiso   1.00
C1283  C     0.87831   0.82301   0.58743   0.00000  Uiso   1.00
C1284  C     0.74284   0.84420   0.94841   0.00000  Uiso   1.00
C1285  C     0.73201   0.84708   0.50496   0.00000  Uiso   1.00
C1286  C     0.76601   0.83693   0.52677   0.00000  Uiso   1.00
H1287  H     0.92388   0.75612   0.90266   0.00000  Uiso   1.00
H1288  H     0.75514   0.84030   0.57086   0.00000  Uiso   1.00
H1289  H     0.86426   0.77247   0.86627   0.00000  Uiso   1.00
N1290  N     0.71426   0.83334   0.75002   0.00000  Uiso   1.00
N1291  N     0.95239   0.83331   0.75001   0.00000  Uiso   1.00
O1292  O     0.79512   0.89442   0.75001   0.00000  Uiso   1.00
O1293  O     0.87157   0.89441   0.75001   0.00000  Uiso   1.00
O1294  O     0.77613   0.83333   0.82681   0.00000  Uiso   1.00
O1295  O     0.85258   0.83332   0.82681   0.00000  Uiso   1.00
O1296  O     0.79510   0.77226   0.75000   0.00000  Uiso   1.00
O1297  O     0.87154   0.77225   0.75000   0.00000  Uiso   1.00
O1298  O     0.81409   0.83335   0.67319   0.00000  Uiso   1.00
O1299  O     0.89053   0.83334   0.67319   0.00000  Uiso   1.00
Zn1300 Zn    0.78229   0.83334   0.75000   0.00000  Uiso   1.00
Zn1301 Zn    0.88438   0.83333   0.75000   0.00000  Uiso   1.00
C1302  C     0.95862   0.79303   0.58132   0.00000  Uiso   1.00
H1303  H     0.96556   0.82308   0.59975   0.00000  Uiso   1.00
H1304  H     0.94744   0.76938   0.61274   0.00000  Uiso   1.00
H1305  H     0.99398   0.78416   0.55020   0.00000  Uiso   1.00
H1306  H     0.89671   0.70551   0.77194   0.00000  Uiso   1.00
H1307  H     0.76955   0.70293   0.72886   0.00000  Uiso   1.00
H1308  H     0.76994   0.96123   0.72827   0.00000  Uiso   1.00
H1309  H     0.97558   0.78372   0.69064   0.00000  Uiso   1.00
C1310  C     0.73325   0.77350   0.67723   0.00000  Uiso   1.00
H1311  H     0.76990   0.77374   0.67665   0.00000  Uiso   1.00
H1312  H     0.71892   0.74188   0.68776   0.00000  Uiso   1.00
H1313  H     0.73516   0.77884   0.63491   0.00000  Uiso   1.00
C1314  C     0.69422   0.89539   0.81632   0.00000  Uiso   1.00
H1315  H     0.72731   0.88783   0.82198   0.00000  Uiso   1.00
H1316  H     0.69805   0.92539   0.79612   0.00000  Uiso   1.00
H1317  H     0.66735   0.89933   0.85842   0.00000  Uiso   1.00
C1318  C     0.93009   0.89182   0.82385   0.00000  Uiso   1.00
H1319  H     0.89451   0.89243   0.82209   0.00000  Uiso   1.00
H1320  H     0.92498   0.88412   0.86643   0.00000  Uiso   1.00
H1321  H     0.94335   0.92412   0.81688   0.00000  Uiso   1.00
C1322  C     0.96427   0.74888   0.97469   0.00000  Uiso   1.00
H1323  H     0.94939   0.72166   0.95865   0.00000  Uiso   1.00
H1324  H     0.99232   0.76347   0.94028   0.00000  Uiso   1.00
H1325  H     0.98078   0.73476   0.50139   0.00000  Uiso   1.00
H1326  H     0.81816   0.85559   0.58467   0.00000  Uiso   1.00
C1327  C     0.70613   0.86129   0.92816   0.00000  Uiso   1.00
H1328  H     0.69765   0.83797   0.90032   0.00000  Uiso   1.00
H1329  H     0.67174   0.86932   0.96213   0.00000  Uiso   1.00
H1330  H     0.72016   0.89053   0.90817   0.00000  Uiso   1.00
H1331  H     0.69772   0.85947   0.53256   0.00000  Uiso   1.00
H1332  H     0.89699   0.96377   0.77152   0.00000  Uiso   1.00
loop_
_geom_bond_atom_site_label_1
_geom_bond_atom_site_label_2
_geom_bond_distance
_geom_bond_site_symmetry_2
_ccdc_geom_bond_type
C1     O34     1.293   .     A
C1     O35     1.295   .     A
C1     C17     1.421   .     S
C2     C3      1.407   .     A
C2     C670    1.414   .     S
C2     C694    1.410   .     S
C3     C10     1.422   .     A
C3     C7      1.411   .     A
C4     C8      1.386   .     A
C4     C668    1.414   1_554 S
C4     C671    1.416   1_554 S
C5     C6      1.407   .     A
C5     C670    1.416   .     S
C5     C690    1.426   .     S
C6     C7      1.390   .     A
C6     H29     1.081   .     S
C7     H31     1.082   .     S
C8     C25     1.382   .     A
C8     H68     1.080   .     S
C9     C24     1.427   .     A
C9     C25     1.421   .     A
C9     C44     1.515   .     S
C10    C26     1.426   .     A
C10    C12     1.487   .     S
C11    C17     1.397   .     A
C11    H74     1.082   .     S
C11    C235    1.370   .     S
C12    O36     1.308   .     A
C12    O37     1.309   .     A
C13    H48     1.084   .     S
C13    C14     1.398   .     A
C13    C455    1.370   1_545 S
C14    C22     1.421   .     S
C14    C15     1.396   .     A
C15    H49     1.082   .     S
C15    C460    1.370   1_545 S
C16    H50     1.083   .     S
C16    C17     1.398   .     A
C16    C237    1.370   .     S
C18    H51     1.082   .     S
C18    N33     1.355   .     A
C18    C93     1.420   .     S
C19    N32     1.389   .     A
C19    C52     1.503   .     S
C19    C166    1.420   1_455 S
C20    C56     1.504   .     S
C20    N32     1.375   .     A
C20    C169    1.431   1_455 S
C21    N33     1.382   .     A
C21    C60     1.515   .     S
C21    C94     1.431   .     S
C22    O39     1.293   .     A
C22    O38     1.295   .     A
C23    O41     1.301   .     A
C23    C25     1.475   .     S
C23    O40     1.311   .     A
C24    C671    1.426   1_554 S
C24    C730    1.520   1_554 S
C26    C69     1.498   .     S
C26    C693    1.394   .     S
C27    C28     1.381   .     A
C27    H73     1.083   .     S
C27    C692    1.394   1_554 S
C28    H30     1.080   .     S
C28    C668    1.410   1_554 S
N32    Zn42    2.035   .     S
N33    Zn43    2.035   .     S
O34    Zn42    1.998   .     S
O35    Zn43    2.002   .     S
O36    Zn42    1.951   .     S
O37    Zn43    1.889   .     S
O38    Zn42    2.002   .     S
O39    Zn43    1.998   .     S
O40    Zn42    1.889   .     S
O41    Zn43    1.951   .     S
C44    H47     1.105   .     S
C44    H45     1.109   .     S
C44    H46     1.110   .     S
C52    H55     1.111   .     S
C52    H54     1.110   .     S
C52    H53     1.091   .     S
C56    H59     1.107   .     S
C56    H57     1.083   .     S
C56    H58     1.110   .     S
C60    H63     1.110   .     S
C60    H62     1.110   .     S
C60    H61     1.082   .     S
C64    H65     1.110   .     S
C64    H66     1.110   .     S
C64    C690    1.520   .     S
C64    H733    1.106   .     S
H67    C730    1.106   1_554 S
C69    H72     1.106   .     S
C69    H70     1.109   .     S
C69    H71     1.111   .     S
C75    O108    1.293   .     A
C75    O109    1.295   .     A
C75    C91     1.421   .     S
C76    C77     1.407   .     A
C76    C744    1.414   .     S
C76    C768    1.410   .     S
C77    C84     1.422   .     A
C77    C81     1.411   .     A
C78    C82     1.386   .     A
C78    C742    1.414   1_554 S
C78    C745    1.416   1_554 S
C79    C80     1.407   .     A
C79    C744    1.416   .     S
C79    C764    1.426   .     S
C80    C81     1.390   .     A
C80    H103    1.081   .     S
C81    H105    1.082   .     S
C82    C99     1.382   .     A
C82    H142    1.080   .     S
C83    C98     1.427   .     A
C83    C99     1.421   .     A
C83    C118    1.515   .     S
C84    C100    1.426   .     A
C84    C86     1.487   .     S
C85    C91     1.397   .     A
C85    H148    1.082   .     S
C85    C309    1.370   .     S
C86    O110    1.308   .     A
C86    O111    1.309   .     A
C87    H122    1.084   .     S
C87    C88     1.398   .     A
C87    C529    1.370   1_545 S
C88    C96     1.421   .     S
C88    C89     1.396   .     A
C89    H123    1.082   .     S
C89    C534    1.370   1_545 S
C90    H124    1.083   .     S
C90    C91     1.398   .     A
C90    C311    1.370   .     S
C92    H125    1.082   .     S
C92    N107    1.355   .     A
C92    C167    1.420   .     S
C93    N106    1.389   .     A
C93    C126    1.503   .     S
C94    C130    1.504   .     S
C94    N106    1.375   .     A
C95    N107    1.382   .     A
C95    C134    1.515   .     S
C95    C168    1.431   .     S
C96    O113    1.293   .     A
C96    O112    1.295   .     A
C97    O115    1.301   .     A
C97    C99     1.475   .     S
C97    O114    1.311   .     A
C98    C745    1.426   1_554 S
C98    C804    1.520   1_554 S
C100   C143    1.498   .     S
C100   C767    1.394   .     S
C101   C102    1.381   .     A
C101   H147    1.083   .     S
C101   C766    1.394   1_554 S
C102   H104    1.080   .     S
C102   C742    1.410   1_554 S
N106   Zn116   2.035   .     S
N107   Zn117   2.035   .     S
O108   Zn116   1.998   .     S
O109   Zn117   2.002   .     S
O110   Zn116   1.951   .     S
O111   Zn117   1.889   .     S
O112   Zn116   2.002   .     S
O113   Zn117   1.998   .     S
O114   Zn116   1.889   .     S
O115   Zn117   1.951   .     S
C118   H121    1.105   .     S
C118   H119    1.109   .     S
C118   H120    1.110   .     S
C126   H129    1.111   .     S
C126   H128    1.110   .     S
C126   H127    1.091   .     S
C130   H133    1.107   .     S
C130   H131    1.083   .     S
C130   H132    1.110   .     S
C134   H137    1.110   .     S
C134   H136    1.110   .     S
C134   H135    1.082   .     S
C138   H139    1.110   .     S
C138   H140    1.110   .     S
C138   C764    1.520   .     S
C138   H807    1.106   .     S
H141   C804    1.106   1_554 S
C143   H146    1.106   .     S
C143   H144    1.109   .     S
C143   H145    1.111   .     S
C149   O182    1.293   .     A
C149   O183    1.295   .     A
C149   C165    1.421   .     S
C150   C151    1.407   .     A
C150   C818    1.414   .     S
C150   C842    1.410   .     S
C151   C158    1.422   .     A
C151   C155    1.411   .     A
C152   C156    1.386   .     A
C152   C816    1.414   1_554 S
C152   C819    1.416   1_554 S
C153   C154    1.407   .     A
C153   C818    1.416   .     S
C153   C838    1.426   .     S
C154   C155    1.390   .     A
C154   H177    1.081   .     S
C155   H179    1.082   .     S
C156   C173    1.382   .     A
C156   H216    1.080   .     S
C157   C172    1.427   .     A
C157   C173    1.421   .     A
C157   C192    1.515   .     S
C158   C174    1.426   .     A
C158   C160    1.487   .     S
C159   C165    1.397   .     A
C159   H222    1.082   .     S
C159   C383    1.370   .     S
C160   O184    1.308   .     A
C160   O185    1.309   .     A
C161   H196    1.084   .     S
C161   C162    1.398   .     A
C161   C603    1.370   1_545 S
C162   C170    1.421   .     S
C162   C163    1.396   .     A
C163   H197    1.082   .     S
C163   C608    1.370   1_545 S
C164   H198    1.083   .     S
C164   C165    1.398   .     A
C164   C385    1.370   .     S
C166   H199    1.082   .     S
C166   N181    1.355   .     A
C166   C19     1.420   1_655 S
C167   N180    1.389   .     A
C167   C200    1.503   .     S
C168   C204    1.504   .     S
C168   N180    1.375   .     A
C169   N181    1.382   .     A
C169   C208    1.515   .     S
C169   C20     1.431   1_655 S
C170   O187    1.293   .     A
C170   O186    1.295   .     A
C171   O189    1.301   .     A
C171   C173    1.475   .     S
C171   O188    1.311   .     A
C172   C819    1.426   1_554 S
C172   C878    1.520   1_554 S
C174   C217    1.498   .     S
C174   C841    1.394   .     S
C175   C176    1.381   .     A
C175   H221    1.083   .     S
C175   C840    1.394   1_554 S
C176   H178    1.080   .     S
C176   C816    1.410   1_554 S
N180   Zn190   2.035   .     S
N181   Zn191   2.035   .     S
O182   Zn190   1.998   .     S
O183   Zn191   2.002   .     S
O184   Zn190   1.951   .     S
O185   Zn191   1.889   .     S
O186   Zn190   2.002   .     S
O187   Zn191   1.998   .     S
O188   Zn190   1.889   .     S
O189   Zn191   1.951   .     S
C192   H195    1.105   .     S
C192   H193    1.109   .     S
C192   H194    1.110   .     S
C200   H203    1.111   .     S
C200   H202    1.110   .     S
C200   H201    1.091   .     S
C204   H207    1.107   .     S
C204   H205    1.083   .     S
C204   H206    1.110   .     S
C208   H211    1.110   .     S
C208   H210    1.110   .     S
C208   H209    1.082   .     S
C212   H213    1.110   .     S
C212   H214    1.110   .     S
C212   C838    1.520   .     S
C212   H881    1.106   .     S
H215   C878    1.106   1_554 S
C217   H220    1.106   .     S
C217   H218    1.109   .     S
C217   H219    1.111   .     S
C223   O256    1.293   .     A
C223   O257    1.295   .     A
C223   C239    1.421   .     S
C224   C225    1.407   .     A
C224   C892    1.414   .     S
C224   C916    1.410   .     S
C225   C232    1.422   .     A
C225   C229    1.411   .     A
C226   C230    1.386   .     A
C226   C890    1.414   1_554 S
C226   C893    1.416   1_554 S
C227   C228    1.407   .     A
C227   C892    1.416   .     S
C227   C912    1.426   .     S
C228   C229    1.390   .     A
C228   H251    1.081   .     S
C229   H253    1.082   .     S
C230   C247    1.382   .     A
C230   H290    1.080   .     S
C231   C246    1.427   .     A
C231   C247    1.421   .     A
C231   C266    1.515   .     S
C232   C248    1.426   .     A
C232   C234    1.487   .     S
C233   C239    1.397   .     A
C233   H296    1.082   .     S
C233   C457    1.370   .     S
C234   O258    1.308   .     A
C234   O259    1.309   .     A
C235   H270    1.084   .     S
C235   C236    1.398   .     A
C236   C244    1.421   .     S
C236   C237    1.396   .     A
C237   H271    1.082   .     S
C238   H272    1.083   .     S
C238   C239    1.398   .     A
C238   C459    1.370   .     S
C240   H273    1.082   .     S
C240   N255    1.355   .     A
C240   C315    1.420   .     S
C241   N254    1.389   .     A
C241   C274    1.503   .     S
C241   C388    1.420   1_455 S
C242   C278    1.504   .     S
C242   N254    1.375   .     A
C242   C391    1.431   1_455 S
C243   N255    1.382   .     A
C243   C282    1.515   .     S
C243   C316    1.431   .     S
C244   O261    1.293   .     A
C244   O260    1.295   .     A
C245   O263    1.301   .     A
C245   C247    1.475   .     S
C245   O262    1.311   .     A
C246   C893    1.426   1_554 S
C246   C952    1.520   1_554 S
C248   C291    1.498   .     S
C248   C915    1.394   .     S
C249   C250    1.381   .     A
C249   H295    1.083   .     S
C249   C914    1.394   1_554 S
C250   H252    1.080   .     S
C250   C890    1.410   1_554 S
N254   Zn264   2.035   .     S
N255   Zn265   2.035   .     S
O256   Zn264   1.998   .     S
O257   Zn265   2.002   .     S
O258   Zn264   1.951   .     S
O259   Zn265   1.889   .     S
O260   Zn264   2.002   .     S
O261   Zn265   1.998   .     S
O262   Zn264   1.889   .     S
O263   Zn265   1.951   .     S
C266   H269    1.105   .     S
C266   H267    1.109   .     S
C266   H268    1.110   .     S
C274   H277    1.111   .     S
C274   H276    1.110   .     S
C274   H275    1.091   .     S
C278   H281    1.107   .     S
C278   H279    1.083   .     S
C278   H280    1.110   .     S
C282   H285    1.110   .     S
C282   H284    1.110   .     S
C282   H283    1.082   .     S
C286   H287    1.110   .     S
C286   H288    1.110   .     S
C286   C912    1.520   .     S
C286   H955    1.106   .     S
H289   C952    1.106   1_554 S
C291   H294    1.106   .     S
C291   H292    1.109   .     S
C291   H293    1.111   .     S
C297   O330    1.293   .     A
C297   O331    1.295   .     A
C297   C313    1.421   .     S
C298   C299    1.407   .     A
C298   C966    1.414   .     S
C298   C990    1.410   .     S
C299   C306    1.422   .     A
C299   C303    1.411   .     A
C300   C304    1.386   .     A
C300   C964    1.414   1_554 S
C300   C967    1.416   1_554 S
C301   C302    1.407   .     A
C301   C966    1.416   .     S
C301   C986    1.426   .     S
C302   C303    1.390   .     A
C302   H325    1.081   .     S
C303   H327    1.082   .     S
C304   C321    1.382   .     A
C304   H364    1.080   .     S
C305   C320    1.427   .     A
C305   C321    1.421   .     A
C305   C340    1.515   .     S
C306   C322    1.426   .     A
C306   C308    1.487   .     S
C307   C313    1.397   .     A
C307   H370    1.082   .     S
C307   C531    1.370   .     S
C308   O332    1.308   .     A
C308   O333    1.309   .     A
C309   H344    1.084   .     S
C309   C310    1.398   .     A
C310   C318    1.421   .     S
C310   C311    1.396   .     A
C311   H345    1.082   .     S
C312   H346    1.083   .     S
C312   C313    1.398   .     A
C312   C533    1.370   .     S
C314   H347    1.082   .     S
C314   N329    1.355   .     A
C314   C389    1.420   .     S
C315   N328    1.389   .     A
C315   C348    1.503   .     S
C316   C352    1.504   .     S
C316   N328    1.375   .     A
C317   N329    1.382   .     A
C317   C356    1.515   .     S
C317   C390    1.431   .     S
C318   O335    1.293   .     A
C318   O334    1.295   .     A
C319   O337    1.301   .     A
C319   C321    1.475   .     S
C319   O336    1.311   .     A
C320   C967    1.426   1_554 S
C320   C1026   1.520   1_554 S
C322   C365    1.498   .     S
C322   C989    1.394   .     S
C323   C324    1.381   .     A
C323   H369    1.083   .     S
C323   C988    1.394   1_554 S
C324   H326    1.080   .     S
C324   C964    1.410   1_554 S
N328   Zn338   2.035   .     S
N329   Zn339   2.035   .     S
O330   Zn338   1.998   .     S
O331   Zn339   2.002   .     S
O332   Zn338   1.951   .     S
O333   Zn339   1.889   .     S
O334   Zn338   2.002   .     S
O335   Zn339   1.998   .     S
O336   Zn338   1.889   .     S
O337   Zn339   1.951   .     S
C340   H343    1.105   .     S
C340   H341    1.109   .     S
C340   H342    1.110   .     S
C348   H351    1.111   .     S
C348   H350    1.110   .     S
C348   H349    1.091   .     S
C352   H355    1.107   .     S
C352   H353    1.083   .     S
C352   H354    1.110   .     S
C356   H359    1.110   .     S
C356   H358    1.110   .     S
C356   H357    1.082   .     S
C360   H361    1.110   .     S
C360   H362    1.110   .     S
C360   C986    1.520   .     S
C360   H1029   1.106   .     S
H363   C1026   1.106   1_554 S
C365   H368    1.106   .     S
C365   H366    1.109   .     S
C365   H367    1.111   .     S
C371   O404    1.293   .     A
C371   O405    1.295   .     A
C371   C387    1.421   .     S
C372   C373    1.407   .     A
C372   C1040   1.414   .     S
C372   C1064   1.410   .     S
C373   C380    1.422   .     A
C373   C377    1.411   .     A
C374   C378    1.386   .     A
C374   C1038   1.414   1_554 S
C374   C1041   1.416   1_554 S
C375   C376    1.407   .     A
C375   C1040   1.416   .     S
C375   C1060   1.426   .     S
C376   C377    1.390   .     A
C376   H399    1.081   .     S
C377   H401    1.082   .     S
C378   C395    1.382   .     A
C378   H438    1.080   .     S
C379   C394    1.427   .     A
C379   C395    1.421   .     A
C379   C414    1.515   .     S
C380   C396    1.426   .     A
C380   C382    1.487   .     S
C381   C387    1.397   .     A
C381   H444    1.082   .     S
C381   C605    1.370   .     S
C382   O406    1.308   .     A
C382   O407    1.309   .     A
C383   H418    1.084   .     S
C383   C384    1.398   .     A
C384   C392    1.421   .     S
C384   C385    1.396   .     A
C385   H419    1.082   .     S
C386   H420    1.083   .     S
C386   C387    1.398   .     A
C386   C607    1.370   .     S
C388   H421    1.082   .     S
C388   N403    1.355   .     A
C388   C241    1.420   1_655 S
C389   N402    1.389   .     A
C389   C422    1.503   .     S
C390   C426    1.504   .     S
C390   N402    1.375   .     A
C391   N403    1.382   .     A
C391   C430    1.515   .     S
C391   C242    1.431   1_655 S
C392   O409    1.293   .     A
C392   O408    1.295   .     A
C393   O411    1.301   .     A
C393   C395    1.475   .     S
C393   O410    1.311   .     A
C394   C1041   1.426   1_554 S
C394   C1100   1.520   1_554 S
C396   C439    1.498   .     S
C396   C1063   1.394   .     S
C397   C398    1.381   .     A
C397   H443    1.083   .     S
C397   C1062   1.394   1_554 S
C398   H400    1.080   .     S
C398   C1038   1.410   1_554 S
N402   Zn412   2.035   .     S
N403   Zn413   2.035   .     S
O404   Zn412   1.998   .     S
O405   Zn413   2.002   .     S
O406   Zn412   1.951   .     S
O407   Zn413   1.889   .     S
O408   Zn412   2.002   .     S
O409   Zn413   1.998   .     S
O410   Zn412   1.889   .     S
O411   Zn413   1.951   .     S
C414   H417    1.105   .     S
C414   H415    1.109   .     S
C414   H416    1.110   .     S
C422   H425    1.111   .     S
C422   H424    1.110   .     S
C422   H423    1.091   .     S
C426   H429    1.107   .     S
C426   H427    1.083   .     S
C426   H428    1.110   .     S
C430   H433    1.110   .     S
C430   H432    1.110   .     S
C430   H431    1.082   .     S
C434   H435    1.110   .     S
C434   H436    1.110   .     S
C434   C1060   1.520   .     S
C434   H1103   1.106   .     S
H437   C1100   1.106   1_554 S
C439   H442    1.106   .     S
C439   H440    1.109   .     S
C439   H441    1.111   .     S
C445   O478    1.293   .     A
C445   O479    1.295   .     A
C445   C461    1.421   .     S
C446   C447    1.407   .     A
C446   C1114   1.414   .     S
C446   C1138   1.410   .     S
C447   C454    1.422   .     A
C447   C451    1.411   .     A
C448   C452    1.386   .     A
C448   C1112   1.414   1_554 S
C448   C1115   1.416   1_554 S
C449   C450    1.407   .     A
C449   C1114   1.416   .     S
C449   C1134   1.426   .     S
C450   C451    1.390   .     A
C450   H473    1.081   .     S
C451   H475    1.082   .     S
C452   C469    1.382   .     A
C452   H512    1.080   .     S
C453   C468    1.427   .     A
C453   C469    1.421   .     A
C453   C488    1.515   .     S
C454   C470    1.426   .     A
C454   C456    1.487   .     S
C455   C461    1.397   .     A
C455   H518    1.082   .     S
C455   C13     1.370   1_565 S
C456   O480    1.308   .     A
C456   O481    1.309   .     A
C457   H492    1.084   .     S
C457   C458    1.398   .     A
C458   C466    1.421   .     S
C458   C459    1.396   .     A
C459   H493    1.082   .     S
C460   H494    1.083   .     S
C460   C461    1.398   .     A
C460   C15     1.370   1_565 S
C462   H495    1.082   .     S
C462   N477    1.355   .     A
C462   C537    1.420   .     S
C463   N476    1.389   .     A
C463   C496    1.503   .     S
C463   C610    1.420   1_455 S
C464   C500    1.504   .     S
C464   N476    1.375   .     A
C464   C613    1.431   1_455 S
C465   N477    1.382   .     A
C465   C504    1.515   .     S
C465   C538    1.431   .     S
C466   O483    1.293   .     A
C466   O482    1.295   .     A
C467   O485    1.301   .     A
C467   C469    1.475   .     S
C467   O484    1.311   .     A
C468   C1115   1.426   1_554 S
C468   C1174   1.520   1_554 S
C470   C513    1.498   .     S
C470   C1137   1.394   .     S
C471   C472    1.381   .     A
C471   H517    1.083   .     S
C471   C1136   1.394   1_554 S
C472   H474    1.080   .     S
C472   C1112   1.410   1_554 S
N476   Zn486   2.035   .     S
N477   Zn487   2.035   .     S
O478   Zn486   1.998   .     S
O479   Zn487   2.002   .     S
O480   Zn486   1.951   .     S
O481   Zn487   1.889   .     S
O482   Zn486   2.002   .     S
O483   Zn487   1.998   .     S
O484   Zn486   1.889   .     S
O485   Zn487   1.951   .     S
C488   H491    1.105   .     S
C488   H489    1.109   .     S
C488   H490    1.110   .     S
C496   H499    1.111   .     S
C496   H498    1.110   .     S
C496   H497    1.091   .     S
C500   H503    1.107   .     S
C500   H501    1.083   .     S
C500   H502    1.110   .     S
C504   H507    1.110   .     S
C504   H506    1.110   .     S
C504   H505    1.082   .     S
C508   H509    1.110   .     S
C508   H510    1.110   .     S
C508   C1134   1.520   .     S
C508   H1177   1.106   .     S
H511   C1174   1.106   1_554 S
C513   H516    1.106   .     S
C513   H514    1.109   .     S
C513   H515    1.111   .     S
C519   O552    1.293   .     A
C519   O553    1.295   .     A
C519   C535    1.421   .     S
C520   C521    1.407   .     A
C520   C1188   1.414   .     S
C520   C1212   1.410   .     S
C521   C528    1.422   .     A
C521   C525    1.411   .     A
C522   C526    1.386   .     A
C522   C1186   1.414   1_554 S
C522   C1189   1.416   1_554 S
C523   C524    1.407   .     A
C523   C1188   1.416   .     S
C523   C1208   1.426   .     S
C524   C525    1.390   .     A
C524   H547    1.081   .     S
C525   H549    1.082   .     S
C526   C543    1.382   .     A
C526   H586    1.080   .     S
C527   C542    1.427   .     A
C527   C543    1.421   .     A
C527   C562    1.515   .     S
C528   C544    1.426   .     A
C528   C530    1.487   .     S
C529   C535    1.397   .     A
C529   H592    1.082   .     S
C529   C87     1.370   1_565 S
C530   O554    1.308   .     A
C530   O555    1.309   .     A
C531   H566    1.084   .     S
C531   C532    1.398   .     A
C532   C540    1.421   .     S
C532   C533    1.396   .     A
C533   H567    1.082   .     S
C534   H568    1.083   .     S
C534   C535    1.398   .     A
C534   C89     1.370   1_565 S
C536   H569    1.082   .     S
C536   N551    1.355   .     A
C536   C611    1.420   .     S
C537   N550    1.389   .     A
C537   C570    1.503   .     S
C538   C574    1.504   .     S
C538   N550    1.375   .     A
C539   N551    1.382   .     A
C539   C578    1.515   .     S
C539   C612    1.431   .     S
C540   O557    1.293   .     A
C540   O556    1.295   .     A
C541   O559    1.301   .     A
C541   C543    1.475   .     S
C541   O558    1.311   .     A
C542   C1189   1.426   1_554 S
C542   C1248   1.520   1_554 S
C544   C587    1.498   .     S
C544   C1211   1.394   .     S
C545   C546    1.381   .     A
C545   H591    1.083   .     S
C545   C1210   1.394   1_554 S
C546   H548    1.080   .     S
C546   C1186   1.410   1_554 S
N550   Zn560   2.035   .     S
N551   Zn561   2.035   .     S
O552   Zn560   1.998   .     S
O553   Zn561   2.002   .     S
O554   Zn560   1.951   .     S
O555   Zn561   1.889   .     S
O556   Zn560   2.002   .     S
O557   Zn561   1.998   .     S
O558   Zn560   1.889   .     S
O559   Zn561   1.951   .     S
C562   H565    1.105   .     S
C562   H563    1.109   .     S
C562   H564    1.110   .     S
C570   H573    1.111   .     S
C570   H572    1.110   .     S
C570   H571    1.091   .     S
C574   H577    1.107   .     S
C574   H575    1.083   .     S
C574   H576    1.110   .     S
C578   H581    1.110   .     S
C578   H580    1.110   .     S
C578   H579    1.082   .     S
C582   H583    1.110   .     S
C582   H584    1.110   .     S
C582   C1208   1.520   .     S
C582   H1251   1.106   .     S
H585   C1248   1.106   1_554 S
C587   H590    1.106   .     S
C587   H588    1.109   .     S
C587   H589    1.111   .     S
C593   O626    1.293   .     A
C593   O627    1.295   .     A
C593   C609    1.421   .     S
C594   C595    1.407   .     A
C594   C1262   1.414   .     S
C594   C1286   1.410   .     S
C595   C602    1.422   .     A
C595   C599    1.411   .     A
C596   C600    1.386   .     A
C596   C1260   1.414   1_554 S
C596   C1263   1.416   1_554 S
C597   C598    1.407   .     A
C597   C1262   1.416   .     S
C597   C1282   1.426   .     S
C598   C599    1.390   .     A
C598   H621    1.081   .     S
C599   H623    1.082   .     S
C600   C617    1.382   .     A
C600   H660    1.080   .     S
C601   C616    1.427   .     A
C601   C617    1.421   .     A
C601   C636    1.515   .     S
C602   C618    1.426   .     A
C602   C604    1.487   .     S
C603   C609    1.397   .     A
C603   H666    1.082   .     S
C603   C161    1.370   1_565 S
C604   O628    1.308   .     A
C604   O629    1.309   .     A
C605   H640    1.084   .     S
C605   C606    1.398   .     A
C606   C614    1.421   .     S
C606   C607    1.396   .     A
C607   H641    1.082   .     S
C608   H642    1.083   .     S
C608   C609    1.398   .     A
C608   C163    1.370   1_565 S
C610   H643    1.082   .     S
C610   N625    1.355   .     A
C610   C463    1.420   1_655 S
C611   N624    1.389   .     A
C611   C644    1.503   .     S
C612   C648    1.504   .     S
C612   N624    1.375   .     A
C613   N625    1.382   .     A
C613   C652    1.515   .     S
C613   C464    1.431   1_655 S
C614   O631    1.293   .     A
C614   O630    1.295   .     A
C615   O633    1.301   .     A
C615   C617    1.475   .     S
C615   O632    1.311   .     A
C616   C1263   1.426   1_554 S
C616   C1322   1.520   1_554 S
C618   C661    1.498   .     S
C618   C1285   1.394   .     S
C619   C620    1.381   .     A
C619   H665    1.083   .     S
C619   C1284   1.394   1_554 S
C620   H622    1.080   .     S
C620   C1260   1.410   1_554 S
N624   Zn634   2.035   .     S
N625   Zn635   2.035   .     S
O626   Zn634   1.998   .     S
O627   Zn635   2.002   .     S
O628   Zn634   1.951   .     S
O629   Zn635   1.889   .     S
O630   Zn634   2.002   .     S
O631   Zn635   1.998   .     S
O632   Zn634   1.889   .     S
O633   Zn635   1.951   .     S
C636   H639    1.105   .     S
C636   H637    1.109   .     S
C636   H638    1.110   .     S
C644   H647    1.111   .     S
C644   H646    1.110   .     S
C644   H645    1.091   .     S
C648   H651    1.107   .     S
C648   H649    1.083   .     S
C648   H650    1.110   .     S
C652   H655    1.110   .     S
C652   H654    1.110   .     S
C652   H653    1.082   .     S
C656   H657    1.110   .     S
C656   H658    1.110   .     S
C656   C1282   1.520   .     S
C656   H1325   1.106   .     S
H659   C1322   1.106   1_554 S
C661   H664    1.106   .     S
C661   H662    1.109   .     S
C661   H663    1.111   .     S
C667   O700    1.293   .     A
C667   O701    1.295   .     A
C667   C683    1.421   .     S
C668   C669    1.407   .     A
C668   C4      1.414   1_556 S
C668   C28     1.410   1_556 S
C669   C676    1.422   .     A
C669   C673    1.411   .     A
C670   C674    1.386   .     A
C671   C672    1.407   .     A
C671   C4      1.416   1_556 S
C671   C24     1.426   1_556 S
C672   C673    1.390   .     A
C672   H695    1.081   .     S
C673   H697    1.082   .     S
C674   C691    1.382   .     A
C674   H734    1.080   .     S
C675   C690    1.427   .     A
C675   C691    1.421   .     A
C675   C710    1.515   .     S
C676   C692    1.426   .     A
C676   C678    1.487   .     S
C677   C683    1.397   .     A
C677   H740    1.082   .     S
C677   C901    1.370   .     S
C678   O702    1.308   .     A
C678   O703    1.309   .     A
C679   H714    1.084   .     S
C679   C680    1.398   .     A
C679   C1121   1.370   1_545 S
C680   C688    1.421   .     S
C680   C681    1.396   .     A
C681   H715    1.082   .     S
C681   C1126   1.370   1_545 S
C682   H716    1.083   .     S
C682   C683    1.398   .     A
C682   C903    1.370   .     S
C684   H717    1.082   .     S
C684   N699    1.355   .     A
C684   C759    1.420   .     S
C685   N698    1.389   .     A
C685   C718    1.503   .     S
C685   C832    1.420   1_455 S
C686   C722    1.504   .     S
C686   N698    1.375   .     A
C686   C835    1.431   1_455 S
C687   N699    1.382   .     A
C687   C726    1.515   .     S
C687   C760    1.431   .     S
C688   O705    1.293   .     A
C688   O704    1.295   .     A
C689   O707    1.301   .     A
C689   C691    1.475   .     S
C689   O706    1.311   .     A
C692   C735    1.498   .     S
C692   C27     1.394   1_556 S
C693   C694    1.381   .     A
C693   H739    1.083   .     S
C694   H696    1.080   .     S
N698   Zn708   2.035   .     S
N699   Zn709   2.035   .     S
O700   Zn708   1.998   .     S
O701   Zn709   2.002   .     S
O702   Zn708   1.951   .     S
O703   Zn709   1.889   .     S
O704   Zn708   2.002   .     S
O705   Zn709   1.998   .     S
O706   Zn708   1.889   .     S
O707   Zn709   1.951   .     S
C710   H713    1.105   .     S
C710   H711    1.109   .     S
C710   H712    1.110   .     S
C718   H721    1.111   .     S
C718   H720    1.110   .     S
C718   H719    1.091   .     S
C722   H725    1.107   .     S
C722   H723    1.083   .     S
C722   H724    1.110   .     S
C726   H729    1.110   .     S
C726   H728    1.110   .     S
C726   H727    1.082   .     S
C730   H731    1.110   .     S
C730   H732    1.110   .     S
C730   C24     1.520   1_556 S
C730   H67     1.106   1_556 S
C735   H738    1.106   .     S
C735   H736    1.109   .     S
C735   H737    1.111   .     S
C741   O774    1.293   .     A
C741   O775    1.295   .     A
C741   C757    1.421   .     S
C742   C743    1.407   .     A
C742   C78     1.414   1_556 S
C742   C102    1.410   1_556 S
C743   C750    1.422   .     A
C743   C747    1.411   .     A
C744   C748    1.386   .     A
C745   C746    1.407   .     A
C745   C78     1.416   1_556 S
C745   C98     1.426   1_556 S
C746   C747    1.390   .     A
C746   H769    1.081   .     S
C747   H771    1.082   .     S
C748   C765    1.382   .     A
C748   H808    1.080   .     S
C749   C764    1.427   .     A
C749   C765    1.421   .     A
C749   C784    1.515   .     S
C750   C766    1.426   .     A
C750   C752    1.487   .     S
C751   C757    1.397   .     A
C751   H814    1.082   .     S
C751   C975    1.370   .     S
C752   O776    1.308   .     A
C752   O777    1.309   .     A
C753   H788    1.084   .     S
C753   C754    1.398   .     A
C753   C1195   1.370   1_545 S
C754   C762    1.421   .     S
C754   C755    1.396   .     A
C755   H789    1.082   .     S
C755   C1200   1.370   1_545 S
C756   H790    1.083   .     S
C756   C757    1.398   .     A
C756   C977    1.370   .     S
C758   H791    1.082   .     S
C758   N773    1.355   .     A
C758   C833    1.420   .     S
C759   N772    1.389   .     A
C759   C792    1.503   .     S
C760   C796    1.504   .     S
C760   N772    1.375   .     A
C761   N773    1.382   .     A
C761   C800    1.515   .     S
C761   C834    1.431   .     S
C762   O779    1.293   .     A
C762   O778    1.295   .     A
C763   O781    1.301   .     A
C763   C765    1.475   .     S
C763   O780    1.311   .     A
C766   C809    1.498   .     S
C766   C101    1.394   1_556 S
C767   C768    1.381   .     A
C767   H813    1.083   .     S
C768   H770    1.080   .     S
N772   Zn782   2.035   .     S
N773   Zn783   2.035   .     S
O774   Zn782   1.998   .     S
O775   Zn783   2.002   .     S
O776   Zn782   1.951   .     S
O777   Zn783   1.889   .     S
O778   Zn782   2.002   .     S
O779   Zn783   1.998   .     S
O780   Zn782   1.889   .     S
O781   Zn783   1.951   .     S
C784   H787    1.105   .     S
C784   H785    1.109   .     S
C784   H786    1.110   .     S
C792   H795    1.111   .     S
C792   H794    1.110   .     S
C792   H793    1.091   .     S
C796   H799    1.107   .     S
C796   H797    1.083   .     S
C796   H798    1.110   .     S
C800   H803    1.110   .     S
C800   H802    1.110   .     S
C800   H801    1.082   .     S
C804   H805    1.110   .     S
C804   H806    1.110   .     S
C804   C98     1.520   1_556 S
C804   H141    1.106   1_556 S
C809   H812    1.106   .     S
C809   H810    1.109   .     S
C809   H811    1.111   .     S
C815   O848    1.293   .     A
C815   O849    1.295   .     A
C815   C831    1.421   .     S
C816   C817    1.407   .     A
C816   C152    1.414   1_556 S
C816   C176    1.410   1_556 S
C817   C824    1.422   .     A
C817   C821    1.411   .     A
C818   C822    1.386   .     A
C819   C820    1.407   .     A
C819   C152    1.416   1_556 S
C819   C172    1.426   1_556 S
C820   C821    1.390   .     A
C820   H843    1.081   .     S
C821   H845    1.082   .     S
C822   C839    1.382   .     A
C822   H882    1.080   .     S
C823   C838    1.427   .     A
C823   C839    1.421   .     A
C823   C858    1.515   .     S
C824   C840    1.426   .     A
C824   C826    1.487   .     S
C825   C831    1.397   .     A
C825   H888    1.082   .     S
C825   C1049   1.370   .     S
C826   O850    1.308   .     A
C826   O851    1.309   .     A
C827   H862    1.084   .     S
C827   C828    1.398   .     A
C827   C1269   1.370   1_545 S
C828   C836    1.421   .     S
C828   C829    1.396   .     A
C829   H863    1.082   .     S
C829   C1274   1.370   1_545 S
C830   H864    1.083   .     S
C830   C831    1.398   .     A
C830   C1051   1.370   .     S
C832   H865    1.082   .     S
C832   N847    1.355   .     A
C832   C685    1.420   1_655 S
C833   N846    1.389   .     A
C833   C866    1.503   .     S
C834   C870    1.504   .     S
C834   N846    1.375   .     A
C835   N847    1.382   .     A
C835   C874    1.515   .     S
C835   C686    1.431   1_655 S
C836   O853    1.293   .     A
C836   O852    1.295   .     A
C837   O855    1.301   .     A
C837   C839    1.475   .     S
C837   O854    1.311   .     A
C840   C883    1.498   .     S
C840   C175    1.394   1_556 S
C841   C842    1.381   .     A
C841   H887    1.083   .     S
C842   H844    1.080   .     S
N846   Zn856   2.035   .     S
N847   Zn857   2.035   .     S
O848   Zn856   1.998   .     S
O849   Zn857   2.002   .     S
O850   Zn856   1.951   .     S
O851   Zn857   1.889   .     S
O852   Zn856   2.002   .     S
O853   Zn857   1.998   .     S
O854   Zn856   1.889   .     S
O855   Zn857   1.951   .     S
C858   H861    1.105   .     S
C858   H859    1.109   .     S
C858   H860    1.110   .     S
C866   H869    1.111   .     S
C866   H868    1.110   .     S
C866   H867    1.091   .     S
C870   H873    1.107   .     S
C870   H871    1.083   .     S
C870   H872    1.110   .     S
C874   H877    1.110   .     S
C874   H876    1.110   .     S
C874   H875    1.082   .     S
C878   H879    1.110   .     S
C878   H880    1.110   .     S
C878   C172    1.520   1_556 S
C878   H215    1.106   1_556 S
C883   H886    1.106   .     S
C883   H884    1.109   .     S
C883   H885    1.111   .     S
C889   O922    1.293   .     A
C889   O923    1.295   .     A
C889   C905    1.421   .     S
C890   C891    1.407   .     A
C890   C226    1.414   1_556 S
C890   C250    1.410   1_556 S
C891   C898    1.422   .     A
C891   C895    1.411   .     A
C892   C896    1.386   .     A
C893   C894    1.407   .     A
C893   C226    1.416   1_556 S
C893   C246    1.426   1_556 S
C894   C895    1.390   .     A
C894   H917    1.081   .     S
C895   H919    1.082   .     S
C896   C913    1.382   .     A
C896   H956    1.080   .     S
C897   C912    1.427   .     A
C897   C913    1.421   .     A
C897   C932    1.515   .     S
C898   C914    1.426   .     A
C898   C900    1.487   .     S
C899   C905    1.397   .     A
C899   H962    1.082   .     S
C899   C1123   1.370   .     S
C900   O924    1.308   .     A
C900   O925    1.309   .     A
C901   H936    1.084   .     S
C901   C902    1.398   .     A
C902   C910    1.421   .     S
C902   C903    1.396   .     A
C903   H937    1.082   .     S
C904   H938    1.083   .     S
C904   C905    1.398   .     A
C904   C1125   1.370   .     S
C906   H939    1.082   .     S
C906   N921    1.355   .     A
C906   C981    1.420   .     S
C907   N920    1.389   .     A
C907   C940    1.503   .     S
C907   C1054   1.420   1_455 S
C908   C944    1.504   .     S
C908   N920    1.375   .     A
C908   C1057   1.431   1_455 S
C909   N921    1.382   .     A
C909   C948    1.515   .     S
C909   C982    1.431   .     S
C910   O927    1.293   .     A
C910   O926    1.295   .     A
C911   O929    1.301   .     A
C911   C913    1.475   .     S
C911   O928    1.311   .     A
C914   C957    1.498   .     S
C914   C249    1.394   1_556 S
C915   C916    1.381   .     A
C915   H961    1.083   .     S
C916   H918    1.080   .     S
N920   Zn930   2.035   .     S
N921   Zn931   2.035   .     S
O922   Zn930   1.998   .     S
O923   Zn931   2.002   .     S
O924   Zn930   1.951   .     S
O925   Zn931   1.889   .     S
O926   Zn930   2.002   .     S
O927   Zn931   1.998   .     S
O928   Zn930   1.889   .     S
O929   Zn931   1.951   .     S
C932   H935    1.105   .     S
C932   H933    1.109   .     S
C932   H934    1.110   .     S
C940   H943    1.111   .     S
C940   H942    1.110   .     S
C940   H941    1.091   .     S
C944   H947    1.107   .     S
C944   H945    1.083   .     S
C944   H946    1.110   .     S
C948   H951    1.110   .     S
C948   H950    1.110   .     S
C948   H949    1.082   .     S
C952   H953    1.110   .     S
C952   H954    1.110   .     S
C952   C246    1.520   1_556 S
C952   H289    1.106   1_556 S
C957   H960    1.106   .     S
C957   H958    1.109   .     S
C957   H959    1.111   .     S
C963   O996    1.293   .     A
C963   O997    1.295   .     A
C963   C979    1.421   .     S
C964   C965    1.407   .     A
C964   C300    1.414   1_556 S
C964   C324    1.410   1_556 S
C965   C972    1.422   .     A
C965   C969    1.411   .     A
C966   C970    1.386   .     A
C967   C968    1.407   .     A
C967   C300    1.416   1_556 S
C967   C320    1.426   1_556 S
C968   C969    1.390   .     A
C968   H991    1.081   .     S
C969   H993    1.082   .     S
C970   C987    1.382   .     A
C970   H1030   1.080   .     S
C971   C986    1.427   .     A
C971   C987    1.421   .     A
C971   C1006   1.515   .     S
C972   C988    1.426   .     A
C972   C974    1.487   .     S
C973   C979    1.397   .     A
C973   H1036   1.082   .     S
C973   C1197   1.370   .     S
C974   O998    1.308   .     A
C974   O999    1.309   .     A
C975   H1010   1.084   .     S
C975   C976    1.398   .     A
C976   C984    1.421   .     S
C976   C977    1.396   .     A
C977   H1011   1.082   .     S
C978   H1012   1.083   .     S
C978   C979    1.398   .     A
C978   C1199   1.370   .     S
C980   H1013   1.082   .     S
C980   N995    1.355   .     A
C980   C1055   1.420   .     S
C981   N994    1.389   .     A
C981   C1014   1.503   .     S
C982   C1018   1.504   .     S
C982   N994    1.375   .     A
C983   N995    1.382   .     A
C983   C1022   1.515   .     S
C983   C1056   1.431   .     S
C984   O1001   1.293   .     A
C984   O1000   1.295   .     A
C985   O1003   1.301   .     A
C985   C987    1.475   .     S
C985   O1002   1.311   .     A
C988   C1031   1.498   .     S
C988   C323    1.394   1_556 S
C989   C990    1.381   .     A
C989   H1035   1.083   .     S
C990   H992    1.080   .     S
N994   Zn1004  2.035   .     S
N995   Zn1005  2.035   .     S
O996   Zn1004  1.998   .     S
O997   Zn1005  2.002   .     S
O998   Zn1004  1.951   .     S
O999   Zn1005  1.889   .     S
O1000  Zn1004  2.002   .     S
O1001  Zn1005  1.998   .     S
O1002  Zn1004  1.889   .     S
O1003  Zn1005  1.951   .     S
C1006  H1009   1.105   .     S
C1006  H1007   1.109   .     S
C1006  H1008   1.110   .     S
C1014  H1017   1.111   .     S
C1014  H1016   1.110   .     S
C1014  H1015   1.091   .     S
C1018  H1021   1.107   .     S
C1018  H1019   1.083   .     S
C1018  H1020   1.110   .     S
C1022  H1025   1.110   .     S
C1022  H1024   1.110   .     S
C1022  H1023   1.082   .     S
C1026  H1027   1.110   .     S
C1026  H1028   1.110   .     S
C1026  C320    1.520   1_556 S
C1026  H363    1.106   1_556 S
C1031  H1034   1.106   .     S
C1031  H1032   1.109   .     S
C1031  H1033   1.111   .     S
C1037  O1070   1.293   .     A
C1037  O1071   1.295   .     A
C1037  C1053   1.421   .     S
C1038  C1039   1.407   .     A
C1038  C374    1.414   1_556 S
C1038  C398    1.410   1_556 S
C1039  C1046   1.422   .     A
C1039  C1043   1.411   .     A
C1040  C1044   1.386   .     A
C1041  C1042   1.407   .     A
C1041  C374    1.416   1_556 S
C1041  C394    1.426   1_556 S
C1042  C1043   1.390   .     A
C1042  H1065   1.081   .     S
C1043  H1067   1.082   .     S
C1044  C1061   1.382   .     A
C1044  H1104   1.080   .     S
C1045  C1060   1.427   .     A
C1045  C1061   1.421   .     A
C1045  C1080   1.515   .     S
C1046  C1062   1.426   .     A
C1046  C1048   1.487   .     S
C1047  C1053   1.397   .     A
C1047  H1110   1.082   .     S
C1047  C1271   1.370   .     S
C1048  O1072   1.308   .     A
C1048  O1073   1.309   .     A
C1049  H1084   1.084   .     S
C1049  C1050   1.398   .     A
C1050  C1058   1.421   .     S
C1050  C1051   1.396   .     A
C1051  H1085   1.082   .     S
C1052  H1086   1.083   .     S
C1052  C1053   1.398   .     A
C1052  C1273   1.370   .     S
C1054  H1087   1.082   .     S
C1054  N1069   1.355   .     A
C1054  C907    1.420   1_655 S
C1055  N1068   1.389   .     A
C1055  C1088   1.503   .     S
C1056  C1092   1.504   .     S
C1056  N1068   1.375   .     A
C1057  N1069   1.382   .     A
C1057  C1096   1.515   .     S
C1057  C908    1.431   1_655 S
C1058  O1075   1.293   .     A
C1058  O1074   1.295   .     A
C1059  O1077   1.301   .     A
C1059  C1061   1.475   .     S
C1059  O1076   1.311   .     A
C1062  C1105   1.498   .     S
C1062  C397    1.394   1_556 S
C1063  C1064   1.381   .     A
C1063  H1109   1.083   .     S
C1064  H1066   1.080   .     S
N1068  Zn1078  2.035   .     S
N1069  Zn1079  2.035   .     S
O1070  Zn1078  1.998   .     S
O1071  Zn1079  2.002   .     S
O1072  Zn1078  1.951   .     S
O1073  Zn1079  1.889   .     S
O1074  Zn1078  2.002   .     S
O1075  Zn1079  1.998   .     S
O1076  Zn1078  1.889   .     S
O1077  Zn1079  1.951   .     S
C1080  H1083   1.105   .     S
C1080  H1081   1.109   .     S
C1080  H1082   1.110   .     S
C1088  H1091   1.111   .     S
C1088  H1090   1.110   .     S
C1088  H1089   1.091   .     S
C1092  H1095   1.107   .     S
C1092  H1093   1.083   .     S
C1092  H1094   1.110   .     S
C1096  H1099   1.110   .     S
C1096  H1098   1.110   .     S
C1096  H1097   1.082   .     S
C1100  H1101   1.110   .     S
C1100  H1102   1.110   .     S
C1100  C394    1.520   1_556 S
C1100  H437    1.106   1_556 S
C1105  H1108   1.106   .     S
C1105  H1106   1.109   .     S
C1105  H1107   1.111   .     S
C1111  O1144   1.293   .     A
C1111  O1145   1.295   .     A
C1111  C1127   1.421   .     S
C1112  C1113   1.407   .     A
C1112  C448    1.414   1_556 S
C1112  C472    1.410   1_556 S
C1113  C1120   1.422   .     A
C1113  C1117   1.411   .     A
C1114  C1118   1.386   .     A
C1115  C1116   1.407   .     A
C1115  C448    1.416   1_556 S
C1115  C468    1.426   1_556 S
C1116  C1117   1.390   .     A
C1116  H1139   1.081   .     S
C1117  H1141   1.082   .     S
C1118  C1135   1.382   .     A
C1118  H1178   1.080   .     S
C1119  C1134   1.427   .     A
C1119  C1135   1.421   .     A
C1119  C1154   1.515   .     S
C1120  C1136   1.426   .     A
C1120  C1122   1.487   .     S
C1121  C1127   1.397   .     A
C1121  H1184   1.082   .     S
C1121  C679    1.370   1_565 S
C1122  O1146   1.308   .     A
C1122  O1147   1.309   .     A
C1123  H1158   1.084   .     S
C1123  C1124   1.398   .     A
C1124  C1132   1.421   .     S
C1124  C1125   1.396   .     A
C1125  H1159   1.082   .     S
C1126  H1160   1.083   .     S
C1126  C1127   1.398   .     A
C1126  C681    1.370   1_565 S
C1128  H1161   1.082   .     S
C1128  N1143   1.355   .     A
C1128  C1203   1.420   .     S
C1129  N1142   1.389   .     A
C1129  C1162   1.503   .     S
C1129  C1276   1.420   1_455 S
C1130  C1166   1.504   .     S
C1130  N1142   1.375   .     A
C1130  C1279   1.431   1_455 S
C1131  N1143   1.382   .     A
C1131  C1170   1.515   .     S
C1131  C1204   1.431   .     S
C1132  O1149   1.293   .     A
C1132  O1148   1.295   .     A
C1133  O1151   1.301   .     A
C1133  C1135   1.475   .     S
C1133  O1150   1.311   .     A
C1136  C1179   1.498   .     S
C1136  C471    1.394   1_556 S
C1137  C1138   1.381   .     A
C1137  H1183   1.083   .     S
C1138  H1140   1.080   .     S
N1142  Zn1152  2.035   .     S
N1143  Zn1153  2.035   .     S
O1144  Zn1152  1.998   .     S
O1145  Zn1153  2.002   .     S
O1146  Zn1152  1.951   .     S
O1147  Zn1153  1.889   .     S
O1148  Zn1152  2.002   .     S
O1149  Zn1153  1.998   .     S
O1150  Zn1152  1.889   .     S
O1151  Zn1153  1.951   .     S
C1154  H1157   1.105   .     S
C1154  H1155   1.109   .     S
C1154  H1156   1.110   .     S
C1162  H1165   1.111   .     S
C1162  H1164   1.110   .     S
C1162  H1163   1.091   .     S
C1166  H1169   1.107   .     S
C1166  H1167   1.083   .     S
C1166  H1168   1.110   .     S
C1170  H1173   1.110   .     S
C1170  H1172   1.110   .     S
C1170  H1171   1.082   .     S
C1174  H1175   1.110   .     S
C1174  H1176   1.110   .     S
C1174  C468    1.520   1_556 S
C1174  H511    1.106   1_556 S
C1179  H1182   1.106   .     S
C1179  H1180   1.109   .     S
C1179  H1181   1.111   .     S
C1185  O1218   1.293   .     A
C1185  O1219   1.295   .     A
C1185  C1201   1.421   .     S
C1186  C1187   1.407   .     A
C1186  C522    1.414   1_556 S
C1186  C546    1.410   1_556 S
C1187  C1194   1.422   .     A
C1187  C1191   1.411   .     A
C1188  C1192   1.386   .     A
C1189  C1190   1.407   .     A
C1189  C522    1.416   1_556 S
C1189  C542    1.426   1_556 S
C1190  C1191   1.390   .     A
C1190  H1213   1.081   .     S
C1191  H1215   1.082   .     S
C1192  C1209   1.382   .     A
C1192  H1252   1.080   .     S
C1193  C1208   1.427   .     A
C1193  C1209   1.421   .     A
C1193  C1228   1.515   .     S
C1194  C1210   1.426   .     A
C1194  C1196   1.487   .     S
C1195  C1201   1.397   .     A
C1195  H1258   1.082   .     S
C1195  C753    1.370   1_565 S
C1196  O1220   1.308   .     A
C1196  O1221   1.309   .     A
C1197  H1232   1.084   .     S
C1197  C1198   1.398   .     A
C1198  C1206   1.421   .     S
C1198  C1199   1.396   .     A
C1199  H1233   1.082   .     S
C1200  H1234   1.083   .     S
C1200  C1201   1.398   .     A
C1200  C755    1.370   1_565 S
C1202  H1235   1.082   .     S
C1202  N1217   1.355   .     A
C1202  C1277   1.420   .     S
C1203  N1216   1.389   .     A
C1203  C1236   1.503   .     S
C1204  C1240   1.504   .     S
C1204  N1216   1.375   .     A
C1205  N1217   1.382   .     A
C1205  C1244   1.515   .     S
C1205  C1278   1.431   .     S
C1206  O1223   1.293   .     A
C1206  O1222   1.295   .     A
C1207  O1225   1.301   .     A
C1207  C1209   1.475   .     S
C1207  O1224   1.311   .     A
C1210  C1253   1.498   .     S
C1210  C545    1.394   1_556 S
C1211  C1212   1.381   .     A
C1211  H1257   1.083   .     S
C1212  H1214   1.080   .     S
N1216  Zn1226  2.035   .     S
N1217  Zn1227  2.035   .     S
O1218  Zn1226  1.998   .     S
O1219  Zn1227  2.002   .     S
O1220  Zn1226  1.951   .     S
O1221  Zn1227  1.889   .     S
O1222  Zn1226  2.002   .     S
O1223  Zn1227  1.998   .     S
O1224  Zn1226  1.889   .     S
O1225  Zn1227  1.951   .     S
C1228  H1231   1.105   .     S
C1228  H1229   1.109   .     S
C1228  H1230   1.110   .     S
C1236  H1239   1.111   .     S
C1236  H1238   1.110   .     S
C1236  H1237   1.091   .     S
C1240  H1243   1.107   .     S
C1240  H1241   1.083   .     S
C1240  H1242   1.110   .     S
C1244  H1247   1.110   .     S
C1244  H1246   1.110   .     S
C1244  H1245   1.082   .     S
C1248  H1249   1.110   .     S
C1248  H1250   1.110   .     S
C1248  C542    1.520   1_556 S
C1248  H585    1.106   1_556 S
C1253  H1256   1.106   .     S
C1253  H1254   1.109   .     S
C1253  H1255   1.111   .     S
C1259  O1292   1.293   .     A
C1259  O1293   1.295   .     A
C1259  C1275   1.421   .     S
C1260  C1261   1.407   .     A
C1260  C596    1.414   1_556 S
C1260  C620    1.410   1_556 S
C1261  C1268   1.422   .     A
C1261  C1265   1.411   .     A
C1262  C1266   1.386   .     A
C1263  C1264   1.407   .     A
C1263  C596    1.416   1_556 S
C1263  C616    1.426   1_556 S
C1264  C1265   1.390   .     A
C1264  H1287   1.081   .     S
C1265  H1289   1.082   .     S
C1266  C1283   1.382   .     A
C1266  H1326   1.080   .     S
C1267  C1282   1.427   .     A
C1267  C1283   1.421   .     A
C1267  C1302   1.515   .     S
C1268  C1284   1.426   .     A
C1268  C1270   1.487   .     S
C1269  C1275   1.397   .     A
C1269  H1332   1.082   .     S
C1269  C827    1.370   1_565 S
C1270  O1294   1.308   .     A
C1270  O1295   1.309   .     A
C1271  H1306   1.084   .     S
C1271  C1272   1.398   .     A
C1272  C1280   1.421   .     S
C1272  C1273   1.396   .     A
C1273  H1307   1.082   .     S
C1274  H1308   1.083   .     S
C1274  C1275   1.398   .     A
C1274  C829    1.370   1_565 S
C1276  H1309   1.082   .     S
C1276  N1291   1.355   .     A
C1276  C1129   1.420   1_655 S
C1277  N1290   1.389   .     A
C1277  C1310   1.503   .     S
C1278  C1314   1.504   .     S
C1278  N1290   1.375   .     A
C1279  N1291   1.382   .     A
C1279  C1318   1.515   .     S
C1279  C1130   1.431   1_655 S
C1280  O1297   1.293   .     A
C1280  O1296   1.295   .     A
C1281  O1299   1.301   .     A
C1281  C1283   1.475   .     S
C1281  O1298   1.311   .     A
C1284  C1327   1.498   .     S
C1284  C619    1.394   1_556 S
C1285  C1286   1.381   .     A
C1285  H1331   1.083   .     S
C1286  H1288   1.080   .     S
N1290  Zn1300  2.035   .     S
N1291  Zn1301  2.035   .     S
O1292  Zn1300  1.998   .     S
O1293  Zn1301  2.002   .     S
O1294  Zn1300  1.951   .     S
O1295  Zn1301  1.889   .     S
O1296  Zn1300  2.002   .     S
O1297  Zn1301  1.998   .     S
O1298  Zn1300  1.889   .     S
O1299  Zn1301  1.951   .     S
C1302  H1305   1.105   .     S
C1302  H1303   1.109   .     S
C1302  H1304   1.110   .     S
C1310  H1313   1.111   .     S
C1310  H1312   1.110   .     S
C1310  H1311   1.091   .     S
C1314  H1317   1.107   .     S
C1314  H1315   1.083   .     S
C1314  H1316   1.110   .     S
C1318  H1321   1.110   .     S
C1318  H1320   1.110   .     S
C1318  H1319   1.082   .     S
C1322  H1323   1.110   .     S
C1322  H1324   1.110   .     S
C1322  C616    1.520   1_556 S
C1322  H659    1.106   1_556 S
C1327  H1330   1.106   .     S
C1327  H1328   1.109   .     S
C1327  H1329   1.111   .     S
