data_str_m3_o1_o5_pcu_sym.18
_audit_creation_date              2020-01-03
_audit_creation_method            'Materials Studio'
_symmetry_space_group_name_H-M    'P1'
_symmetry_Int_Tables_number       1
_symmetry_cell_setting            triclinic
loop_
_symmetry_equiv_pos_as_xyz
  x,y,z
_cell_length_a                    31.9055
_cell_length_b                    29.8802
_cell_length_c                    26.6784
_cell_angle_alpha                 90.5377
_cell_angle_beta                  91.6152
_cell_angle_gamma                 91.5872
loop_
_atom_site_label
_atom_site_type_symbol
_atom_site_fract_x
_atom_site_fract_y
_atom_site_fract_z
_atom_site_U_iso_or_equiv
_atom_site_adp_type
_atom_site_occupancy
C1     C     0.08636   0.16656   0.16502   0.00000  Uiso   1.00
C2     C     0.01946   0.20455   0.17783   0.00000  Uiso   1.00
C3     C     0.28980   0.16999   0.14867   0.00000  Uiso   1.00
C4     C     0.04144   0.16802   0.15723   0.00000  Uiso   1.00
C5     C     0.19090   0.02484   0.20076   0.00000  Uiso   1.00
C6     C     0.14201   0.30820   0.13339   0.00000  Uiso   1.00
C7     C     0.14346   0.02235   0.13190   0.00000  Uiso   1.00
C8     C     0.19160   0.31041   0.19997   0.00000  Uiso   1.00
C9     C     0.04364   0.11684   0.07908   0.00000  Uiso   1.00
C10    C     0.03745   0.14032   0.02843   0.00000  Uiso   1.00
C11    C     0.05090   0.11037   0.31868   0.00000  Uiso   1.00
C12    C     0.24624   0.16734   0.16118   0.00000  Uiso   1.00
C13    C     0.30385   0.25045   0.12775   0.00000  Uiso   1.00
C14    C     0.32020   0.24260   0.07465   0.00000  Uiso   1.00
C15    C     0.31092   0.28109   0.03953   0.00000  Uiso   1.00
C16    C     0.28404   0.10265   0.08932   0.00000  Uiso   1.00
C17    C     0.27959   0.05687   0.11410   0.00000  Uiso   1.00
C18    C     0.24655   0.02811   0.08547   0.00000  Uiso   1.00
C19    C     0.03821   0.24121   0.21267   0.00000  Uiso   1.00
C20    C     0.05514   0.22289   0.26255   0.00000  Uiso   1.00
C21    C     0.08069   0.25867   0.29196   0.00000  Uiso   1.00
C22    C     0.16643   0.16653   0.07300   0.00000  Uiso   1.00
C23    C     0.16670   0.16680   0.26033   0.00000  Uiso   1.00
C24    C     0.16642   0.16648   0.02182   0.00000  Uiso   1.00
C25    C     0.16651   0.16686   0.31150   0.00000  Uiso   1.00
C26    C     0.02047   0.13912   0.12113   0.00000  Uiso   1.00
C27    C     0.31208   0.20973   0.16033   0.00000  Uiso   1.00
C28    C     0.30967   0.13619   0.12181   0.00000  Uiso   1.00
Cl29   Cl    0.22304   0.05469   0.24494   0.00000  Uiso   1.00
Cl30   Cl    0.10809   0.27789   0.09168   0.00000  Uiso   1.00
Cl31   Cl    0.11912   0.04738   0.08043   0.00000  Uiso   1.00
Cl32   Cl    0.22551   0.28273   0.24175   0.00000  Uiso   1.00
H33    H     0.08511   0.10457   0.32186   0.00000  Uiso   1.00
H34    H     0.32449   0.27436   0.00248   0.00000  Uiso   1.00
H35    H     0.02129   0.23794   0.07667   0.00000  Uiso   1.00
H36    H     0.30493   0.21189   0.05801   0.00000  Uiso   1.00
H37    H     0.26999   0.25730   0.12480   0.00000  Uiso   1.00
H38    H     0.31945   0.28109   0.14420   0.00000  Uiso   1.00
H39    H     0.21602   0.04486   0.08493   0.00000  Uiso   1.00
H40    H     0.25578   0.02336   0.04604   0.00000  Uiso   1.00
H41    H     0.24273   0.32848   0.10373   0.00000  Uiso   1.00
H42    H     0.31009   0.03986   0.11422   0.00000  Uiso   1.00
H43    H     0.27029   0.06047   0.15359   0.00000  Uiso   1.00
H44    H     0.03347   0.07768   0.31910   0.00000  Uiso   1.00
H45    H     0.25264   0.11611   0.08036   0.00000  Uiso   1.00
H46    H     0.29767   0.09763   0.05215   0.00000  Uiso   1.00
H47    H     0.10775   0.27067   0.26993   0.00000  Uiso   1.00
H48    H     0.06096   0.28748   0.30115   0.00000  Uiso   1.00
H49    H     0.09297   0.24398   0.32722   0.00000  Uiso   1.00
H50    H     0.02834   0.21124   0.28522   0.00000  Uiso   1.00
H51    H     0.07563   0.19417   0.25657   0.00000  Uiso   1.00
H52    H     0.06233   0.26148   0.19326   0.00000  Uiso   1.00
H53    H     0.01371   0.26536   0.22243   0.00000  Uiso   1.00
H54    H     0.04385   0.12642   0.28222   0.00000  Uiso   1.00
H55    H     0.00450   0.14964   0.02123   0.00000  Uiso   1.00
H56    H     0.05673   0.17190   0.02873   0.00000  Uiso   1.00
H57    H     0.07759   0.11896   0.08613   0.00000  Uiso   1.00
H58    H     0.03419   0.08083   0.07660   0.00000  Uiso   1.00
H59    H     0.27651   0.28372   0.03382   0.00000  Uiso   1.00
H60    H     0.32493   0.31294   0.05483   0.00000  Uiso   1.00
N61    N     0.16667   0.28573   0.16667   0.00000  Uiso   1.00
N62    N     0.16667   0.04760   0.16667   0.00000  Uiso   1.00
O63    O     0.10559   0.20487   0.16666   0.00000  Uiso   1.00
O64    O     0.22774   0.12846   0.16667   0.00000  Uiso   1.00
O65    O     0.22774   0.20487   0.16667   0.00000  Uiso   1.00
O66    O     0.10559   0.12846   0.16666   0.00000  Uiso   1.00
O67    O     0.16667   0.20488   0.09511   0.00000  Uiso   1.00
O68    O     0.16666   0.12845   0.23822   0.00000  Uiso   1.00
O69    O     0.16666   0.20488   0.23822   0.00000  Uiso   1.00
O70    O     0.16667   0.12845   0.09511   0.00000  Uiso   1.00
Zn71   Zn    0.16667   0.21771   0.16667   0.00000  Uiso   1.00
Zn72   Zn    0.16667   0.11563   0.16667   0.00000  Uiso   1.00
C73    C     0.41969   0.16656   0.16502   0.00000  Uiso   1.00
C74    C     0.35279   0.20455   0.17783   0.00000  Uiso   1.00
C75    C     0.62313   0.16999   0.14867   0.00000  Uiso   1.00
C76    C     0.37477   0.16802   0.15723   0.00000  Uiso   1.00
C77    C     0.52423   0.02484   0.20076   0.00000  Uiso   1.00
C78    C     0.47535   0.30820   0.13339   0.00000  Uiso   1.00
C79    C     0.47679   0.02235   0.13190   0.00000  Uiso   1.00
C80    C     0.52493   0.31041   0.19997   0.00000  Uiso   1.00
C81    C     0.37698   0.11684   0.07908   0.00000  Uiso   1.00
C82    C     0.37079   0.14032   0.02843   0.00000  Uiso   1.00
C83    C     0.38424   0.11037   0.31868   0.00000  Uiso   1.00
C84    C     0.57957   0.16734   0.16118   0.00000  Uiso   1.00
C85    C     0.63719   0.25045   0.12775   0.00000  Uiso   1.00
C86    C     0.65353   0.24260   0.07465   0.00000  Uiso   1.00
C87    C     0.64425   0.28109   0.03953   0.00000  Uiso   1.00
C88    C     0.61738   0.10265   0.08932   0.00000  Uiso   1.00
C89    C     0.61293   0.05687   0.11410   0.00000  Uiso   1.00
C90    C     0.57989   0.02811   0.08547   0.00000  Uiso   1.00
C91    C     0.37154   0.24121   0.21267   0.00000  Uiso   1.00
C92    C     0.38847   0.22289   0.26255   0.00000  Uiso   1.00
C93    C     0.41403   0.25867   0.29196   0.00000  Uiso   1.00
C94    C     0.49976   0.16653   0.07300   0.00000  Uiso   1.00
C95    C     0.50003   0.16680   0.26033   0.00000  Uiso   1.00
C96    C     0.49975   0.16648   0.02182   0.00000  Uiso   1.00
C97    C     0.49985   0.16686   0.31150   0.00000  Uiso   1.00
C98    C     0.35380   0.13912   0.12113   0.00000  Uiso   1.00
C99    C     0.64541   0.20973   0.16033   0.00000  Uiso   1.00
C100   C     0.64301   0.13619   0.12181   0.00000  Uiso   1.00
Cl101  Cl    0.55637   0.05469   0.24494   0.00000  Uiso   1.00
Cl102  Cl    0.44142   0.27789   0.09168   0.00000  Uiso   1.00
Cl103  Cl    0.45245   0.04738   0.08043   0.00000  Uiso   1.00
Cl104  Cl    0.55884   0.28273   0.24175   0.00000  Uiso   1.00
H105   H     0.41844   0.10457   0.32186   0.00000  Uiso   1.00
H106   H     0.65782   0.27436   0.00248   0.00000  Uiso   1.00
H107   H     0.35462   0.23794   0.07667   0.00000  Uiso   1.00
H108   H     0.63826   0.21189   0.05801   0.00000  Uiso   1.00
H109   H     0.60332   0.25730   0.12480   0.00000  Uiso   1.00
H110   H     0.65278   0.28109   0.14420   0.00000  Uiso   1.00
H111   H     0.54935   0.04486   0.08493   0.00000  Uiso   1.00
H112   H     0.58912   0.02336   0.04604   0.00000  Uiso   1.00
H113   H     0.57607   0.32848   0.10373   0.00000  Uiso   1.00
H114   H     0.64342   0.03986   0.11422   0.00000  Uiso   1.00
H115   H     0.60363   0.06047   0.15359   0.00000  Uiso   1.00
H116   H     0.36680   0.07768   0.31910   0.00000  Uiso   1.00
H117   H     0.58598   0.11611   0.08036   0.00000  Uiso   1.00
H118   H     0.63100   0.09763   0.05215   0.00000  Uiso   1.00
H119   H     0.44108   0.27067   0.26993   0.00000  Uiso   1.00
H120   H     0.39429   0.28748   0.30115   0.00000  Uiso   1.00
H121   H     0.42630   0.24398   0.32722   0.00000  Uiso   1.00
H122   H     0.36168   0.21124   0.28522   0.00000  Uiso   1.00
H123   H     0.40897   0.19417   0.25657   0.00000  Uiso   1.00
H124   H     0.39566   0.26148   0.19326   0.00000  Uiso   1.00
H125   H     0.34704   0.26536   0.22243   0.00000  Uiso   1.00
H126   H     0.37719   0.12642   0.28222   0.00000  Uiso   1.00
H127   H     0.33783   0.14964   0.02123   0.00000  Uiso   1.00
H128   H     0.39007   0.17190   0.02873   0.00000  Uiso   1.00
H129   H     0.41092   0.11896   0.08613   0.00000  Uiso   1.00
H130   H     0.36753   0.08083   0.07660   0.00000  Uiso   1.00
H131   H     0.60985   0.28372   0.03382   0.00000  Uiso   1.00
H132   H     0.65826   0.31294   0.05483   0.00000  Uiso   1.00
N133   N     0.50000   0.28573   0.16667   0.00000  Uiso   1.00
N134   N     0.50000   0.04760   0.16667   0.00000  Uiso   1.00
O135   O     0.43892   0.20487   0.16666   0.00000  Uiso   1.00
O136   O     0.56108   0.12846   0.16667   0.00000  Uiso   1.00
O137   O     0.56108   0.20487   0.16667   0.00000  Uiso   1.00
O138   O     0.43892   0.12846   0.16666   0.00000  Uiso   1.00
O139   O     0.50000   0.20488   0.09511   0.00000  Uiso   1.00
O140   O     0.50000   0.12845   0.23822   0.00000  Uiso   1.00
O141   O     0.50000   0.20488   0.23822   0.00000  Uiso   1.00
O142   O     0.50000   0.12845   0.09511   0.00000  Uiso   1.00
Zn143  Zn    0.50000   0.21771   0.16667   0.00000  Uiso   1.00
Zn144  Zn    0.50000   0.11563   0.16667   0.00000  Uiso   1.00
C145   C     0.75302   0.16656   0.16502   0.00000  Uiso   1.00
C146   C     0.68612   0.20455   0.17783   0.00000  Uiso   1.00
C147   C     0.95646   0.16999   0.14867   0.00000  Uiso   1.00
C148   C     0.70810   0.16802   0.15723   0.00000  Uiso   1.00
C149   C     0.85757   0.02484   0.20076   0.00000  Uiso   1.00
C150   C     0.80868   0.30820   0.13339   0.00000  Uiso   1.00
C151   C     0.81012   0.02235   0.13190   0.00000  Uiso   1.00
C152   C     0.85826   0.31041   0.19997   0.00000  Uiso   1.00
C153   C     0.71031   0.11684   0.07908   0.00000  Uiso   1.00
C154   C     0.70412   0.14032   0.02843   0.00000  Uiso   1.00
C155   C     0.71757   0.11037   0.31868   0.00000  Uiso   1.00
C156   C     0.91291   0.16734   0.16118   0.00000  Uiso   1.00
C157   C     0.97052   0.25045   0.12775   0.00000  Uiso   1.00
C158   C     0.98687   0.24260   0.07465   0.00000  Uiso   1.00
C159   C     0.97758   0.28109   0.03953   0.00000  Uiso   1.00
C160   C     0.95071   0.10265   0.08932   0.00000  Uiso   1.00
C161   C     0.94626   0.05687   0.11410   0.00000  Uiso   1.00
C162   C     0.91322   0.02811   0.08547   0.00000  Uiso   1.00
C163   C     0.70488   0.24121   0.21267   0.00000  Uiso   1.00
C164   C     0.72180   0.22289   0.26255   0.00000  Uiso   1.00
C165   C     0.74736   0.25867   0.29196   0.00000  Uiso   1.00
C166   C     0.83310   0.16653   0.07300   0.00000  Uiso   1.00
C167   C     0.83336   0.16680   0.26033   0.00000  Uiso   1.00
C168   C     0.83308   0.16648   0.02182   0.00000  Uiso   1.00
C169   C     0.83318   0.16686   0.31150   0.00000  Uiso   1.00
C170   C     0.68714   0.13912   0.12113   0.00000  Uiso   1.00
C171   C     0.97875   0.20973   0.16033   0.00000  Uiso   1.00
C172   C     0.97634   0.13619   0.12181   0.00000  Uiso   1.00
Cl173  Cl    0.88971   0.05469   0.24494   0.00000  Uiso   1.00
Cl174  Cl    0.77476   0.27789   0.09168   0.00000  Uiso   1.00
Cl175  Cl    0.78578   0.04738   0.08043   0.00000  Uiso   1.00
Cl176  Cl    0.89218   0.28273   0.24175   0.00000  Uiso   1.00
H177   H     0.75178   0.10457   0.32186   0.00000  Uiso   1.00
H178   H     0.99115   0.27436   0.00248   0.00000  Uiso   1.00
H179   H     0.68796   0.23794   0.07667   0.00000  Uiso   1.00
H180   H     0.97160   0.21189   0.05801   0.00000  Uiso   1.00
H181   H     0.93666   0.25730   0.12480   0.00000  Uiso   1.00
H182   H     0.98612   0.28109   0.14420   0.00000  Uiso   1.00
H183   H     0.88269   0.04486   0.08493   0.00000  Uiso   1.00
H184   H     0.92245   0.02336   0.04604   0.00000  Uiso   1.00
H185   H     0.90940   0.32848   0.10373   0.00000  Uiso   1.00
H186   H     0.97676   0.03986   0.11422   0.00000  Uiso   1.00
H187   H     0.93696   0.06047   0.15359   0.00000  Uiso   1.00
H188   H     0.70013   0.07768   0.31910   0.00000  Uiso   1.00
H189   H     0.91931   0.11611   0.08036   0.00000  Uiso   1.00
H190   H     0.96433   0.09763   0.05215   0.00000  Uiso   1.00
H191   H     0.77442   0.27067   0.26993   0.00000  Uiso   1.00
H192   H     0.72762   0.28748   0.30115   0.00000  Uiso   1.00
H193   H     0.75963   0.24398   0.32722   0.00000  Uiso   1.00
H194   H     0.69501   0.21124   0.28522   0.00000  Uiso   1.00
H195   H     0.74230   0.19417   0.25657   0.00000  Uiso   1.00
H196   H     0.72900   0.26148   0.19326   0.00000  Uiso   1.00
H197   H     0.68038   0.26536   0.22243   0.00000  Uiso   1.00
H198   H     0.71052   0.12642   0.28222   0.00000  Uiso   1.00
H199   H     0.67117   0.14964   0.02123   0.00000  Uiso   1.00
H200   H     0.72340   0.17190   0.02873   0.00000  Uiso   1.00
H201   H     0.74425   0.11896   0.08613   0.00000  Uiso   1.00
H202   H     0.70086   0.08083   0.07660   0.00000  Uiso   1.00
H203   H     0.94318   0.28372   0.03382   0.00000  Uiso   1.00
H204   H     0.99160   0.31294   0.05483   0.00000  Uiso   1.00
N205   N     0.83333   0.28573   0.16667   0.00000  Uiso   1.00
N206   N     0.83333   0.04760   0.16667   0.00000  Uiso   1.00
O207   O     0.77226   0.20487   0.16666   0.00000  Uiso   1.00
O208   O     0.89441   0.12846   0.16667   0.00000  Uiso   1.00
O209   O     0.89441   0.20487   0.16667   0.00000  Uiso   1.00
O210   O     0.77226   0.12846   0.16666   0.00000  Uiso   1.00
O211   O     0.83334   0.20488   0.09511   0.00000  Uiso   1.00
O212   O     0.83333   0.12845   0.23822   0.00000  Uiso   1.00
O213   O     0.83333   0.20488   0.23822   0.00000  Uiso   1.00
O214   O     0.83334   0.12845   0.09511   0.00000  Uiso   1.00
Zn215  Zn    0.83333   0.21771   0.16667   0.00000  Uiso   1.00
Zn216  Zn    0.83333   0.11563   0.16667   0.00000  Uiso   1.00
C217   C     0.08636   0.49989   0.16502   0.00000  Uiso   1.00
C218   C     0.01946   0.53789   0.17783   0.00000  Uiso   1.00
C219   C     0.28980   0.50332   0.14867   0.00000  Uiso   1.00
C220   C     0.04144   0.50135   0.15723   0.00000  Uiso   1.00
C221   C     0.19090   0.35817   0.20076   0.00000  Uiso   1.00
C222   C     0.14201   0.64153   0.13339   0.00000  Uiso   1.00
C223   C     0.14346   0.35568   0.13190   0.00000  Uiso   1.00
C224   C     0.19160   0.64374   0.19997   0.00000  Uiso   1.00
C225   C     0.04364   0.45017   0.07908   0.00000  Uiso   1.00
C226   C     0.03745   0.47366   0.02843   0.00000  Uiso   1.00
C227   C     0.05090   0.44371   0.31868   0.00000  Uiso   1.00
C228   C     0.24624   0.50068   0.16118   0.00000  Uiso   1.00
C229   C     0.30385   0.58379   0.12775   0.00000  Uiso   1.00
C230   C     0.32020   0.57593   0.07465   0.00000  Uiso   1.00
C231   C     0.31092   0.61442   0.03953   0.00000  Uiso   1.00
C232   C     0.28404   0.43599   0.08932   0.00000  Uiso   1.00
C233   C     0.27959   0.39021   0.11410   0.00000  Uiso   1.00
C234   C     0.24655   0.36145   0.08547   0.00000  Uiso   1.00
C235   C     0.03821   0.57454   0.21267   0.00000  Uiso   1.00
C236   C     0.05514   0.55622   0.26255   0.00000  Uiso   1.00
C237   C     0.08069   0.59201   0.29196   0.00000  Uiso   1.00
C238   C     0.16643   0.49986   0.07300   0.00000  Uiso   1.00
C239   C     0.16670   0.50014   0.26033   0.00000  Uiso   1.00
C240   C     0.16642   0.49981   0.02182   0.00000  Uiso   1.00
C241   C     0.16651   0.50020   0.31150   0.00000  Uiso   1.00
C242   C     0.02047   0.47245   0.12113   0.00000  Uiso   1.00
C243   C     0.31208   0.54306   0.16033   0.00000  Uiso   1.00
C244   C     0.30967   0.46952   0.12181   0.00000  Uiso   1.00
Cl245  Cl    0.22304   0.38802   0.24494   0.00000  Uiso   1.00
Cl246  Cl    0.10809   0.61122   0.09168   0.00000  Uiso   1.00
Cl247  Cl    0.11912   0.38072   0.08043   0.00000  Uiso   1.00
Cl248  Cl    0.22551   0.61606   0.24175   0.00000  Uiso   1.00
H249   H     0.08511   0.43790   0.32186   0.00000  Uiso   1.00
H250   H     0.32449   0.60769   0.00248   0.00000  Uiso   1.00
H251   H     0.02129   0.57128   0.07667   0.00000  Uiso   1.00
H252   H     0.30493   0.54522   0.05801   0.00000  Uiso   1.00
H253   H     0.26999   0.59064   0.12480   0.00000  Uiso   1.00
H254   H     0.31945   0.61442   0.14420   0.00000  Uiso   1.00
H255   H     0.21602   0.37819   0.08493   0.00000  Uiso   1.00
H256   H     0.25578   0.35669   0.04604   0.00000  Uiso   1.00
H257   H     0.24273   0.66181   0.10373   0.00000  Uiso   1.00
H258   H     0.31009   0.37319   0.11422   0.00000  Uiso   1.00
H259   H     0.27029   0.39381   0.15359   0.00000  Uiso   1.00
H260   H     0.03347   0.41101   0.31910   0.00000  Uiso   1.00
H261   H     0.25264   0.44945   0.08036   0.00000  Uiso   1.00
H262   H     0.29767   0.43096   0.05215   0.00000  Uiso   1.00
H263   H     0.10775   0.60400   0.26993   0.00000  Uiso   1.00
H264   H     0.06096   0.62082   0.30115   0.00000  Uiso   1.00
H265   H     0.09297   0.57731   0.32722   0.00000  Uiso   1.00
H266   H     0.02834   0.54457   0.28522   0.00000  Uiso   1.00
H267   H     0.07563   0.52751   0.25657   0.00000  Uiso   1.00
H268   H     0.06233   0.59482   0.19326   0.00000  Uiso   1.00
H269   H     0.01371   0.59870   0.22243   0.00000  Uiso   1.00
H270   H     0.04385   0.45976   0.28222   0.00000  Uiso   1.00
H271   H     0.00450   0.48297   0.02123   0.00000  Uiso   1.00
H272   H     0.05673   0.50523   0.02873   0.00000  Uiso   1.00
H273   H     0.07759   0.45229   0.08613   0.00000  Uiso   1.00
H274   H     0.03419   0.41416   0.07660   0.00000  Uiso   1.00
H275   H     0.27651   0.61706   0.03382   0.00000  Uiso   1.00
H276   H     0.32493   0.64628   0.05483   0.00000  Uiso   1.00
N277   N     0.16667   0.61907   0.16667   0.00000  Uiso   1.00
N278   N     0.16667   0.38093   0.16667   0.00000  Uiso   1.00
O279   O     0.10559   0.53821   0.16666   0.00000  Uiso   1.00
O280   O     0.22774   0.46179   0.16667   0.00000  Uiso   1.00
O281   O     0.22774   0.53821   0.16667   0.00000  Uiso   1.00
O282   O     0.10559   0.46179   0.16666   0.00000  Uiso   1.00
O283   O     0.16667   0.53821   0.09511   0.00000  Uiso   1.00
O284   O     0.16666   0.46179   0.23822   0.00000  Uiso   1.00
O285   O     0.16666   0.53821   0.23822   0.00000  Uiso   1.00
O286   O     0.16667   0.46179   0.09511   0.00000  Uiso   1.00
Zn287  Zn    0.16667   0.55104   0.16667   0.00000  Uiso   1.00
Zn288  Zn    0.16667   0.44896   0.16667   0.00000  Uiso   1.00
C289   C     0.41969   0.49989   0.16502   0.00000  Uiso   1.00
C290   C     0.35279   0.53789   0.17783   0.00000  Uiso   1.00
C291   C     0.62313   0.50332   0.14867   0.00000  Uiso   1.00
C292   C     0.37477   0.50135   0.15723   0.00000  Uiso   1.00
C293   C     0.52423   0.35817   0.20076   0.00000  Uiso   1.00
C294   C     0.47535   0.64153   0.13339   0.00000  Uiso   1.00
C295   C     0.47679   0.35568   0.13190   0.00000  Uiso   1.00
C296   C     0.52493   0.64374   0.19997   0.00000  Uiso   1.00
C297   C     0.37698   0.45017   0.07908   0.00000  Uiso   1.00
C298   C     0.37079   0.47366   0.02843   0.00000  Uiso   1.00
C299   C     0.38424   0.44371   0.31868   0.00000  Uiso   1.00
C300   C     0.57957   0.50068   0.16118   0.00000  Uiso   1.00
C301   C     0.63719   0.58379   0.12775   0.00000  Uiso   1.00
C302   C     0.65353   0.57593   0.07465   0.00000  Uiso   1.00
C303   C     0.64425   0.61442   0.03953   0.00000  Uiso   1.00
C304   C     0.61738   0.43599   0.08932   0.00000  Uiso   1.00
C305   C     0.61293   0.39021   0.11410   0.00000  Uiso   1.00
C306   C     0.57989   0.36145   0.08547   0.00000  Uiso   1.00
C307   C     0.37154   0.57454   0.21267   0.00000  Uiso   1.00
C308   C     0.38847   0.55622   0.26255   0.00000  Uiso   1.00
C309   C     0.41403   0.59201   0.29196   0.00000  Uiso   1.00
C310   C     0.49976   0.49986   0.07300   0.00000  Uiso   1.00
C311   C     0.50003   0.50014   0.26033   0.00000  Uiso   1.00
C312   C     0.49975   0.49981   0.02182   0.00000  Uiso   1.00
C313   C     0.49985   0.50020   0.31150   0.00000  Uiso   1.00
C314   C     0.35380   0.47245   0.12113   0.00000  Uiso   1.00
C315   C     0.64541   0.54306   0.16033   0.00000  Uiso   1.00
C316   C     0.64301   0.46952   0.12181   0.00000  Uiso   1.00
Cl317  Cl    0.55637   0.38802   0.24494   0.00000  Uiso   1.00
Cl318  Cl    0.44142   0.61122   0.09168   0.00000  Uiso   1.00
Cl319  Cl    0.45245   0.38072   0.08043   0.00000  Uiso   1.00
Cl320  Cl    0.55884   0.61606   0.24175   0.00000  Uiso   1.00
H321   H     0.41844   0.43790   0.32186   0.00000  Uiso   1.00
H322   H     0.65782   0.60769   0.00248   0.00000  Uiso   1.00
H323   H     0.35462   0.57128   0.07667   0.00000  Uiso   1.00
H324   H     0.63826   0.54522   0.05801   0.00000  Uiso   1.00
H325   H     0.60332   0.59064   0.12480   0.00000  Uiso   1.00
H326   H     0.65278   0.61442   0.14420   0.00000  Uiso   1.00
H327   H     0.54935   0.37819   0.08493   0.00000  Uiso   1.00
H328   H     0.58912   0.35669   0.04604   0.00000  Uiso   1.00
H329   H     0.57607   0.66181   0.10373   0.00000  Uiso   1.00
H330   H     0.64342   0.37319   0.11422   0.00000  Uiso   1.00
H331   H     0.60363   0.39381   0.15359   0.00000  Uiso   1.00
H332   H     0.36680   0.41101   0.31910   0.00000  Uiso   1.00
H333   H     0.58598   0.44945   0.08036   0.00000  Uiso   1.00
H334   H     0.63100   0.43096   0.05215   0.00000  Uiso   1.00
H335   H     0.44108   0.60400   0.26993   0.00000  Uiso   1.00
H336   H     0.39429   0.62082   0.30115   0.00000  Uiso   1.00
H337   H     0.42630   0.57731   0.32722   0.00000  Uiso   1.00
H338   H     0.36168   0.54457   0.28522   0.00000  Uiso   1.00
H339   H     0.40897   0.52751   0.25657   0.00000  Uiso   1.00
H340   H     0.39566   0.59482   0.19326   0.00000  Uiso   1.00
H341   H     0.34704   0.59870   0.22243   0.00000  Uiso   1.00
H342   H     0.37719   0.45976   0.28222   0.00000  Uiso   1.00
H343   H     0.33783   0.48297   0.02123   0.00000  Uiso   1.00
H344   H     0.39007   0.50523   0.02873   0.00000  Uiso   1.00
H345   H     0.41092   0.45229   0.08613   0.00000  Uiso   1.00
H346   H     0.36753   0.41416   0.07660   0.00000  Uiso   1.00
H347   H     0.60985   0.61706   0.03382   0.00000  Uiso   1.00
H348   H     0.65826   0.64628   0.05483   0.00000  Uiso   1.00
N349   N     0.50000   0.61907   0.16667   0.00000  Uiso   1.00
N350   N     0.50000   0.38093   0.16667   0.00000  Uiso   1.00
O351   O     0.43892   0.53821   0.16666   0.00000  Uiso   1.00
O352   O     0.56108   0.46179   0.16667   0.00000  Uiso   1.00
O353   O     0.56108   0.53821   0.16667   0.00000  Uiso   1.00
O354   O     0.43892   0.46179   0.16666   0.00000  Uiso   1.00
O355   O     0.50000   0.53821   0.09511   0.00000  Uiso   1.00
O356   O     0.50000   0.46179   0.23822   0.00000  Uiso   1.00
O357   O     0.50000   0.53821   0.23822   0.00000  Uiso   1.00
O358   O     0.50000   0.46179   0.09511   0.00000  Uiso   1.00
Zn359  Zn    0.50000   0.55104   0.16667   0.00000  Uiso   1.00
Zn360  Zn    0.50000   0.44896   0.16667   0.00000  Uiso   1.00
C361   C     0.75302   0.49989   0.16502   0.00000  Uiso   1.00
C362   C     0.68612   0.53789   0.17783   0.00000  Uiso   1.00
C363   C     0.95646   0.50332   0.14867   0.00000  Uiso   1.00
C364   C     0.70810   0.50135   0.15723   0.00000  Uiso   1.00
C365   C     0.85757   0.35817   0.20076   0.00000  Uiso   1.00
C366   C     0.80868   0.64153   0.13339   0.00000  Uiso   1.00
C367   C     0.81012   0.35568   0.13190   0.00000  Uiso   1.00
C368   C     0.85826   0.64374   0.19997   0.00000  Uiso   1.00
C369   C     0.71031   0.45017   0.07908   0.00000  Uiso   1.00
C370   C     0.70412   0.47366   0.02843   0.00000  Uiso   1.00
C371   C     0.71757   0.44371   0.31868   0.00000  Uiso   1.00
C372   C     0.91291   0.50068   0.16118   0.00000  Uiso   1.00
C373   C     0.97052   0.58379   0.12775   0.00000  Uiso   1.00
C374   C     0.98687   0.57593   0.07465   0.00000  Uiso   1.00
C375   C     0.97758   0.61442   0.03953   0.00000  Uiso   1.00
C376   C     0.95071   0.43599   0.08932   0.00000  Uiso   1.00
C377   C     0.94626   0.39021   0.11410   0.00000  Uiso   1.00
C378   C     0.91322   0.36145   0.08547   0.00000  Uiso   1.00
C379   C     0.70488   0.57454   0.21267   0.00000  Uiso   1.00
C380   C     0.72180   0.55622   0.26255   0.00000  Uiso   1.00
C381   C     0.74736   0.59201   0.29196   0.00000  Uiso   1.00
C382   C     0.83310   0.49986   0.07300   0.00000  Uiso   1.00
C383   C     0.83336   0.50014   0.26033   0.00000  Uiso   1.00
C384   C     0.83308   0.49981   0.02182   0.00000  Uiso   1.00
C385   C     0.83318   0.50020   0.31150   0.00000  Uiso   1.00
C386   C     0.68714   0.47245   0.12113   0.00000  Uiso   1.00
C387   C     0.97875   0.54306   0.16033   0.00000  Uiso   1.00
C388   C     0.97634   0.46952   0.12181   0.00000  Uiso   1.00
Cl389  Cl    0.88971   0.38802   0.24494   0.00000  Uiso   1.00
Cl390  Cl    0.77476   0.61122   0.09168   0.00000  Uiso   1.00
Cl391  Cl    0.78578   0.38072   0.08043   0.00000  Uiso   1.00
Cl392  Cl    0.89218   0.61606   0.24175   0.00000  Uiso   1.00
H393   H     0.75178   0.43790   0.32186   0.00000  Uiso   1.00
H394   H     0.99115   0.60769   0.00248   0.00000  Uiso   1.00
H395   H     0.68796   0.57128   0.07667   0.00000  Uiso   1.00
H396   H     0.97160   0.54522   0.05801   0.00000  Uiso   1.00
H397   H     0.93666   0.59064   0.12480   0.00000  Uiso   1.00
H398   H     0.98612   0.61442   0.14420   0.00000  Uiso   1.00
H399   H     0.88269   0.37819   0.08493   0.00000  Uiso   1.00
H400   H     0.92245   0.35669   0.04604   0.00000  Uiso   1.00
H401   H     0.90940   0.66181   0.10373   0.00000  Uiso   1.00
H402   H     0.97676   0.37319   0.11422   0.00000  Uiso   1.00
H403   H     0.93696   0.39381   0.15359   0.00000  Uiso   1.00
H404   H     0.70013   0.41101   0.31910   0.00000  Uiso   1.00
H405   H     0.91931   0.44945   0.08036   0.00000  Uiso   1.00
H406   H     0.96433   0.43096   0.05215   0.00000  Uiso   1.00
H407   H     0.77442   0.60400   0.26993   0.00000  Uiso   1.00
H408   H     0.72762   0.62082   0.30115   0.00000  Uiso   1.00
H409   H     0.75963   0.57731   0.32722   0.00000  Uiso   1.00
H410   H     0.69501   0.54457   0.28522   0.00000  Uiso   1.00
H411   H     0.74230   0.52751   0.25657   0.00000  Uiso   1.00
H412   H     0.72900   0.59482   0.19326   0.00000  Uiso   1.00
H413   H     0.68038   0.59870   0.22243   0.00000  Uiso   1.00
H414   H     0.71052   0.45976   0.28222   0.00000  Uiso   1.00
H415   H     0.67117   0.48297   0.02123   0.00000  Uiso   1.00
H416   H     0.72340   0.50523   0.02873   0.00000  Uiso   1.00
H417   H     0.74425   0.45229   0.08613   0.00000  Uiso   1.00
H418   H     0.70086   0.41416   0.07660   0.00000  Uiso   1.00
H419   H     0.94318   0.61706   0.03382   0.00000  Uiso   1.00
H420   H     0.99160   0.64628   0.05483   0.00000  Uiso   1.00
N421   N     0.83333   0.61907   0.16667   0.00000  Uiso   1.00
N422   N     0.83333   0.38093   0.16667   0.00000  Uiso   1.00
O423   O     0.77226   0.53821   0.16666   0.00000  Uiso   1.00
O424   O     0.89441   0.46179   0.16667   0.00000  Uiso   1.00
O425   O     0.89441   0.53821   0.16667   0.00000  Uiso   1.00
O426   O     0.77226   0.46179   0.16666   0.00000  Uiso   1.00
O427   O     0.83334   0.53821   0.09511   0.00000  Uiso   1.00
O428   O     0.83333   0.46179   0.23822   0.00000  Uiso   1.00
O429   O     0.83333   0.53821   0.23822   0.00000  Uiso   1.00
O430   O     0.83334   0.46179   0.09511   0.00000  Uiso   1.00
Zn431  Zn    0.83333   0.55104   0.16667   0.00000  Uiso   1.00
Zn432  Zn    0.83333   0.44896   0.16667   0.00000  Uiso   1.00
C433   C     0.08636   0.83322   0.16502   0.00000  Uiso   1.00
C434   C     0.01946   0.87122   0.17783   0.00000  Uiso   1.00
C435   C     0.28980   0.83666   0.14867   0.00000  Uiso   1.00
C436   C     0.04144   0.83468   0.15723   0.00000  Uiso   1.00
C437   C     0.19090   0.69150   0.20076   0.00000  Uiso   1.00
C438   C     0.14201   0.97487   0.13339   0.00000  Uiso   1.00
C439   C     0.14346   0.68902   0.13190   0.00000  Uiso   1.00
C440   C     0.19160   0.97708   0.19997   0.00000  Uiso   1.00
C441   C     0.04364   0.78351   0.07908   0.00000  Uiso   1.00
C442   C     0.03745   0.80699   0.02843   0.00000  Uiso   1.00
C443   C     0.05090   0.77704   0.31868   0.00000  Uiso   1.00
C444   C     0.24624   0.83401   0.16118   0.00000  Uiso   1.00
C445   C     0.30385   0.91712   0.12775   0.00000  Uiso   1.00
C446   C     0.32020   0.90927   0.07465   0.00000  Uiso   1.00
C447   C     0.31092   0.94776   0.03953   0.00000  Uiso   1.00
C448   C     0.28404   0.76932   0.08932   0.00000  Uiso   1.00
C449   C     0.27959   0.72354   0.11410   0.00000  Uiso   1.00
C450   C     0.24655   0.69478   0.08547   0.00000  Uiso   1.00
C451   C     0.03821   0.90788   0.21267   0.00000  Uiso   1.00
C452   C     0.05514   0.88956   0.26255   0.00000  Uiso   1.00
C453   C     0.08069   0.92534   0.29196   0.00000  Uiso   1.00
C454   C     0.16643   0.83320   0.07300   0.00000  Uiso   1.00
C455   C     0.16670   0.83347   0.26033   0.00000  Uiso   1.00
C456   C     0.16642   0.83314   0.02182   0.00000  Uiso   1.00
C457   C     0.16651   0.83353   0.31150   0.00000  Uiso   1.00
C458   C     0.02047   0.80579   0.12113   0.00000  Uiso   1.00
C459   C     0.31208   0.87639   0.16033   0.00000  Uiso   1.00
C460   C     0.30967   0.80285   0.12181   0.00000  Uiso   1.00
Cl461  Cl    0.22304   0.72135   0.24494   0.00000  Uiso   1.00
Cl462  Cl    0.10809   0.94456   0.09168   0.00000  Uiso   1.00
Cl463  Cl    0.11912   0.71405   0.08043   0.00000  Uiso   1.00
Cl464  Cl    0.22551   0.94939   0.24175   0.00000  Uiso   1.00
H465   H     0.08511   0.77123   0.32186   0.00000  Uiso   1.00
H466   H     0.32449   0.94102   0.00248   0.00000  Uiso   1.00
H467   H     0.02129   0.90461   0.07667   0.00000  Uiso   1.00
H468   H     0.30493   0.87855   0.05801   0.00000  Uiso   1.00
H469   H     0.26999   0.92397   0.12480   0.00000  Uiso   1.00
H470   H     0.31945   0.94775   0.14420   0.00000  Uiso   1.00
H471   H     0.21602   0.71152   0.08493   0.00000  Uiso   1.00
H472   H     0.25578   0.69002   0.04604   0.00000  Uiso   1.00
H473   H     0.24273   0.99515   0.10373   0.00000  Uiso   1.00
H474   H     0.31009   0.70653   0.11422   0.00000  Uiso   1.00
H475   H     0.27029   0.72714   0.15359   0.00000  Uiso   1.00
H476   H     0.03347   0.74434   0.31910   0.00000  Uiso   1.00
H477   H     0.25264   0.78278   0.08036   0.00000  Uiso   1.00
H478   H     0.29767   0.76430   0.05215   0.00000  Uiso   1.00
H479   H     0.10775   0.93733   0.26993   0.00000  Uiso   1.00
H480   H     0.06096   0.95415   0.30115   0.00000  Uiso   1.00
H481   H     0.09297   0.91064   0.32722   0.00000  Uiso   1.00
H482   H     0.02834   0.87791   0.28522   0.00000  Uiso   1.00
H483   H     0.07563   0.86084   0.25657   0.00000  Uiso   1.00
H484   H     0.06233   0.92815   0.19326   0.00000  Uiso   1.00
H485   H     0.01371   0.93203   0.22243   0.00000  Uiso   1.00
H486   H     0.04385   0.79309   0.28222   0.00000  Uiso   1.00
H487   H     0.00450   0.81630   0.02123   0.00000  Uiso   1.00
H488   H     0.05673   0.83857   0.02873   0.00000  Uiso   1.00
H489   H     0.07759   0.78562   0.08613   0.00000  Uiso   1.00
H490   H     0.03419   0.74749   0.07660   0.00000  Uiso   1.00
H491   H     0.27651   0.95039   0.03382   0.00000  Uiso   1.00
H492   H     0.32493   0.97961   0.05483   0.00000  Uiso   1.00
N493   N     0.16667   0.95240   0.16667   0.00000  Uiso   1.00
N494   N     0.16667   0.71427   0.16667   0.00000  Uiso   1.00
O495   O     0.10559   0.87154   0.16666   0.00000  Uiso   1.00
O496   O     0.22774   0.79513   0.16667   0.00000  Uiso   1.00
O497   O     0.22774   0.87154   0.16667   0.00000  Uiso   1.00
O498   O     0.10559   0.79513   0.16666   0.00000  Uiso   1.00
O499   O     0.16667   0.87155   0.09511   0.00000  Uiso   1.00
O500   O     0.16666   0.79512   0.23822   0.00000  Uiso   1.00
O501   O     0.16666   0.87155   0.23822   0.00000  Uiso   1.00
O502   O     0.16667   0.79512   0.09511   0.00000  Uiso   1.00
Zn503  Zn    0.16667   0.88437   0.16667   0.00000  Uiso   1.00
Zn504  Zn    0.16667   0.78229   0.16667   0.00000  Uiso   1.00
C505   C     0.41969   0.83322   0.16502   0.00000  Uiso   1.00
C506   C     0.35279   0.87122   0.17783   0.00000  Uiso   1.00
C507   C     0.62313   0.83666   0.14867   0.00000  Uiso   1.00
C508   C     0.37477   0.83468   0.15723   0.00000  Uiso   1.00
C509   C     0.52423   0.69150   0.20076   0.00000  Uiso   1.00
C510   C     0.47535   0.97487   0.13339   0.00000  Uiso   1.00
C511   C     0.47679   0.68902   0.13190   0.00000  Uiso   1.00
C512   C     0.52493   0.97708   0.19997   0.00000  Uiso   1.00
C513   C     0.37698   0.78351   0.07908   0.00000  Uiso   1.00
C514   C     0.37079   0.80699   0.02843   0.00000  Uiso   1.00
C515   C     0.38424   0.77704   0.31868   0.00000  Uiso   1.00
C516   C     0.57957   0.83401   0.16118   0.00000  Uiso   1.00
C517   C     0.63719   0.91712   0.12775   0.00000  Uiso   1.00
C518   C     0.65353   0.90927   0.07465   0.00000  Uiso   1.00
C519   C     0.64425   0.94776   0.03953   0.00000  Uiso   1.00
C520   C     0.61738   0.76932   0.08932   0.00000  Uiso   1.00
C521   C     0.61293   0.72354   0.11410   0.00000  Uiso   1.00
C522   C     0.57989   0.69478   0.08547   0.00000  Uiso   1.00
C523   C     0.37154   0.90788   0.21267   0.00000  Uiso   1.00
C524   C     0.38847   0.88956   0.26255   0.00000  Uiso   1.00
C525   C     0.41403   0.92534   0.29196   0.00000  Uiso   1.00
C526   C     0.49976   0.83320   0.07300   0.00000  Uiso   1.00
C527   C     0.50003   0.83347   0.26033   0.00000  Uiso   1.00
C528   C     0.49975   0.83314   0.02182   0.00000  Uiso   1.00
C529   C     0.49985   0.83353   0.31150   0.00000  Uiso   1.00
C530   C     0.35380   0.80579   0.12113   0.00000  Uiso   1.00
C531   C     0.64541   0.87639   0.16033   0.00000  Uiso   1.00
C532   C     0.64301   0.80285   0.12181   0.00000  Uiso   1.00
Cl533  Cl    0.55637   0.72135   0.24494   0.00000  Uiso   1.00
Cl534  Cl    0.44142   0.94456   0.09168   0.00000  Uiso   1.00
Cl535  Cl    0.45245   0.71405   0.08043   0.00000  Uiso   1.00
Cl536  Cl    0.55884   0.94939   0.24175   0.00000  Uiso   1.00
H537   H     0.41844   0.77123   0.32186   0.00000  Uiso   1.00
H538   H     0.65782   0.94102   0.00248   0.00000  Uiso   1.00
H539   H     0.35462   0.90461   0.07667   0.00000  Uiso   1.00
H540   H     0.63826   0.87855   0.05801   0.00000  Uiso   1.00
H541   H     0.60332   0.92397   0.12480   0.00000  Uiso   1.00
H542   H     0.65278   0.94775   0.14420   0.00000  Uiso   1.00
H543   H     0.54935   0.71152   0.08493   0.00000  Uiso   1.00
H544   H     0.58912   0.69002   0.04604   0.00000  Uiso   1.00
H545   H     0.57607   0.99515   0.10373   0.00000  Uiso   1.00
H546   H     0.64342   0.70653   0.11422   0.00000  Uiso   1.00
H547   H     0.60363   0.72714   0.15359   0.00000  Uiso   1.00
H548   H     0.36680   0.74434   0.31910   0.00000  Uiso   1.00
H549   H     0.58598   0.78278   0.08036   0.00000  Uiso   1.00
H550   H     0.63100   0.76430   0.05215   0.00000  Uiso   1.00
H551   H     0.44108   0.93733   0.26993   0.00000  Uiso   1.00
H552   H     0.39429   0.95415   0.30115   0.00000  Uiso   1.00
H553   H     0.42630   0.91064   0.32722   0.00000  Uiso   1.00
H554   H     0.36168   0.87791   0.28522   0.00000  Uiso   1.00
H555   H     0.40897   0.86084   0.25657   0.00000  Uiso   1.00
H556   H     0.39566   0.92815   0.19326   0.00000  Uiso   1.00
H557   H     0.34704   0.93203   0.22243   0.00000  Uiso   1.00
H558   H     0.37719   0.79309   0.28222   0.00000  Uiso   1.00
H559   H     0.33783   0.81630   0.02123   0.00000  Uiso   1.00
H560   H     0.39007   0.83857   0.02873   0.00000  Uiso   1.00
H561   H     0.41092   0.78562   0.08613   0.00000  Uiso   1.00
H562   H     0.36753   0.74749   0.07660   0.00000  Uiso   1.00
H563   H     0.60985   0.95039   0.03382   0.00000  Uiso   1.00
H564   H     0.65826   0.97961   0.05483   0.00000  Uiso   1.00
N565   N     0.50000   0.95240   0.16667   0.00000  Uiso   1.00
N566   N     0.50000   0.71427   0.16667   0.00000  Uiso   1.00
O567   O     0.43892   0.87154   0.16666   0.00000  Uiso   1.00
O568   O     0.56108   0.79513   0.16667   0.00000  Uiso   1.00
O569   O     0.56108   0.87154   0.16667   0.00000  Uiso   1.00
O570   O     0.43892   0.79513   0.16666   0.00000  Uiso   1.00
O571   O     0.50000   0.87155   0.09511   0.00000  Uiso   1.00
O572   O     0.50000   0.79512   0.23822   0.00000  Uiso   1.00
O573   O     0.50000   0.87155   0.23822   0.00000  Uiso   1.00
O574   O     0.50000   0.79512   0.09511   0.00000  Uiso   1.00
Zn575  Zn    0.50000   0.88437   0.16667   0.00000  Uiso   1.00
Zn576  Zn    0.50000   0.78229   0.16667   0.00000  Uiso   1.00
C577   C     0.75302   0.83322   0.16502   0.00000  Uiso   1.00
C578   C     0.68612   0.87122   0.17783   0.00000  Uiso   1.00
C579   C     0.95646   0.83666   0.14867   0.00000  Uiso   1.00
C580   C     0.70810   0.83468   0.15723   0.00000  Uiso   1.00
C581   C     0.85757   0.69150   0.20076   0.00000  Uiso   1.00
C582   C     0.80868   0.97487   0.13339   0.00000  Uiso   1.00
C583   C     0.81012   0.68902   0.13190   0.00000  Uiso   1.00
C584   C     0.85826   0.97708   0.19997   0.00000  Uiso   1.00
C585   C     0.71031   0.78351   0.07908   0.00000  Uiso   1.00
C586   C     0.70412   0.80699   0.02843   0.00000  Uiso   1.00
C587   C     0.71757   0.77704   0.31868   0.00000  Uiso   1.00
C588   C     0.91291   0.83401   0.16118   0.00000  Uiso   1.00
C589   C     0.97052   0.91712   0.12775   0.00000  Uiso   1.00
C590   C     0.98687   0.90927   0.07465   0.00000  Uiso   1.00
C591   C     0.97758   0.94776   0.03953   0.00000  Uiso   1.00
C592   C     0.95071   0.76932   0.08932   0.00000  Uiso   1.00
C593   C     0.94626   0.72354   0.11410   0.00000  Uiso   1.00
C594   C     0.91322   0.69478   0.08547   0.00000  Uiso   1.00
C595   C     0.70488   0.90788   0.21267   0.00000  Uiso   1.00
C596   C     0.72180   0.88956   0.26255   0.00000  Uiso   1.00
C597   C     0.74736   0.92534   0.29196   0.00000  Uiso   1.00
C598   C     0.83310   0.83320   0.07300   0.00000  Uiso   1.00
C599   C     0.83336   0.83347   0.26033   0.00000  Uiso   1.00
C600   C     0.83308   0.83314   0.02182   0.00000  Uiso   1.00
C601   C     0.83318   0.83353   0.31150   0.00000  Uiso   1.00
C602   C     0.68714   0.80579   0.12113   0.00000  Uiso   1.00
C603   C     0.97875   0.87639   0.16033   0.00000  Uiso   1.00
C604   C     0.97634   0.80285   0.12181   0.00000  Uiso   1.00
Cl605  Cl    0.88971   0.72135   0.24494   0.00000  Uiso   1.00
Cl606  Cl    0.77476   0.94456   0.09168   0.00000  Uiso   1.00
Cl607  Cl    0.78578   0.71405   0.08043   0.00000  Uiso   1.00
Cl608  Cl    0.89218   0.94939   0.24175   0.00000  Uiso   1.00
H609   H     0.75178   0.77123   0.32186   0.00000  Uiso   1.00
H610   H     0.99115   0.94102   0.00248   0.00000  Uiso   1.00
H611   H     0.68796   0.90461   0.07667   0.00000  Uiso   1.00
H612   H     0.97160   0.87855   0.05801   0.00000  Uiso   1.00
H613   H     0.93666   0.92397   0.12480   0.00000  Uiso   1.00
H614   H     0.98612   0.94775   0.14420   0.00000  Uiso   1.00
H615   H     0.88269   0.71152   0.08493   0.00000  Uiso   1.00
H616   H     0.92245   0.69002   0.04604   0.00000  Uiso   1.00
H617   H     0.90940   0.99515   0.10373   0.00000  Uiso   1.00
H618   H     0.97676   0.70653   0.11422   0.00000  Uiso   1.00
H619   H     0.93696   0.72714   0.15359   0.00000  Uiso   1.00
H620   H     0.70013   0.74434   0.31910   0.00000  Uiso   1.00
H621   H     0.91931   0.78278   0.08036   0.00000  Uiso   1.00
H622   H     0.96433   0.76430   0.05215   0.00000  Uiso   1.00
H623   H     0.77442   0.93733   0.26993   0.00000  Uiso   1.00
H624   H     0.72762   0.95415   0.30115   0.00000  Uiso   1.00
H625   H     0.75963   0.91064   0.32722   0.00000  Uiso   1.00
H626   H     0.69501   0.87791   0.28522   0.00000  Uiso   1.00
H627   H     0.74230   0.86084   0.25657   0.00000  Uiso   1.00
H628   H     0.72900   0.92815   0.19326   0.00000  Uiso   1.00
H629   H     0.68038   0.93203   0.22243   0.00000  Uiso   1.00
H630   H     0.71052   0.79309   0.28222   0.00000  Uiso   1.00
H631   H     0.67117   0.81630   0.02123   0.00000  Uiso   1.00
H632   H     0.72340   0.83857   0.02873   0.00000  Uiso   1.00
H633   H     0.74425   0.78562   0.08613   0.00000  Uiso   1.00
H634   H     0.70086   0.74749   0.07660   0.00000  Uiso   1.00
H635   H     0.94318   0.95039   0.03382   0.00000  Uiso   1.00
H636   H     0.99160   0.97961   0.05483   0.00000  Uiso   1.00
N637   N     0.83333   0.95240   0.16667   0.00000  Uiso   1.00
N638   N     0.83333   0.71427   0.16667   0.00000  Uiso   1.00
O639   O     0.77226   0.87154   0.16666   0.00000  Uiso   1.00
O640   O     0.89441   0.79513   0.16667   0.00000  Uiso   1.00
O641   O     0.89441   0.87154   0.16667   0.00000  Uiso   1.00
O642   O     0.77226   0.79513   0.16666   0.00000  Uiso   1.00
O643   O     0.83334   0.87155   0.09511   0.00000  Uiso   1.00
O644   O     0.83333   0.79512   0.23822   0.00000  Uiso   1.00
O645   O     0.83333   0.87155   0.23822   0.00000  Uiso   1.00
O646   O     0.83334   0.79512   0.09511   0.00000  Uiso   1.00
Zn647  Zn    0.83333   0.88437   0.16667   0.00000  Uiso   1.00
Zn648  Zn    0.83333   0.78229   0.16667   0.00000  Uiso   1.00
C649   C     0.08636   0.16656   0.49835   0.00000  Uiso   1.00
C650   C     0.01946   0.20455   0.51116   0.00000  Uiso   1.00
C651   C     0.28980   0.16999   0.48201   0.00000  Uiso   1.00
C652   C     0.04144   0.16802   0.49057   0.00000  Uiso   1.00
C653   C     0.19090   0.02484   0.53409   0.00000  Uiso   1.00
C654   C     0.14201   0.30820   0.46672   0.00000  Uiso   1.00
C655   C     0.14346   0.02235   0.46524   0.00000  Uiso   1.00
C656   C     0.19160   0.31041   0.53331   0.00000  Uiso   1.00
C657   C     0.04364   0.11684   0.41242   0.00000  Uiso   1.00
C658   C     0.03745   0.14032   0.36176   0.00000  Uiso   1.00
C659   C     0.05090   0.11037   0.65201   0.00000  Uiso   1.00
C660   C     0.24624   0.16734   0.49451   0.00000  Uiso   1.00
C661   C     0.30385   0.25045   0.46109   0.00000  Uiso   1.00
C662   C     0.32020   0.24260   0.40799   0.00000  Uiso   1.00
C663   C     0.31092   0.28109   0.37286   0.00000  Uiso   1.00
C664   C     0.28404   0.10265   0.42266   0.00000  Uiso   1.00
C665   C     0.27959   0.05687   0.44743   0.00000  Uiso   1.00
C666   C     0.24655   0.02811   0.41880   0.00000  Uiso   1.00
C667   C     0.03821   0.24121   0.54600   0.00000  Uiso   1.00
C668   C     0.05514   0.22289   0.59588   0.00000  Uiso   1.00
C669   C     0.08069   0.25867   0.62529   0.00000  Uiso   1.00
C670   C     0.16643   0.16653   0.40633   0.00000  Uiso   1.00
C671   C     0.16670   0.16680   0.59366   0.00000  Uiso   1.00
C672   C     0.16642   0.16648   0.35516   0.00000  Uiso   1.00
C673   C     0.16651   0.16686   0.64484   0.00000  Uiso   1.00
C674   C     0.02047   0.13912   0.45446   0.00000  Uiso   1.00
C675   C     0.31208   0.20973   0.49366   0.00000  Uiso   1.00
C676   C     0.30967   0.13619   0.45515   0.00000  Uiso   1.00
Cl677  Cl    0.22304   0.05469   0.57828   0.00000  Uiso   1.00
Cl678  Cl    0.10809   0.27789   0.42501   0.00000  Uiso   1.00
Cl679  Cl    0.11912   0.04738   0.41377   0.00000  Uiso   1.00
Cl680  Cl    0.22551   0.28273   0.57508   0.00000  Uiso   1.00
H681   H     0.08511   0.10457   0.65519   0.00000  Uiso   1.00
H682   H     0.32449   0.27436   0.33581   0.00000  Uiso   1.00
H683   H     0.02129   0.23794   0.41000   0.00000  Uiso   1.00
H684   H     0.30493   0.21189   0.39134   0.00000  Uiso   1.00
H685   H     0.26999   0.25730   0.45813   0.00000  Uiso   1.00
H686   H     0.31945   0.28109   0.47754   0.00000  Uiso   1.00
H687   H     0.21602   0.04486   0.41826   0.00000  Uiso   1.00
H688   H     0.25578   0.02336   0.37937   0.00000  Uiso   1.00
H689   H     0.24273   0.32848   0.43706   0.00000  Uiso   1.00
H690   H     0.31009   0.03986   0.44755   0.00000  Uiso   1.00
H691   H     0.27029   0.06047   0.48692   0.00000  Uiso   1.00
H692   H     0.03347   0.07768   0.65243   0.00000  Uiso   1.00
H693   H     0.25264   0.11611   0.41370   0.00000  Uiso   1.00
H694   H     0.29767   0.09763   0.38549   0.00000  Uiso   1.00
H695   H     0.10775   0.27067   0.60327   0.00000  Uiso   1.00
H696   H     0.06096   0.28748   0.63448   0.00000  Uiso   1.00
H697   H     0.09297   0.24398   0.66055   0.00000  Uiso   1.00
H698   H     0.02834   0.21124   0.61855   0.00000  Uiso   1.00
H699   H     0.07563   0.19417   0.58990   0.00000  Uiso   1.00
H700   H     0.06233   0.26148   0.52660   0.00000  Uiso   1.00
H701   H     0.01371   0.26536   0.55577   0.00000  Uiso   1.00
H702   H     0.04385   0.12642   0.61555   0.00000  Uiso   1.00
H703   H     0.00450   0.14964   0.35457   0.00000  Uiso   1.00
H704   H     0.05673   0.17190   0.36206   0.00000  Uiso   1.00
H705   H     0.07759   0.11896   0.41946   0.00000  Uiso   1.00
H706   H     0.03419   0.08083   0.40994   0.00000  Uiso   1.00
H707   H     0.27651   0.28372   0.36715   0.00000  Uiso   1.00
H708   H     0.32493   0.31294   0.38816   0.00000  Uiso   1.00
N709   N     0.16667   0.28573   0.50000   0.00000  Uiso   1.00
N710   N     0.16667   0.04760   0.50000   0.00000  Uiso   1.00
O711   O     0.10559   0.20487   0.50000   0.00000  Uiso   1.00
O712   O     0.22774   0.12846   0.50000   0.00000  Uiso   1.00
O713   O     0.22774   0.20487   0.50000   0.00000  Uiso   1.00
O714   O     0.10559   0.12846   0.50000   0.00000  Uiso   1.00
O715   O     0.16667   0.20488   0.42845   0.00000  Uiso   1.00
O716   O     0.16666   0.12845   0.57155   0.00000  Uiso   1.00
O717   O     0.16666   0.20488   0.57155   0.00000  Uiso   1.00
O718   O     0.16667   0.12845   0.42845   0.00000  Uiso   1.00
Zn719  Zn    0.16667   0.21771   0.50000   0.00000  Uiso   1.00
Zn720  Zn    0.16667   0.11563   0.50000   0.00000  Uiso   1.00
C721   C     0.41969   0.16656   0.49835   0.00000  Uiso   1.00
C722   C     0.35279   0.20455   0.51116   0.00000  Uiso   1.00
C723   C     0.62313   0.16999   0.48201   0.00000  Uiso   1.00
C724   C     0.37477   0.16802   0.49057   0.00000  Uiso   1.00
C725   C     0.52423   0.02484   0.53409   0.00000  Uiso   1.00
C726   C     0.47535   0.30820   0.46672   0.00000  Uiso   1.00
C727   C     0.47679   0.02235   0.46524   0.00000  Uiso   1.00
C728   C     0.52493   0.31041   0.53331   0.00000  Uiso   1.00
C729   C     0.37698   0.11684   0.41242   0.00000  Uiso   1.00
C730   C     0.37079   0.14032   0.36176   0.00000  Uiso   1.00
C731   C     0.38424   0.11037   0.65201   0.00000  Uiso   1.00
C732   C     0.57957   0.16734   0.49451   0.00000  Uiso   1.00
C733   C     0.63719   0.25045   0.46109   0.00000  Uiso   1.00
C734   C     0.65353   0.24260   0.40799   0.00000  Uiso   1.00
C735   C     0.64425   0.28109   0.37286   0.00000  Uiso   1.00
C736   C     0.61738   0.10265   0.42266   0.00000  Uiso   1.00
C737   C     0.61293   0.05687   0.44743   0.00000  Uiso   1.00
C738   C     0.57989   0.02811   0.41880   0.00000  Uiso   1.00
C739   C     0.37154   0.24121   0.54600   0.00000  Uiso   1.00
C740   C     0.38847   0.22289   0.59588   0.00000  Uiso   1.00
C741   C     0.41403   0.25867   0.62529   0.00000  Uiso   1.00
C742   C     0.49976   0.16653   0.40633   0.00000  Uiso   1.00
C743   C     0.50003   0.16680   0.59366   0.00000  Uiso   1.00
C744   C     0.49975   0.16648   0.35516   0.00000  Uiso   1.00
C745   C     0.49985   0.16686   0.64484   0.00000  Uiso   1.00
C746   C     0.35380   0.13912   0.45446   0.00000  Uiso   1.00
C747   C     0.64541   0.20973   0.49366   0.00000  Uiso   1.00
C748   C     0.64301   0.13619   0.45515   0.00000  Uiso   1.00
Cl749  Cl    0.55637   0.05469   0.57828   0.00000  Uiso   1.00
Cl750  Cl    0.44142   0.27789   0.42501   0.00000  Uiso   1.00
Cl751  Cl    0.45245   0.04738   0.41377   0.00000  Uiso   1.00
Cl752  Cl    0.55884   0.28273   0.57508   0.00000  Uiso   1.00
H753   H     0.41844   0.10457   0.65519   0.00000  Uiso   1.00
H754   H     0.65782   0.27436   0.33581   0.00000  Uiso   1.00
H755   H     0.35462   0.23794   0.41000   0.00000  Uiso   1.00
H756   H     0.63826   0.21189   0.39134   0.00000  Uiso   1.00
H757   H     0.60332   0.25730   0.45813   0.00000  Uiso   1.00
H758   H     0.65278   0.28109   0.47754   0.00000  Uiso   1.00
H759   H     0.54935   0.04486   0.41826   0.00000  Uiso   1.00
H760   H     0.58912   0.02336   0.37937   0.00000  Uiso   1.00
H761   H     0.57607   0.32848   0.43706   0.00000  Uiso   1.00
H762   H     0.64342   0.03986   0.44755   0.00000  Uiso   1.00
H763   H     0.60363   0.06047   0.48692   0.00000  Uiso   1.00
H764   H     0.36680   0.07768   0.65243   0.00000  Uiso   1.00
H765   H     0.58598   0.11611   0.41370   0.00000  Uiso   1.00
H766   H     0.63100   0.09763   0.38549   0.00000  Uiso   1.00
H767   H     0.44108   0.27067   0.60327   0.00000  Uiso   1.00
H768   H     0.39429   0.28748   0.63448   0.00000  Uiso   1.00
H769   H     0.42630   0.24398   0.66055   0.00000  Uiso   1.00
H770   H     0.36168   0.21124   0.61855   0.00000  Uiso   1.00
H771   H     0.40897   0.19417   0.58990   0.00000  Uiso   1.00
H772   H     0.39566   0.26148   0.52660   0.00000  Uiso   1.00
H773   H     0.34704   0.26536   0.55577   0.00000  Uiso   1.00
H774   H     0.37719   0.12642   0.61555   0.00000  Uiso   1.00
H775   H     0.33783   0.14964   0.35457   0.00000  Uiso   1.00
H776   H     0.39007   0.17190   0.36206   0.00000  Uiso   1.00
H777   H     0.41092   0.11896   0.41946   0.00000  Uiso   1.00
H778   H     0.36753   0.08083   0.40994   0.00000  Uiso   1.00
H779   H     0.60985   0.28372   0.36715   0.00000  Uiso   1.00
H780   H     0.65826   0.31294   0.38816   0.00000  Uiso   1.00
N781   N     0.50000   0.28573   0.50000   0.00000  Uiso   1.00
N782   N     0.50000   0.04760   0.50000   0.00000  Uiso   1.00
O783   O     0.43892   0.20487   0.50000   0.00000  Uiso   1.00
O784   O     0.56108   0.12846   0.50000   0.00000  Uiso   1.00
O785   O     0.56108   0.20487   0.50000   0.00000  Uiso   1.00
O786   O     0.43892   0.12846   0.50000   0.00000  Uiso   1.00
O787   O     0.50000   0.20488   0.42845   0.00000  Uiso   1.00
O788   O     0.50000   0.12845   0.57155   0.00000  Uiso   1.00
O789   O     0.50000   0.20488   0.57155   0.00000  Uiso   1.00
O790   O     0.50000   0.12845   0.42845   0.00000  Uiso   1.00
Zn791  Zn    0.50000   0.21771   0.50000   0.00000  Uiso   1.00
Zn792  Zn    0.50000   0.11563   0.50000   0.00000  Uiso   1.00
C793   C     0.75302   0.16656   0.49835   0.00000  Uiso   1.00
C794   C     0.68612   0.20455   0.51116   0.00000  Uiso   1.00
C795   C     0.95646   0.16999   0.48201   0.00000  Uiso   1.00
C796   C     0.70810   0.16802   0.49057   0.00000  Uiso   1.00
C797   C     0.85757   0.02484   0.53409   0.00000  Uiso   1.00
C798   C     0.80868   0.30820   0.46672   0.00000  Uiso   1.00
C799   C     0.81012   0.02235   0.46524   0.00000  Uiso   1.00
C800   C     0.85826   0.31041   0.53331   0.00000  Uiso   1.00
C801   C     0.71031   0.11684   0.41242   0.00000  Uiso   1.00
C802   C     0.70412   0.14032   0.36176   0.00000  Uiso   1.00
C803   C     0.71757   0.11037   0.65201   0.00000  Uiso   1.00
C804   C     0.91291   0.16734   0.49451   0.00000  Uiso   1.00
C805   C     0.97052   0.25045   0.46109   0.00000  Uiso   1.00
C806   C     0.98687   0.24260   0.40799   0.00000  Uiso   1.00
C807   C     0.97758   0.28109   0.37286   0.00000  Uiso   1.00
C808   C     0.95071   0.10265   0.42266   0.00000  Uiso   1.00
C809   C     0.94626   0.05687   0.44743   0.00000  Uiso   1.00
C810   C     0.91322   0.02811   0.41880   0.00000  Uiso   1.00
C811   C     0.70488   0.24121   0.54600   0.00000  Uiso   1.00
C812   C     0.72180   0.22289   0.59588   0.00000  Uiso   1.00
C813   C     0.74736   0.25867   0.62529   0.00000  Uiso   1.00
C814   C     0.83310   0.16653   0.40633   0.00000  Uiso   1.00
C815   C     0.83336   0.16680   0.59366   0.00000  Uiso   1.00
C816   C     0.83308   0.16648   0.35516   0.00000  Uiso   1.00
C817   C     0.83318   0.16686   0.64484   0.00000  Uiso   1.00
C818   C     0.68714   0.13912   0.45446   0.00000  Uiso   1.00
C819   C     0.97875   0.20973   0.49366   0.00000  Uiso   1.00
C820   C     0.97634   0.13619   0.45515   0.00000  Uiso   1.00
Cl821  Cl    0.88971   0.05469   0.57828   0.00000  Uiso   1.00
Cl822  Cl    0.77476   0.27789   0.42501   0.00000  Uiso   1.00
Cl823  Cl    0.78578   0.04738   0.41377   0.00000  Uiso   1.00
Cl824  Cl    0.89218   0.28273   0.57508   0.00000  Uiso   1.00
H825   H     0.75178   0.10457   0.65519   0.00000  Uiso   1.00
H826   H     0.99115   0.27436   0.33581   0.00000  Uiso   1.00
H827   H     0.68796   0.23794   0.41000   0.00000  Uiso   1.00
H828   H     0.97160   0.21189   0.39134   0.00000  Uiso   1.00
H829   H     0.93666   0.25730   0.45813   0.00000  Uiso   1.00
H830   H     0.98612   0.28109   0.47754   0.00000  Uiso   1.00
H831   H     0.88269   0.04486   0.41826   0.00000  Uiso   1.00
H832   H     0.92245   0.02336   0.37937   0.00000  Uiso   1.00
H833   H     0.90940   0.32848   0.43706   0.00000  Uiso   1.00
H834   H     0.97676   0.03986   0.44755   0.00000  Uiso   1.00
H835   H     0.93696   0.06047   0.48692   0.00000  Uiso   1.00
H836   H     0.70013   0.07768   0.65243   0.00000  Uiso   1.00
H837   H     0.91931   0.11611   0.41370   0.00000  Uiso   1.00
H838   H     0.96433   0.09763   0.38549   0.00000  Uiso   1.00
H839   H     0.77442   0.27067   0.60327   0.00000  Uiso   1.00
H840   H     0.72762   0.28748   0.63448   0.00000  Uiso   1.00
H841   H     0.75963   0.24398   0.66055   0.00000  Uiso   1.00
H842   H     0.69501   0.21124   0.61855   0.00000  Uiso   1.00
H843   H     0.74230   0.19417   0.58990   0.00000  Uiso   1.00
H844   H     0.72900   0.26148   0.52660   0.00000  Uiso   1.00
H845   H     0.68038   0.26536   0.55577   0.00000  Uiso   1.00
H846   H     0.71052   0.12642   0.61555   0.00000  Uiso   1.00
H847   H     0.67117   0.14964   0.35457   0.00000  Uiso   1.00
H848   H     0.72340   0.17190   0.36206   0.00000  Uiso   1.00
H849   H     0.74425   0.11896   0.41946   0.00000  Uiso   1.00
H850   H     0.70086   0.08083   0.40994   0.00000  Uiso   1.00
H851   H     0.94318   0.28372   0.36715   0.00000  Uiso   1.00
H852   H     0.99160   0.31294   0.38816   0.00000  Uiso   1.00
N853   N     0.83333   0.28573   0.50000   0.00000  Uiso   1.00
N854   N     0.83333   0.04760   0.50000   0.00000  Uiso   1.00
O855   O     0.77226   0.20487   0.50000   0.00000  Uiso   1.00
O856   O     0.89441   0.12846   0.50000   0.00000  Uiso   1.00
O857   O     0.89441   0.20487   0.50000   0.00000  Uiso   1.00
O858   O     0.77226   0.12846   0.50000   0.00000  Uiso   1.00
O859   O     0.83334   0.20488   0.42845   0.00000  Uiso   1.00
O860   O     0.83333   0.12845   0.57155   0.00000  Uiso   1.00
O861   O     0.83333   0.20488   0.57155   0.00000  Uiso   1.00
O862   O     0.83334   0.12845   0.42845   0.00000  Uiso   1.00
Zn863  Zn    0.83333   0.21771   0.50000   0.00000  Uiso   1.00
Zn864  Zn    0.83333   0.11563   0.50000   0.00000  Uiso   1.00
C865   C     0.08636   0.49989   0.49835   0.00000  Uiso   1.00
C866   C     0.01946   0.53789   0.51116   0.00000  Uiso   1.00
C867   C     0.28980   0.50332   0.48201   0.00000  Uiso   1.00
C868   C     0.04144   0.50135   0.49057   0.00000  Uiso   1.00
C869   C     0.19090   0.35817   0.53409   0.00000  Uiso   1.00
C870   C     0.14201   0.64153   0.46672   0.00000  Uiso   1.00
C871   C     0.14346   0.35568   0.46524   0.00000  Uiso   1.00
C872   C     0.19160   0.64374   0.53331   0.00000  Uiso   1.00
C873   C     0.04364   0.45017   0.41242   0.00000  Uiso   1.00
C874   C     0.03745   0.47366   0.36176   0.00000  Uiso   1.00
C875   C     0.05090   0.44371   0.65201   0.00000  Uiso   1.00
C876   C     0.24624   0.50068   0.49451   0.00000  Uiso   1.00
C877   C     0.30385   0.58379   0.46109   0.00000  Uiso   1.00
C878   C     0.32020   0.57593   0.40799   0.00000  Uiso   1.00
C879   C     0.31092   0.61442   0.37286   0.00000  Uiso   1.00
C880   C     0.28404   0.43599   0.42266   0.00000  Uiso   1.00
C881   C     0.27959   0.39021   0.44743   0.00000  Uiso   1.00
C882   C     0.24655   0.36145   0.41880   0.00000  Uiso   1.00
C883   C     0.03821   0.57454   0.54600   0.00000  Uiso   1.00
C884   C     0.05514   0.55622   0.59588   0.00000  Uiso   1.00
C885   C     0.08069   0.59201   0.62529   0.00000  Uiso   1.00
C886   C     0.16643   0.49986   0.40633   0.00000  Uiso   1.00
C887   C     0.16670   0.50014   0.59366   0.00000  Uiso   1.00
C888   C     0.16642   0.49981   0.35516   0.00000  Uiso   1.00
C889   C     0.16651   0.50020   0.64484   0.00000  Uiso   1.00
C890   C     0.02047   0.47245   0.45446   0.00000  Uiso   1.00
C891   C     0.31208   0.54306   0.49366   0.00000  Uiso   1.00
C892   C     0.30967   0.46952   0.45515   0.00000  Uiso   1.00
Cl893  Cl    0.22304   0.38802   0.57828   0.00000  Uiso   1.00
Cl894  Cl    0.10809   0.61122   0.42501   0.00000  Uiso   1.00
Cl895  Cl    0.11912   0.38072   0.41377   0.00000  Uiso   1.00
Cl896  Cl    0.22551   0.61606   0.57508   0.00000  Uiso   1.00
H897   H     0.08511   0.43790   0.65519   0.00000  Uiso   1.00
H898   H     0.32449   0.60769   0.33581   0.00000  Uiso   1.00
H899   H     0.02129   0.57128   0.41000   0.00000  Uiso   1.00
H900   H     0.30493   0.54522   0.39134   0.00000  Uiso   1.00
H901   H     0.26999   0.59064   0.45813   0.00000  Uiso   1.00
H902   H     0.31945   0.61442   0.47754   0.00000  Uiso   1.00
H903   H     0.21602   0.37819   0.41826   0.00000  Uiso   1.00
H904   H     0.25578   0.35669   0.37937   0.00000  Uiso   1.00
H905   H     0.24273   0.66181   0.43706   0.00000  Uiso   1.00
H906   H     0.31009   0.37319   0.44755   0.00000  Uiso   1.00
H907   H     0.27029   0.39381   0.48692   0.00000  Uiso   1.00
H908   H     0.03347   0.41101   0.65243   0.00000  Uiso   1.00
H909   H     0.25264   0.44945   0.41370   0.00000  Uiso   1.00
H910   H     0.29767   0.43096   0.38549   0.00000  Uiso   1.00
H911   H     0.10775   0.60400   0.60327   0.00000  Uiso   1.00
H912   H     0.06096   0.62082   0.63448   0.00000  Uiso   1.00
H913   H     0.09297   0.57731   0.66055   0.00000  Uiso   1.00
H914   H     0.02834   0.54457   0.61855   0.00000  Uiso   1.00
H915   H     0.07563   0.52751   0.58990   0.00000  Uiso   1.00
H916   H     0.06233   0.59482   0.52660   0.00000  Uiso   1.00
H917   H     0.01371   0.59870   0.55577   0.00000  Uiso   1.00
H918   H     0.04385   0.45976   0.61555   0.00000  Uiso   1.00
H919   H     0.00450   0.48297   0.35457   0.00000  Uiso   1.00
H920   H     0.05673   0.50523   0.36206   0.00000  Uiso   1.00
H921   H     0.07759   0.45229   0.41946   0.00000  Uiso   1.00
H922   H     0.03419   0.41416   0.40994   0.00000  Uiso   1.00
H923   H     0.27651   0.61706   0.36715   0.00000  Uiso   1.00
H924   H     0.32493   0.64628   0.38816   0.00000  Uiso   1.00
N925   N     0.16667   0.61907   0.50000   0.00000  Uiso   1.00
N926   N     0.16667   0.38093   0.50000   0.00000  Uiso   1.00
O927   O     0.10559   0.53821   0.50000   0.00000  Uiso   1.00
O928   O     0.22774   0.46179   0.50000   0.00000  Uiso   1.00
O929   O     0.22774   0.53821   0.50000   0.00000  Uiso   1.00
O930   O     0.10559   0.46179   0.50000   0.00000  Uiso   1.00
O931   O     0.16667   0.53821   0.42845   0.00000  Uiso   1.00
O932   O     0.16666   0.46179   0.57155   0.00000  Uiso   1.00
O933   O     0.16666   0.53821   0.57155   0.00000  Uiso   1.00
O934   O     0.16667   0.46179   0.42845   0.00000  Uiso   1.00
Zn935  Zn    0.16667   0.55104   0.50000   0.00000  Uiso   1.00
Zn936  Zn    0.16667   0.44896   0.50000   0.00000  Uiso   1.00
C937   C     0.41969   0.49989   0.49835   0.00000  Uiso   1.00
C938   C     0.35279   0.53789   0.51116   0.00000  Uiso   1.00
C939   C     0.62313   0.50332   0.48201   0.00000  Uiso   1.00
C940   C     0.37477   0.50135   0.49057   0.00000  Uiso   1.00
C941   C     0.52423   0.35817   0.53409   0.00000  Uiso   1.00
C942   C     0.47535   0.64153   0.46672   0.00000  Uiso   1.00
C943   C     0.47679   0.35568   0.46524   0.00000  Uiso   1.00
C944   C     0.52493   0.64374   0.53331   0.00000  Uiso   1.00
C945   C     0.37698   0.45017   0.41242   0.00000  Uiso   1.00
C946   C     0.37079   0.47366   0.36176   0.00000  Uiso   1.00
C947   C     0.38424   0.44371   0.65201   0.00000  Uiso   1.00
C948   C     0.57957   0.50068   0.49451   0.00000  Uiso   1.00
C949   C     0.63719   0.58379   0.46109   0.00000  Uiso   1.00
C950   C     0.65353   0.57593   0.40799   0.00000  Uiso   1.00
C951   C     0.64425   0.61442   0.37286   0.00000  Uiso   1.00
C952   C     0.61738   0.43599   0.42266   0.00000  Uiso   1.00
C953   C     0.61293   0.39021   0.44743   0.00000  Uiso   1.00
C954   C     0.57989   0.36145   0.41880   0.00000  Uiso   1.00
C955   C     0.37154   0.57454   0.54600   0.00000  Uiso   1.00
C956   C     0.38847   0.55622   0.59588   0.00000  Uiso   1.00
C957   C     0.41403   0.59201   0.62529   0.00000  Uiso   1.00
C958   C     0.49976   0.49986   0.40633   0.00000  Uiso   1.00
C959   C     0.50003   0.50014   0.59366   0.00000  Uiso   1.00
C960   C     0.49975   0.49981   0.35516   0.00000  Uiso   1.00
C961   C     0.49985   0.50020   0.64484   0.00000  Uiso   1.00
C962   C     0.35380   0.47245   0.45446   0.00000  Uiso   1.00
C963   C     0.64541   0.54306   0.49366   0.00000  Uiso   1.00
C964   C     0.64301   0.46952   0.45515   0.00000  Uiso   1.00
Cl965  Cl    0.55637   0.38802   0.57828   0.00000  Uiso   1.00
Cl966  Cl    0.44142   0.61122   0.42501   0.00000  Uiso   1.00
Cl967  Cl    0.45245   0.38072   0.41377   0.00000  Uiso   1.00
Cl968  Cl    0.55884   0.61606   0.57508   0.00000  Uiso   1.00
H969   H     0.41844   0.43790   0.65519   0.00000  Uiso   1.00
H970   H     0.65782   0.60769   0.33581   0.00000  Uiso   1.00
H971   H     0.35462   0.57128   0.41000   0.00000  Uiso   1.00
H972   H     0.63826   0.54522   0.39134   0.00000  Uiso   1.00
H973   H     0.60332   0.59064   0.45813   0.00000  Uiso   1.00
H974   H     0.65278   0.61442   0.47754   0.00000  Uiso   1.00
H975   H     0.54935   0.37819   0.41826   0.00000  Uiso   1.00
H976   H     0.58912   0.35669   0.37937   0.00000  Uiso   1.00
H977   H     0.57607   0.66181   0.43706   0.00000  Uiso   1.00
H978   H     0.64342   0.37319   0.44755   0.00000  Uiso   1.00
H979   H     0.60363   0.39381   0.48692   0.00000  Uiso   1.00
H980   H     0.36680   0.41101   0.65243   0.00000  Uiso   1.00
H981   H     0.58598   0.44945   0.41370   0.00000  Uiso   1.00
H982   H     0.63100   0.43096   0.38549   0.00000  Uiso   1.00
H983   H     0.44108   0.60400   0.60327   0.00000  Uiso   1.00
H984   H     0.39429   0.62082   0.63448   0.00000  Uiso   1.00
H985   H     0.42630   0.57731   0.66055   0.00000  Uiso   1.00
H986   H     0.36168   0.54457   0.61855   0.00000  Uiso   1.00
H987   H     0.40897   0.52751   0.58990   0.00000  Uiso   1.00
H988   H     0.39566   0.59482   0.52660   0.00000  Uiso   1.00
H989   H     0.34704   0.59870   0.55577   0.00000  Uiso   1.00
H990   H     0.37719   0.45976   0.61555   0.00000  Uiso   1.00
H991   H     0.33783   0.48297   0.35457   0.00000  Uiso   1.00
H992   H     0.39007   0.50523   0.36206   0.00000  Uiso   1.00
H993   H     0.41092   0.45229   0.41946   0.00000  Uiso   1.00
H994   H     0.36753   0.41416   0.40994   0.00000  Uiso   1.00
H995   H     0.60985   0.61706   0.36715   0.00000  Uiso   1.00
H996   H     0.65826   0.64628   0.38816   0.00000  Uiso   1.00
N997   N     0.50000   0.61907   0.50000   0.00000  Uiso   1.00
N998   N     0.50000   0.38093   0.50000   0.00000  Uiso   1.00
O999   O     0.43892   0.53821   0.50000   0.00000  Uiso   1.00
O1000  O     0.56108   0.46179   0.50000   0.00000  Uiso   1.00
O1001  O     0.56108   0.53821   0.50000   0.00000  Uiso   1.00
O1002  O     0.43892   0.46179   0.50000   0.00000  Uiso   1.00
O1003  O     0.50000   0.53821   0.42845   0.00000  Uiso   1.00
O1004  O     0.50000   0.46179   0.57155   0.00000  Uiso   1.00
O1005  O     0.50000   0.53821   0.57155   0.00000  Uiso   1.00
O1006  O     0.50000   0.46179   0.42845   0.00000  Uiso   1.00
Zn1007 Zn    0.50000   0.55104   0.50000   0.00000  Uiso   1.00
Zn1008 Zn    0.50000   0.44896   0.50000   0.00000  Uiso   1.00
C1009  C     0.75302   0.49989   0.49835   0.00000  Uiso   1.00
C1010  C     0.68612   0.53789   0.51116   0.00000  Uiso   1.00
C1011  C     0.95646   0.50332   0.48201   0.00000  Uiso   1.00
C1012  C     0.70810   0.50135   0.49057   0.00000  Uiso   1.00
C1013  C     0.85757   0.35817   0.53409   0.00000  Uiso   1.00
C1014  C     0.80868   0.64153   0.46672   0.00000  Uiso   1.00
C1015  C     0.81012   0.35568   0.46524   0.00000  Uiso   1.00
C1016  C     0.85826   0.64374   0.53331   0.00000  Uiso   1.00
C1017  C     0.71031   0.45017   0.41242   0.00000  Uiso   1.00
C1018  C     0.70412   0.47366   0.36176   0.00000  Uiso   1.00
C1019  C     0.71757   0.44371   0.65201   0.00000  Uiso   1.00
C1020  C     0.91291   0.50068   0.49451   0.00000  Uiso   1.00
C1021  C     0.97052   0.58379   0.46109   0.00000  Uiso   1.00
C1022  C     0.98687   0.57593   0.40799   0.00000  Uiso   1.00
C1023  C     0.97758   0.61442   0.37286   0.00000  Uiso   1.00
C1024  C     0.95071   0.43599   0.42266   0.00000  Uiso   1.00
C1025  C     0.94626   0.39021   0.44743   0.00000  Uiso   1.00
C1026  C     0.91322   0.36145   0.41880   0.00000  Uiso   1.00
C1027  C     0.70488   0.57454   0.54600   0.00000  Uiso   1.00
C1028  C     0.72180   0.55622   0.59588   0.00000  Uiso   1.00
C1029  C     0.74736   0.59201   0.62529   0.00000  Uiso   1.00
C1030  C     0.83310   0.49986   0.40633   0.00000  Uiso   1.00
C1031  C     0.83336   0.50014   0.59366   0.00000  Uiso   1.00
C1032  C     0.83308   0.49981   0.35516   0.00000  Uiso   1.00
C1033  C     0.83318   0.50020   0.64484   0.00000  Uiso   1.00
C1034  C     0.68714   0.47245   0.45446   0.00000  Uiso   1.00
C1035  C     0.97875   0.54306   0.49366   0.00000  Uiso   1.00
C1036  C     0.97634   0.46952   0.45515   0.00000  Uiso   1.00
Cl1037 Cl    0.88971   0.38802   0.57828   0.00000  Uiso   1.00
Cl1038 Cl    0.77476   0.61122   0.42501   0.00000  Uiso   1.00
Cl1039 Cl    0.78578   0.38072   0.41377   0.00000  Uiso   1.00
Cl1040 Cl    0.89218   0.61606   0.57508   0.00000  Uiso   1.00
H1041  H     0.75178   0.43790   0.65519   0.00000  Uiso   1.00
H1042  H     0.99115   0.60769   0.33581   0.00000  Uiso   1.00
H1043  H     0.68796   0.57128   0.41000   0.00000  Uiso   1.00
H1044  H     0.97160   0.54522   0.39134   0.00000  Uiso   1.00
H1045  H     0.93666   0.59064   0.45813   0.00000  Uiso   1.00
H1046  H     0.98612   0.61442   0.47754   0.00000  Uiso   1.00
H1047  H     0.88269   0.37819   0.41826   0.00000  Uiso   1.00
H1048  H     0.92245   0.35669   0.37937   0.00000  Uiso   1.00
H1049  H     0.90940   0.66181   0.43706   0.00000  Uiso   1.00
H1050  H     0.97676   0.37319   0.44755   0.00000  Uiso   1.00
H1051  H     0.93696   0.39381   0.48692   0.00000  Uiso   1.00
H1052  H     0.70013   0.41101   0.65243   0.00000  Uiso   1.00
H1053  H     0.91931   0.44945   0.41370   0.00000  Uiso   1.00
H1054  H     0.96433   0.43096   0.38549   0.00000  Uiso   1.00
H1055  H     0.77442   0.60400   0.60327   0.00000  Uiso   1.00
H1056  H     0.72762   0.62082   0.63448   0.00000  Uiso   1.00
H1057  H     0.75963   0.57731   0.66055   0.00000  Uiso   1.00
H1058  H     0.69501   0.54457   0.61855   0.00000  Uiso   1.00
H1059  H     0.74230   0.52751   0.58990   0.00000  Uiso   1.00
H1060  H     0.72900   0.59482   0.52660   0.00000  Uiso   1.00
H1061  H     0.68038   0.59870   0.55577   0.00000  Uiso   1.00
H1062  H     0.71052   0.45976   0.61555   0.00000  Uiso   1.00
H1063  H     0.67117   0.48297   0.35457   0.00000  Uiso   1.00
H1064  H     0.72340   0.50523   0.36206   0.00000  Uiso   1.00
H1065  H     0.74425   0.45229   0.41946   0.00000  Uiso   1.00
H1066  H     0.70086   0.41416   0.40994   0.00000  Uiso   1.00
H1067  H     0.94318   0.61706   0.36715   0.00000  Uiso   1.00
H1068  H     0.99160   0.64628   0.38816   0.00000  Uiso   1.00
N1069  N     0.83333   0.61907   0.50000   0.00000  Uiso   1.00
N1070  N     0.83333   0.38093   0.50000   0.00000  Uiso   1.00
O1071  O     0.77226   0.53821   0.50000   0.00000  Uiso   1.00
O1072  O     0.89441   0.46179   0.50000   0.00000  Uiso   1.00
O1073  O     0.89441   0.53821   0.50000   0.00000  Uiso   1.00
O1074  O     0.77226   0.46179   0.50000   0.00000  Uiso   1.00
O1075  O     0.83334   0.53821   0.42845   0.00000  Uiso   1.00
O1076  O     0.83333   0.46179   0.57155   0.00000  Uiso   1.00
O1077  O     0.83333   0.53821   0.57155   0.00000  Uiso   1.00
O1078  O     0.83334   0.46179   0.42845   0.00000  Uiso   1.00
Zn1079 Zn    0.83333   0.55104   0.50000   0.00000  Uiso   1.00
Zn1080 Zn    0.83333   0.44896   0.50000   0.00000  Uiso   1.00
C1081  C     0.08636   0.83322   0.49835   0.00000  Uiso   1.00
C1082  C     0.01946   0.87122   0.51116   0.00000  Uiso   1.00
C1083  C     0.28980   0.83666   0.48201   0.00000  Uiso   1.00
C1084  C     0.04144   0.83468   0.49057   0.00000  Uiso   1.00
C1085  C     0.19090   0.69150   0.53409   0.00000  Uiso   1.00
C1086  C     0.14201   0.97487   0.46672   0.00000  Uiso   1.00
C1087  C     0.14346   0.68902   0.46524   0.00000  Uiso   1.00
C1088  C     0.19160   0.97708   0.53331   0.00000  Uiso   1.00
C1089  C     0.04364   0.78351   0.41242   0.00000  Uiso   1.00
C1090  C     0.03745   0.80699   0.36176   0.00000  Uiso   1.00
C1091  C     0.05090   0.77704   0.65201   0.00000  Uiso   1.00
C1092  C     0.24624   0.83401   0.49451   0.00000  Uiso   1.00
C1093  C     0.30385   0.91712   0.46109   0.00000  Uiso   1.00
C1094  C     0.32020   0.90927   0.40799   0.00000  Uiso   1.00
C1095  C     0.31092   0.94776   0.37286   0.00000  Uiso   1.00
C1096  C     0.28404   0.76932   0.42266   0.00000  Uiso   1.00
C1097  C     0.27959   0.72354   0.44743   0.00000  Uiso   1.00
C1098  C     0.24655   0.69478   0.41880   0.00000  Uiso   1.00
C1099  C     0.03821   0.90788   0.54600   0.00000  Uiso   1.00
C1100  C     0.05514   0.88956   0.59588   0.00000  Uiso   1.00
C1101  C     0.08069   0.92534   0.62529   0.00000  Uiso   1.00
C1102  C     0.16643   0.83320   0.40633   0.00000  Uiso   1.00
C1103  C     0.16670   0.83347   0.59366   0.00000  Uiso   1.00
C1104  C     0.16642   0.83314   0.35516   0.00000  Uiso   1.00
C1105  C     0.16651   0.83353   0.64484   0.00000  Uiso   1.00
C1106  C     0.02047   0.80579   0.45446   0.00000  Uiso   1.00
C1107  C     0.31208   0.87639   0.49366   0.00000  Uiso   1.00
C1108  C     0.30967   0.80285   0.45515   0.00000  Uiso   1.00
Cl1109 Cl    0.22304   0.72135   0.57828   0.00000  Uiso   1.00
Cl1110 Cl    0.10809   0.94456   0.42501   0.00000  Uiso   1.00
Cl1111 Cl    0.11912   0.71405   0.41377   0.00000  Uiso   1.00
Cl1112 Cl    0.22551   0.94939   0.57508   0.00000  Uiso   1.00
H1113  H     0.08511   0.77123   0.65519   0.00000  Uiso   1.00
H1114  H     0.32449   0.94102   0.33581   0.00000  Uiso   1.00
H1115  H     0.02129   0.90461   0.41000   0.00000  Uiso   1.00
H1116  H     0.30493   0.87855   0.39134   0.00000  Uiso   1.00
H1117  H     0.26999   0.92397   0.45813   0.00000  Uiso   1.00
H1118  H     0.31945   0.94775   0.47754   0.00000  Uiso   1.00
H1119  H     0.21602   0.71152   0.41826   0.00000  Uiso   1.00
H1120  H     0.25578   0.69002   0.37937   0.00000  Uiso   1.00
H1121  H     0.24273   0.99515   0.43706   0.00000  Uiso   1.00
H1122  H     0.31009   0.70653   0.44755   0.00000  Uiso   1.00
H1123  H     0.27029   0.72714   0.48692   0.00000  Uiso   1.00
H1124  H     0.03347   0.74434   0.65243   0.00000  Uiso   1.00
H1125  H     0.25264   0.78278   0.41370   0.00000  Uiso   1.00
H1126  H     0.29767   0.76430   0.38549   0.00000  Uiso   1.00
H1127  H     0.10775   0.93733   0.60327   0.00000  Uiso   1.00
H1128  H     0.06096   0.95415   0.63448   0.00000  Uiso   1.00
H1129  H     0.09297   0.91064   0.66055   0.00000  Uiso   1.00
H1130  H     0.02834   0.87791   0.61855   0.00000  Uiso   1.00
H1131  H     0.07563   0.86084   0.58990   0.00000  Uiso   1.00
H1132  H     0.06233   0.92815   0.52660   0.00000  Uiso   1.00
H1133  H     0.01371   0.93203   0.55577   0.00000  Uiso   1.00
H1134  H     0.04385   0.79309   0.61555   0.00000  Uiso   1.00
H1135  H     0.00450   0.81630   0.35457   0.00000  Uiso   1.00
H1136  H     0.05673   0.83857   0.36206   0.00000  Uiso   1.00
H1137  H     0.07759   0.78562   0.41946   0.00000  Uiso   1.00
H1138  H     0.03419   0.74749   0.40994   0.00000  Uiso   1.00
H1139  H     0.27651   0.95039   0.36715   0.00000  Uiso   1.00
H1140  H     0.32493   0.97961   0.38816   0.00000  Uiso   1.00
N1141  N     0.16667   0.95240   0.50000   0.00000  Uiso   1.00
N1142  N     0.16667   0.71427   0.50000   0.00000  Uiso   1.00
O1143  O     0.10559   0.87154   0.50000   0.00000  Uiso   1.00
O1144  O     0.22774   0.79513   0.50000   0.00000  Uiso   1.00
O1145  O     0.22774   0.87154   0.50000   0.00000  Uiso   1.00
O1146  O     0.10559   0.79513   0.50000   0.00000  Uiso   1.00
O1147  O     0.16667   0.87155   0.42845   0.00000  Uiso   1.00
O1148  O     0.16666   0.79512   0.57155   0.00000  Uiso   1.00
O1149  O     0.16666   0.87155   0.57155   0.00000  Uiso   1.00
O1150  O     0.16667   0.79512   0.42845   0.00000  Uiso   1.00
Zn1151 Zn    0.16667   0.88437   0.50000   0.00000  Uiso   1.00
Zn1152 Zn    0.16667   0.78229   0.50000   0.00000  Uiso   1.00
C1153  C     0.41969   0.83322   0.49835   0.00000  Uiso   1.00
C1154  C     0.35279   0.87122   0.51116   0.00000  Uiso   1.00
C1155  C     0.62313   0.83666   0.48201   0.00000  Uiso   1.00
C1156  C     0.37477   0.83468   0.49057   0.00000  Uiso   1.00
C1157  C     0.52423   0.69150   0.53409   0.00000  Uiso   1.00
C1158  C     0.47535   0.97487   0.46672   0.00000  Uiso   1.00
C1159  C     0.47679   0.68902   0.46524   0.00000  Uiso   1.00
C1160  C     0.52493   0.97708   0.53331   0.00000  Uiso   1.00
C1161  C     0.37698   0.78351   0.41242   0.00000  Uiso   1.00
C1162  C     0.37079   0.80699   0.36176   0.00000  Uiso   1.00
C1163  C     0.38424   0.77704   0.65201   0.00000  Uiso   1.00
C1164  C     0.57957   0.83401   0.49451   0.00000  Uiso   1.00
C1165  C     0.63719   0.91712   0.46109   0.00000  Uiso   1.00
C1166  C     0.65353   0.90927   0.40799   0.00000  Uiso   1.00
C1167  C     0.64425   0.94776   0.37286   0.00000  Uiso   1.00
C1168  C     0.61738   0.76932   0.42266   0.00000  Uiso   1.00
C1169  C     0.61293   0.72354   0.44743   0.00000  Uiso   1.00
C1170  C     0.57989   0.69478   0.41880   0.00000  Uiso   1.00
C1171  C     0.37154   0.90788   0.54600   0.00000  Uiso   1.00
C1172  C     0.38847   0.88956   0.59588   0.00000  Uiso   1.00
C1173  C     0.41403   0.92534   0.62529   0.00000  Uiso   1.00
C1174  C     0.49976   0.83320   0.40633   0.00000  Uiso   1.00
C1175  C     0.50003   0.83347   0.59366   0.00000  Uiso   1.00
C1176  C     0.49975   0.83314   0.35516   0.00000  Uiso   1.00
C1177  C     0.49985   0.83353   0.64484   0.00000  Uiso   1.00
C1178  C     0.35380   0.80579   0.45446   0.00000  Uiso   1.00
C1179  C     0.64541   0.87639   0.49366   0.00000  Uiso   1.00
C1180  C     0.64301   0.80285   0.45515   0.00000  Uiso   1.00
Cl1181 Cl    0.55637   0.72135   0.57828   0.00000  Uiso   1.00
Cl1182 Cl    0.44142   0.94456   0.42501   0.00000  Uiso   1.00
Cl1183 Cl    0.45245   0.71405   0.41377   0.00000  Uiso   1.00
Cl1184 Cl    0.55884   0.94939   0.57508   0.00000  Uiso   1.00
H1185  H     0.41844   0.77123   0.65519   0.00000  Uiso   1.00
H1186  H     0.65782   0.94102   0.33581   0.00000  Uiso   1.00
H1187  H     0.35462   0.90461   0.41000   0.00000  Uiso   1.00
H1188  H     0.63826   0.87855   0.39134   0.00000  Uiso   1.00
H1189  H     0.60332   0.92397   0.45813   0.00000  Uiso   1.00
H1190  H     0.65278   0.94775   0.47754   0.00000  Uiso   1.00
H1191  H     0.54935   0.71152   0.41826   0.00000  Uiso   1.00
H1192  H     0.58912   0.69002   0.37937   0.00000  Uiso   1.00
H1193  H     0.57607   0.99515   0.43706   0.00000  Uiso   1.00
H1194  H     0.64342   0.70653   0.44755   0.00000  Uiso   1.00
H1195  H     0.60363   0.72714   0.48692   0.00000  Uiso   1.00
H1196  H     0.36680   0.74434   0.65243   0.00000  Uiso   1.00
H1197  H     0.58598   0.78278   0.41370   0.00000  Uiso   1.00
H1198  H     0.63100   0.76430   0.38549   0.00000  Uiso   1.00
H1199  H     0.44108   0.93733   0.60327   0.00000  Uiso   1.00
H1200  H     0.39429   0.95415   0.63448   0.00000  Uiso   1.00
H1201  H     0.42630   0.91064   0.66055   0.00000  Uiso   1.00
H1202  H     0.36168   0.87791   0.61855   0.00000  Uiso   1.00
H1203  H     0.40897   0.86084   0.58990   0.00000  Uiso   1.00
H1204  H     0.39566   0.92815   0.52660   0.00000  Uiso   1.00
H1205  H     0.34704   0.93203   0.55577   0.00000  Uiso   1.00
H1206  H     0.37719   0.79309   0.61555   0.00000  Uiso   1.00
H1207  H     0.33783   0.81630   0.35457   0.00000  Uiso   1.00
H1208  H     0.39007   0.83857   0.36206   0.00000  Uiso   1.00
H1209  H     0.41092   0.78562   0.41946   0.00000  Uiso   1.00
H1210  H     0.36753   0.74749   0.40994   0.00000  Uiso   1.00
H1211  H     0.60985   0.95039   0.36715   0.00000  Uiso   1.00
H1212  H     0.65826   0.97961   0.38816   0.00000  Uiso   1.00
N1213  N     0.50000   0.95240   0.50000   0.00000  Uiso   1.00
N1214  N     0.50000   0.71427   0.50000   0.00000  Uiso   1.00
O1215  O     0.43892   0.87154   0.50000   0.00000  Uiso   1.00
O1216  O     0.56108   0.79513   0.50000   0.00000  Uiso   1.00
O1217  O     0.56108   0.87154   0.50000   0.00000  Uiso   1.00
O1218  O     0.43892   0.79513   0.50000   0.00000  Uiso   1.00
O1219  O     0.50000   0.87155   0.42845   0.00000  Uiso   1.00
O1220  O     0.50000   0.79512   0.57155   0.00000  Uiso   1.00
O1221  O     0.50000   0.87155   0.57155   0.00000  Uiso   1.00
O1222  O     0.50000   0.79512   0.42845   0.00000  Uiso   1.00
Zn1223 Zn    0.50000   0.88437   0.50000   0.00000  Uiso   1.00
Zn1224 Zn    0.50000   0.78229   0.50000   0.00000  Uiso   1.00
C1225  C     0.75302   0.83322   0.49835   0.00000  Uiso   1.00
C1226  C     0.68612   0.87122   0.51116   0.00000  Uiso   1.00
C1227  C     0.95646   0.83666   0.48201   0.00000  Uiso   1.00
C1228  C     0.70810   0.83468   0.49057   0.00000  Uiso   1.00
C1229  C     0.85757   0.69150   0.53409   0.00000  Uiso   1.00
C1230  C     0.80868   0.97487   0.46672   0.00000  Uiso   1.00
C1231  C     0.81012   0.68902   0.46524   0.00000  Uiso   1.00
C1232  C     0.85826   0.97708   0.53331   0.00000  Uiso   1.00
C1233  C     0.71031   0.78351   0.41242   0.00000  Uiso   1.00
C1234  C     0.70412   0.80699   0.36176   0.00000  Uiso   1.00
C1235  C     0.71757   0.77704   0.65201   0.00000  Uiso   1.00
C1236  C     0.91291   0.83401   0.49451   0.00000  Uiso   1.00
C1237  C     0.97052   0.91712   0.46109   0.00000  Uiso   1.00
C1238  C     0.98687   0.90927   0.40799   0.00000  Uiso   1.00
C1239  C     0.97758   0.94776   0.37286   0.00000  Uiso   1.00
C1240  C     0.95071   0.76932   0.42266   0.00000  Uiso   1.00
C1241  C     0.94626   0.72354   0.44743   0.00000  Uiso   1.00
C1242  C     0.91322   0.69478   0.41880   0.00000  Uiso   1.00
C1243  C     0.70488   0.90788   0.54600   0.00000  Uiso   1.00
C1244  C     0.72180   0.88956   0.59588   0.00000  Uiso   1.00
C1245  C     0.74736   0.92534   0.62529   0.00000  Uiso   1.00
C1246  C     0.83310   0.83320   0.40633   0.00000  Uiso   1.00
C1247  C     0.83336   0.83347   0.59366   0.00000  Uiso   1.00
C1248  C     0.83308   0.83314   0.35516   0.00000  Uiso   1.00
C1249  C     0.83318   0.83353   0.64484   0.00000  Uiso   1.00
C1250  C     0.68714   0.80579   0.45446   0.00000  Uiso   1.00
C1251  C     0.97875   0.87639   0.49366   0.00000  Uiso   1.00
C1252  C     0.97634   0.80285   0.45515   0.00000  Uiso   1.00
Cl1253 Cl    0.88971   0.72135   0.57828   0.00000  Uiso   1.00
Cl1254 Cl    0.77476   0.94456   0.42501   0.00000  Uiso   1.00
Cl1255 Cl    0.78578   0.71405   0.41377   0.00000  Uiso   1.00
Cl1256 Cl    0.89218   0.94939   0.57508   0.00000  Uiso   1.00
H1257  H     0.75178   0.77123   0.65519   0.00000  Uiso   1.00
H1258  H     0.99115   0.94102   0.33581   0.00000  Uiso   1.00
H1259  H     0.68796   0.90461   0.41000   0.00000  Uiso   1.00
H1260  H     0.97160   0.87855   0.39134   0.00000  Uiso   1.00
H1261  H     0.93666   0.92397   0.45813   0.00000  Uiso   1.00
H1262  H     0.98612   0.94775   0.47754   0.00000  Uiso   1.00
H1263  H     0.88269   0.71152   0.41826   0.00000  Uiso   1.00
H1264  H     0.92245   0.69002   0.37937   0.00000  Uiso   1.00
H1265  H     0.90940   0.99515   0.43706   0.00000  Uiso   1.00
H1266  H     0.97676   0.70653   0.44755   0.00000  Uiso   1.00
H1267  H     0.93696   0.72714   0.48692   0.00000  Uiso   1.00
H1268  H     0.70013   0.74434   0.65243   0.00000  Uiso   1.00
H1269  H     0.91931   0.78278   0.41370   0.00000  Uiso   1.00
H1270  H     0.96433   0.76430   0.38549   0.00000  Uiso   1.00
H1271  H     0.77442   0.93733   0.60327   0.00000  Uiso   1.00
H1272  H     0.72762   0.95415   0.63448   0.00000  Uiso   1.00
H1273  H     0.75963   0.91064   0.66055   0.00000  Uiso   1.00
H1274  H     0.69501   0.87791   0.61855   0.00000  Uiso   1.00
H1275  H     0.74230   0.86084   0.58990   0.00000  Uiso   1.00
H1276  H     0.72900   0.92815   0.52660   0.00000  Uiso   1.00
H1277  H     0.68038   0.93203   0.55577   0.00000  Uiso   1.00
H1278  H     0.71052   0.79309   0.61555   0.00000  Uiso   1.00
H1279  H     0.67117   0.81630   0.35457   0.00000  Uiso   1.00
H1280  H     0.72340   0.83857   0.36206   0.00000  Uiso   1.00
H1281  H     0.74425   0.78562   0.41946   0.00000  Uiso   1.00
H1282  H     0.70086   0.74749   0.40994   0.00000  Uiso   1.00
H1283  H     0.94318   0.95039   0.36715   0.00000  Uiso   1.00
H1284  H     0.99160   0.97961   0.38816   0.00000  Uiso   1.00
N1285  N     0.83333   0.95240   0.50000   0.00000  Uiso   1.00
N1286  N     0.83333   0.71427   0.50000   0.00000  Uiso   1.00
O1287  O     0.77226   0.87154   0.50000   0.00000  Uiso   1.00
O1288  O     0.89441   0.79513   0.50000   0.00000  Uiso   1.00
O1289  O     0.89441   0.87154   0.50000   0.00000  Uiso   1.00
O1290  O     0.77226   0.79513   0.50000   0.00000  Uiso   1.00
O1291  O     0.83334   0.87155   0.42845   0.00000  Uiso   1.00
O1292  O     0.83333   0.79512   0.57155   0.00000  Uiso   1.00
O1293  O     0.83333   0.87155   0.57155   0.00000  Uiso   1.00
O1294  O     0.83334   0.79512   0.42845   0.00000  Uiso   1.00
Zn1295 Zn    0.83333   0.88437   0.50000   0.00000  Uiso   1.00
Zn1296 Zn    0.83333   0.78229   0.50000   0.00000  Uiso   1.00
C1297  C     0.08636   0.16656   0.83169   0.00000  Uiso   1.00
C1298  C     0.01946   0.20455   0.84449   0.00000  Uiso   1.00
C1299  C     0.28980   0.16999   0.81534   0.00000  Uiso   1.00
C1300  C     0.04144   0.16802   0.82390   0.00000  Uiso   1.00
C1301  C     0.19090   0.02484   0.86743   0.00000  Uiso   1.00
C1302  C     0.14201   0.30820   0.80006   0.00000  Uiso   1.00
C1303  C     0.14346   0.02235   0.79857   0.00000  Uiso   1.00
C1304  C     0.19160   0.31041   0.86664   0.00000  Uiso   1.00
C1305  C     0.04364   0.11684   0.74575   0.00000  Uiso   1.00
C1306  C     0.03745   0.14032   0.69509   0.00000  Uiso   1.00
C1307  C     0.05090   0.11037   0.98534   0.00000  Uiso   1.00
C1308  C     0.24624   0.16734   0.82784   0.00000  Uiso   1.00
C1309  C     0.30385   0.25045   0.79442   0.00000  Uiso   1.00
C1310  C     0.32020   0.24260   0.74132   0.00000  Uiso   1.00
C1311  C     0.31092   0.28109   0.70619   0.00000  Uiso   1.00
C1312  C     0.28404   0.10265   0.75599   0.00000  Uiso   1.00
C1313  C     0.27959   0.05687   0.78076   0.00000  Uiso   1.00
C1314  C     0.24655   0.02811   0.75214   0.00000  Uiso   1.00
C1315  C     0.03821   0.24121   0.87934   0.00000  Uiso   1.00
C1316  C     0.05514   0.22289   0.92921   0.00000  Uiso   1.00
C1317  C     0.08069   0.25867   0.95863   0.00000  Uiso   1.00
C1318  C     0.16643   0.16653   0.73966   0.00000  Uiso   1.00
C1319  C     0.16670   0.16680   0.92699   0.00000  Uiso   1.00
C1320  C     0.16642   0.16648   0.68849   0.00000  Uiso   1.00
C1321  C     0.16651   0.16686   0.97817   0.00000  Uiso   1.00
C1322  C     0.02047   0.13912   0.78779   0.00000  Uiso   1.00
C1323  C     0.31208   0.20973   0.82699   0.00000  Uiso   1.00
C1324  C     0.30967   0.13619   0.78848   0.00000  Uiso   1.00
Cl1325 Cl    0.22304   0.05469   0.91161   0.00000  Uiso   1.00
Cl1326 Cl    0.10809   0.27789   0.75835   0.00000  Uiso   1.00
Cl1327 Cl    0.11912   0.04738   0.74710   0.00000  Uiso   1.00
Cl1328 Cl    0.22551   0.28273   0.90842   0.00000  Uiso   1.00
H1329  H     0.08511   0.10457   0.98852   0.00000  Uiso   1.00
H1330  H     0.32449   0.27436   0.66914   0.00000  Uiso   1.00
H1331  H     0.02129   0.23794   0.74333   0.00000  Uiso   1.00
H1332  H     0.30493   0.21189   0.72467   0.00000  Uiso   1.00
H1333  H     0.26999   0.25730   0.79147   0.00000  Uiso   1.00
H1334  H     0.31945   0.28109   0.81087   0.00000  Uiso   1.00
H1335  H     0.21602   0.04486   0.75159   0.00000  Uiso   1.00
H1336  H     0.25578   0.02336   0.71271   0.00000  Uiso   1.00
H1337  H     0.24273   0.32848   0.77039   0.00000  Uiso   1.00
H1338  H     0.31009   0.03986   0.78088   0.00000  Uiso   1.00
H1339  H     0.27029   0.06047   0.82025   0.00000  Uiso   1.00
H1340  H     0.03347   0.07768   0.98576   0.00000  Uiso   1.00
H1341  H     0.25264   0.11611   0.74703   0.00000  Uiso   1.00
H1342  H     0.29767   0.09763   0.71882   0.00000  Uiso   1.00
H1343  H     0.10775   0.27067   0.93660   0.00000  Uiso   1.00
H1344  H     0.06096   0.28748   0.96781   0.00000  Uiso   1.00
H1345  H     0.09297   0.24398   0.99388   0.00000  Uiso   1.00
H1346  H     0.02834   0.21124   0.95188   0.00000  Uiso   1.00
H1347  H     0.07563   0.19417   0.92323   0.00000  Uiso   1.00
H1348  H     0.06233   0.26148   0.85993   0.00000  Uiso   1.00
H1349  H     0.01371   0.26536   0.88910   0.00000  Uiso   1.00
H1350  H     0.04385   0.12642   0.94889   0.00000  Uiso   1.00
H1351  H     0.00450   0.14964   0.68790   0.00000  Uiso   1.00
H1352  H     0.05673   0.17190   0.69540   0.00000  Uiso   1.00
H1353  H     0.07759   0.11896   0.75279   0.00000  Uiso   1.00
H1354  H     0.03419   0.08083   0.74327   0.00000  Uiso   1.00
H1355  H     0.27651   0.28372   0.70049   0.00000  Uiso   1.00
H1356  H     0.32493   0.31294   0.72150   0.00000  Uiso   1.00
N1357  N     0.16667   0.28573   0.83333   0.00000  Uiso   1.00
N1358  N     0.16667   0.04760   0.83333   0.00000  Uiso   1.00
O1359  O     0.10559   0.20487   0.83333   0.00000  Uiso   1.00
O1360  O     0.22774   0.12846   0.83334   0.00000  Uiso   1.00
O1361  O     0.22774   0.20487   0.83334   0.00000  Uiso   1.00
O1362  O     0.10559   0.12846   0.83333   0.00000  Uiso   1.00
O1363  O     0.16667   0.20488   0.76178   0.00000  Uiso   1.00
O1364  O     0.16666   0.12845   0.90489   0.00000  Uiso   1.00
O1365  O     0.16666   0.20488   0.90489   0.00000  Uiso   1.00
O1366  O     0.16667   0.12845   0.76178   0.00000  Uiso   1.00
Zn1367 Zn    0.16667   0.21771   0.83333   0.00000  Uiso   1.00
Zn1368 Zn    0.16667   0.11563   0.83333   0.00000  Uiso   1.00
C1369  C     0.41969   0.16656   0.83169   0.00000  Uiso   1.00
C1370  C     0.35279   0.20455   0.84449   0.00000  Uiso   1.00
C1371  C     0.62313   0.16999   0.81534   0.00000  Uiso   1.00
C1372  C     0.37477   0.16802   0.82390   0.00000  Uiso   1.00
C1373  C     0.52423   0.02484   0.86743   0.00000  Uiso   1.00
C1374  C     0.47535   0.30820   0.80006   0.00000  Uiso   1.00
C1375  C     0.47679   0.02235   0.79857   0.00000  Uiso   1.00
C1376  C     0.52493   0.31041   0.86664   0.00000  Uiso   1.00
C1377  C     0.37698   0.11684   0.74575   0.00000  Uiso   1.00
C1378  C     0.37079   0.14032   0.69509   0.00000  Uiso   1.00
C1379  C     0.38424   0.11037   0.98534   0.00000  Uiso   1.00
C1380  C     0.57957   0.16734   0.82784   0.00000  Uiso   1.00
C1381  C     0.63719   0.25045   0.79442   0.00000  Uiso   1.00
C1382  C     0.65353   0.24260   0.74132   0.00000  Uiso   1.00
C1383  C     0.64425   0.28109   0.70619   0.00000  Uiso   1.00
C1384  C     0.61738   0.10265   0.75599   0.00000  Uiso   1.00
C1385  C     0.61293   0.05687   0.78076   0.00000  Uiso   1.00
C1386  C     0.57989   0.02811   0.75214   0.00000  Uiso   1.00
C1387  C     0.37154   0.24121   0.87934   0.00000  Uiso   1.00
C1388  C     0.38847   0.22289   0.92921   0.00000  Uiso   1.00
C1389  C     0.41403   0.25867   0.95863   0.00000  Uiso   1.00
C1390  C     0.49976   0.16653   0.73966   0.00000  Uiso   1.00
C1391  C     0.50003   0.16680   0.92699   0.00000  Uiso   1.00
C1392  C     0.49975   0.16648   0.68849   0.00000  Uiso   1.00
C1393  C     0.49985   0.16686   0.97817   0.00000  Uiso   1.00
C1394  C     0.35380   0.13912   0.78779   0.00000  Uiso   1.00
C1395  C     0.64541   0.20973   0.82699   0.00000  Uiso   1.00
C1396  C     0.64301   0.13619   0.78848   0.00000  Uiso   1.00
Cl1397 Cl    0.55637   0.05469   0.91161   0.00000  Uiso   1.00
Cl1398 Cl    0.44142   0.27789   0.75835   0.00000  Uiso   1.00
Cl1399 Cl    0.45245   0.04738   0.74710   0.00000  Uiso   1.00
Cl1400 Cl    0.55884   0.28273   0.90842   0.00000  Uiso   1.00
H1401  H     0.41844   0.10457   0.98852   0.00000  Uiso   1.00
H1402  H     0.65782   0.27436   0.66914   0.00000  Uiso   1.00
H1403  H     0.35462   0.23794   0.74333   0.00000  Uiso   1.00
H1404  H     0.63826   0.21189   0.72467   0.00000  Uiso   1.00
H1405  H     0.60332   0.25730   0.79147   0.00000  Uiso   1.00
H1406  H     0.65278   0.28109   0.81087   0.00000  Uiso   1.00
H1407  H     0.54935   0.04486   0.75159   0.00000  Uiso   1.00
H1408  H     0.58912   0.02336   0.71271   0.00000  Uiso   1.00
H1409  H     0.57607   0.32848   0.77039   0.00000  Uiso   1.00
H1410  H     0.64342   0.03986   0.78088   0.00000  Uiso   1.00
H1411  H     0.60363   0.06047   0.82025   0.00000  Uiso   1.00
H1412  H     0.36680   0.07768   0.98576   0.00000  Uiso   1.00
H1413  H     0.58598   0.11611   0.74703   0.00000  Uiso   1.00
H1414  H     0.63100   0.09763   0.71882   0.00000  Uiso   1.00
H1415  H     0.44108   0.27067   0.93660   0.00000  Uiso   1.00
H1416  H     0.39429   0.28748   0.96781   0.00000  Uiso   1.00
H1417  H     0.42630   0.24398   0.99388   0.00000  Uiso   1.00
H1418  H     0.36168   0.21124   0.95188   0.00000  Uiso   1.00
H1419  H     0.40897   0.19417   0.92323   0.00000  Uiso   1.00
H1420  H     0.39566   0.26148   0.85993   0.00000  Uiso   1.00
H1421  H     0.34704   0.26536   0.88910   0.00000  Uiso   1.00
H1422  H     0.37719   0.12642   0.94889   0.00000  Uiso   1.00
H1423  H     0.33783   0.14964   0.68790   0.00000  Uiso   1.00
H1424  H     0.39007   0.17190   0.69540   0.00000  Uiso   1.00
H1425  H     0.41092   0.11896   0.75279   0.00000  Uiso   1.00
H1426  H     0.36753   0.08083   0.74327   0.00000  Uiso   1.00
H1427  H     0.60985   0.28372   0.70049   0.00000  Uiso   1.00
H1428  H     0.65826   0.31294   0.72150   0.00000  Uiso   1.00
N1429  N     0.50000   0.28573   0.83333   0.00000  Uiso   1.00
N1430  N     0.50000   0.04760   0.83333   0.00000  Uiso   1.00
O1431  O     0.43892   0.20487   0.83333   0.00000  Uiso   1.00
O1432  O     0.56108   0.12846   0.83334   0.00000  Uiso   1.00
O1433  O     0.56108   0.20487   0.83334   0.00000  Uiso   1.00
O1434  O     0.43892   0.12846   0.83333   0.00000  Uiso   1.00
O1435  O     0.50000   0.20488   0.76178   0.00000  Uiso   1.00
O1436  O     0.50000   0.12845   0.90489   0.00000  Uiso   1.00
O1437  O     0.50000   0.20488   0.90489   0.00000  Uiso   1.00
O1438  O     0.50000   0.12845   0.76178   0.00000  Uiso   1.00
Zn1439 Zn    0.50000   0.21771   0.83333   0.00000  Uiso   1.00
Zn1440 Zn    0.50000   0.11563   0.83333   0.00000  Uiso   1.00
C1441  C     0.75302   0.16656   0.83169   0.00000  Uiso   1.00
C1442  C     0.68612   0.20455   0.84449   0.00000  Uiso   1.00
C1443  C     0.95646   0.16999   0.81534   0.00000  Uiso   1.00
C1444  C     0.70810   0.16802   0.82390   0.00000  Uiso   1.00
C1445  C     0.85757   0.02484   0.86743   0.00000  Uiso   1.00
C1446  C     0.80868   0.30820   0.80006   0.00000  Uiso   1.00
C1447  C     0.81012   0.02235   0.79857   0.00000  Uiso   1.00
C1448  C     0.85826   0.31041   0.86664   0.00000  Uiso   1.00
C1449  C     0.71031   0.11684   0.74575   0.00000  Uiso   1.00
C1450  C     0.70412   0.14032   0.69509   0.00000  Uiso   1.00
C1451  C     0.71757   0.11037   0.98534   0.00000  Uiso   1.00
C1452  C     0.91291   0.16734   0.82784   0.00000  Uiso   1.00
C1453  C     0.97052   0.25045   0.79442   0.00000  Uiso   1.00
C1454  C     0.98687   0.24260   0.74132   0.00000  Uiso   1.00
C1455  C     0.97758   0.28109   0.70619   0.00000  Uiso   1.00
C1456  C     0.95071   0.10265   0.75599   0.00000  Uiso   1.00
C1457  C     0.94626   0.05687   0.78076   0.00000  Uiso   1.00
C1458  C     0.91322   0.02811   0.75214   0.00000  Uiso   1.00
C1459  C     0.70488   0.24121   0.87934   0.00000  Uiso   1.00
C1460  C     0.72180   0.22289   0.92921   0.00000  Uiso   1.00
C1461  C     0.74736   0.25867   0.95863   0.00000  Uiso   1.00
C1462  C     0.83310   0.16653   0.73966   0.00000  Uiso   1.00
C1463  C     0.83336   0.16680   0.92699   0.00000  Uiso   1.00
C1464  C     0.83308   0.16648   0.68849   0.00000  Uiso   1.00
C1465  C     0.83318   0.16686   0.97817   0.00000  Uiso   1.00
C1466  C     0.68714   0.13912   0.78779   0.00000  Uiso   1.00
C1467  C     0.97875   0.20973   0.82699   0.00000  Uiso   1.00
C1468  C     0.97634   0.13619   0.78848   0.00000  Uiso   1.00
Cl1469 Cl    0.88971   0.05469   0.91161   0.00000  Uiso   1.00
Cl1470 Cl    0.77476   0.27789   0.75835   0.00000  Uiso   1.00
Cl1471 Cl    0.78578   0.04738   0.74710   0.00000  Uiso   1.00
Cl1472 Cl    0.89218   0.28273   0.90842   0.00000  Uiso   1.00
H1473  H     0.75178   0.10457   0.98852   0.00000  Uiso   1.00
H1474  H     0.99115   0.27436   0.66914   0.00000  Uiso   1.00
H1475  H     0.68796   0.23794   0.74333   0.00000  Uiso   1.00
H1476  H     0.97160   0.21189   0.72467   0.00000  Uiso   1.00
H1477  H     0.93666   0.25730   0.79147   0.00000  Uiso   1.00
H1478  H     0.98612   0.28109   0.81087   0.00000  Uiso   1.00
H1479  H     0.88269   0.04486   0.75159   0.00000  Uiso   1.00
H1480  H     0.92245   0.02336   0.71271   0.00000  Uiso   1.00
H1481  H     0.90940   0.32848   0.77039   0.00000  Uiso   1.00
H1482  H     0.97676   0.03986   0.78088   0.00000  Uiso   1.00
H1483  H     0.93696   0.06047   0.82025   0.00000  Uiso   1.00
H1484  H     0.70013   0.07768   0.98576   0.00000  Uiso   1.00
H1485  H     0.91931   0.11611   0.74703   0.00000  Uiso   1.00
H1486  H     0.96433   0.09763   0.71882   0.00000  Uiso   1.00
H1487  H     0.77442   0.27067   0.93660   0.00000  Uiso   1.00
H1488  H     0.72762   0.28748   0.96781   0.00000  Uiso   1.00
H1489  H     0.75963   0.24398   0.99388   0.00000  Uiso   1.00
H1490  H     0.69501   0.21124   0.95188   0.00000  Uiso   1.00
H1491  H     0.74230   0.19417   0.92323   0.00000  Uiso   1.00
H1492  H     0.72900   0.26148   0.85993   0.00000  Uiso   1.00
H1493  H     0.68038   0.26536   0.88910   0.00000  Uiso   1.00
H1494  H     0.71052   0.12642   0.94889   0.00000  Uiso   1.00
H1495  H     0.67117   0.14964   0.68790   0.00000  Uiso   1.00
H1496  H     0.72340   0.17190   0.69540   0.00000  Uiso   1.00
H1497  H     0.74425   0.11896   0.75279   0.00000  Uiso   1.00
H1498  H     0.70086   0.08083   0.74327   0.00000  Uiso   1.00
H1499  H     0.94318   0.28372   0.70049   0.00000  Uiso   1.00
H1500  H     0.99160   0.31294   0.72150   0.00000  Uiso   1.00
N1501  N     0.83333   0.28573   0.83333   0.00000  Uiso   1.00
N1502  N     0.83333   0.04760   0.83333   0.00000  Uiso   1.00
O1503  O     0.77226   0.20487   0.83333   0.00000  Uiso   1.00
O1504  O     0.89441   0.12846   0.83334   0.00000  Uiso   1.00
O1505  O     0.89441   0.20487   0.83334   0.00000  Uiso   1.00
O1506  O     0.77226   0.12846   0.83333   0.00000  Uiso   1.00
O1507  O     0.83334   0.20488   0.76178   0.00000  Uiso   1.00
O1508  O     0.83333   0.12845   0.90489   0.00000  Uiso   1.00
O1509  O     0.83333   0.20488   0.90489   0.00000  Uiso   1.00
O1510  O     0.83334   0.12845   0.76178   0.00000  Uiso   1.00
Zn1511 Zn    0.83333   0.21771   0.83333   0.00000  Uiso   1.00
Zn1512 Zn    0.83333   0.11563   0.83333   0.00000  Uiso   1.00
C1513  C     0.08636   0.49989   0.83169   0.00000  Uiso   1.00
C1514  C     0.01946   0.53789   0.84449   0.00000  Uiso   1.00
C1515  C     0.28980   0.50332   0.81534   0.00000  Uiso   1.00
C1516  C     0.04144   0.50135   0.82390   0.00000  Uiso   1.00
C1517  C     0.19090   0.35817   0.86743   0.00000  Uiso   1.00
C1518  C     0.14201   0.64153   0.80006   0.00000  Uiso   1.00
C1519  C     0.14346   0.35568   0.79857   0.00000  Uiso   1.00
C1520  C     0.19160   0.64374   0.86664   0.00000  Uiso   1.00
C1521  C     0.04364   0.45017   0.74575   0.00000  Uiso   1.00
C1522  C     0.03745   0.47366   0.69509   0.00000  Uiso   1.00
C1523  C     0.05090   0.44371   0.98534   0.00000  Uiso   1.00
C1524  C     0.24624   0.50068   0.82784   0.00000  Uiso   1.00
C1525  C     0.30385   0.58379   0.79442   0.00000  Uiso   1.00
C1526  C     0.32020   0.57593   0.74132   0.00000  Uiso   1.00
C1527  C     0.31092   0.61442   0.70619   0.00000  Uiso   1.00
C1528  C     0.28404   0.43599   0.75599   0.00000  Uiso   1.00
C1529  C     0.27959   0.39021   0.78076   0.00000  Uiso   1.00
C1530  C     0.24655   0.36145   0.75214   0.00000  Uiso   1.00
C1531  C     0.03821   0.57454   0.87934   0.00000  Uiso   1.00
C1532  C     0.05514   0.55622   0.92921   0.00000  Uiso   1.00
C1533  C     0.08069   0.59201   0.95863   0.00000  Uiso   1.00
C1534  C     0.16643   0.49986   0.73966   0.00000  Uiso   1.00
C1535  C     0.16670   0.50014   0.92699   0.00000  Uiso   1.00
C1536  C     0.16642   0.49981   0.68849   0.00000  Uiso   1.00
C1537  C     0.16651   0.50020   0.97817   0.00000  Uiso   1.00
C1538  C     0.02047   0.47245   0.78779   0.00000  Uiso   1.00
C1539  C     0.31208   0.54306   0.82699   0.00000  Uiso   1.00
C1540  C     0.30967   0.46952   0.78848   0.00000  Uiso   1.00
Cl1541 Cl    0.22304   0.38802   0.91161   0.00000  Uiso   1.00
Cl1542 Cl    0.10809   0.61122   0.75835   0.00000  Uiso   1.00
Cl1543 Cl    0.11912   0.38072   0.74710   0.00000  Uiso   1.00
Cl1544 Cl    0.22551   0.61606   0.90842   0.00000  Uiso   1.00
H1545  H     0.08511   0.43790   0.98852   0.00000  Uiso   1.00
H1546  H     0.32449   0.60769   0.66914   0.00000  Uiso   1.00
H1547  H     0.02129   0.57128   0.74333   0.00000  Uiso   1.00
H1548  H     0.30493   0.54522   0.72467   0.00000  Uiso   1.00
H1549  H     0.26999   0.59064   0.79147   0.00000  Uiso   1.00
H1550  H     0.31945   0.61442   0.81087   0.00000  Uiso   1.00
H1551  H     0.21602   0.37819   0.75159   0.00000  Uiso   1.00
H1552  H     0.25578   0.35669   0.71271   0.00000  Uiso   1.00
H1553  H     0.24273   0.66181   0.77039   0.00000  Uiso   1.00
H1554  H     0.31009   0.37319   0.78088   0.00000  Uiso   1.00
H1555  H     0.27029   0.39381   0.82025   0.00000  Uiso   1.00
H1556  H     0.03347   0.41101   0.98576   0.00000  Uiso   1.00
H1557  H     0.25264   0.44945   0.74703   0.00000  Uiso   1.00
H1558  H     0.29767   0.43096   0.71882   0.00000  Uiso   1.00
H1559  H     0.10775   0.60400   0.93660   0.00000  Uiso   1.00
H1560  H     0.06096   0.62082   0.96781   0.00000  Uiso   1.00
H1561  H     0.09297   0.57731   0.99388   0.00000  Uiso   1.00
H1562  H     0.02834   0.54457   0.95188   0.00000  Uiso   1.00
H1563  H     0.07563   0.52751   0.92323   0.00000  Uiso   1.00
H1564  H     0.06233   0.59482   0.85993   0.00000  Uiso   1.00
H1565  H     0.01371   0.59870   0.88910   0.00000  Uiso   1.00
H1566  H     0.04385   0.45976   0.94889   0.00000  Uiso   1.00
H1567  H     0.00450   0.48297   0.68790   0.00000  Uiso   1.00
H1568  H     0.05673   0.50523   0.69540   0.00000  Uiso   1.00
H1569  H     0.07759   0.45229   0.75279   0.00000  Uiso   1.00
H1570  H     0.03419   0.41416   0.74327   0.00000  Uiso   1.00
H1571  H     0.27651   0.61706   0.70049   0.00000  Uiso   1.00
H1572  H     0.32493   0.64628   0.72150   0.00000  Uiso   1.00
N1573  N     0.16667   0.61907   0.83333   0.00000  Uiso   1.00
N1574  N     0.16667   0.38093   0.83333   0.00000  Uiso   1.00
O1575  O     0.10559   0.53821   0.83333   0.00000  Uiso   1.00
O1576  O     0.22774   0.46179   0.83334   0.00000  Uiso   1.00
O1577  O     0.22774   0.53821   0.83334   0.00000  Uiso   1.00
O1578  O     0.10559   0.46179   0.83333   0.00000  Uiso   1.00
O1579  O     0.16667   0.53821   0.76178   0.00000  Uiso   1.00
O1580  O     0.16666   0.46179   0.90489   0.00000  Uiso   1.00
O1581  O     0.16666   0.53821   0.90489   0.00000  Uiso   1.00
O1582  O     0.16667   0.46179   0.76178   0.00000  Uiso   1.00
Zn1583 Zn    0.16667   0.55104   0.83333   0.00000  Uiso   1.00
Zn1584 Zn    0.16667   0.44896   0.83333   0.00000  Uiso   1.00
C1585  C     0.41969   0.49989   0.83169   0.00000  Uiso   1.00
C1586  C     0.35279   0.53789   0.84449   0.00000  Uiso   1.00
C1587  C     0.62313   0.50332   0.81534   0.00000  Uiso   1.00
C1588  C     0.37477   0.50135   0.82390   0.00000  Uiso   1.00
C1589  C     0.52423   0.35817   0.86743   0.00000  Uiso   1.00
C1590  C     0.47535   0.64153   0.80006   0.00000  Uiso   1.00
C1591  C     0.47679   0.35568   0.79857   0.00000  Uiso   1.00
C1592  C     0.52493   0.64374   0.86664   0.00000  Uiso   1.00
C1593  C     0.37698   0.45017   0.74575   0.00000  Uiso   1.00
C1594  C     0.37079   0.47366   0.69509   0.00000  Uiso   1.00
C1595  C     0.38424   0.44371   0.98534   0.00000  Uiso   1.00
C1596  C     0.57957   0.50068   0.82784   0.00000  Uiso   1.00
C1597  C     0.63719   0.58379   0.79442   0.00000  Uiso   1.00
C1598  C     0.65353   0.57593   0.74132   0.00000  Uiso   1.00
C1599  C     0.64425   0.61442   0.70619   0.00000  Uiso   1.00
C1600  C     0.61738   0.43599   0.75599   0.00000  Uiso   1.00
C1601  C     0.61293   0.39021   0.78076   0.00000  Uiso   1.00
C1602  C     0.57989   0.36145   0.75214   0.00000  Uiso   1.00
C1603  C     0.37154   0.57454   0.87934   0.00000  Uiso   1.00
C1604  C     0.38847   0.55622   0.92921   0.00000  Uiso   1.00
C1605  C     0.41403   0.59201   0.95863   0.00000  Uiso   1.00
C1606  C     0.49976   0.49986   0.73966   0.00000  Uiso   1.00
C1607  C     0.50003   0.50014   0.92699   0.00000  Uiso   1.00
C1608  C     0.49975   0.49981   0.68849   0.00000  Uiso   1.00
C1609  C     0.49985   0.50020   0.97817   0.00000  Uiso   1.00
C1610  C     0.35380   0.47245   0.78779   0.00000  Uiso   1.00
C1611  C     0.64541   0.54306   0.82699   0.00000  Uiso   1.00
C1612  C     0.64301   0.46952   0.78848   0.00000  Uiso   1.00
Cl1613 Cl    0.55637   0.38802   0.91161   0.00000  Uiso   1.00
Cl1614 Cl    0.44142   0.61122   0.75835   0.00000  Uiso   1.00
Cl1615 Cl    0.45245   0.38072   0.74710   0.00000  Uiso   1.00
Cl1616 Cl    0.55884   0.61606   0.90842   0.00000  Uiso   1.00
H1617  H     0.41844   0.43790   0.98852   0.00000  Uiso   1.00
H1618  H     0.65782   0.60769   0.66914   0.00000  Uiso   1.00
H1619  H     0.35462   0.57128   0.74333   0.00000  Uiso   1.00
H1620  H     0.63826   0.54522   0.72467   0.00000  Uiso   1.00
H1621  H     0.60332   0.59064   0.79147   0.00000  Uiso   1.00
H1622  H     0.65278   0.61442   0.81087   0.00000  Uiso   1.00
H1623  H     0.54935   0.37819   0.75159   0.00000  Uiso   1.00
H1624  H     0.58912   0.35669   0.71271   0.00000  Uiso   1.00
H1625  H     0.57607   0.66181   0.77039   0.00000  Uiso   1.00
H1626  H     0.64342   0.37319   0.78088   0.00000  Uiso   1.00
H1627  H     0.60363   0.39381   0.82025   0.00000  Uiso   1.00
H1628  H     0.36680   0.41101   0.98576   0.00000  Uiso   1.00
H1629  H     0.58598   0.44945   0.74703   0.00000  Uiso   1.00
H1630  H     0.63100   0.43096   0.71882   0.00000  Uiso   1.00
H1631  H     0.44108   0.60400   0.93660   0.00000  Uiso   1.00
H1632  H     0.39429   0.62082   0.96781   0.00000  Uiso   1.00
H1633  H     0.42630   0.57731   0.99388   0.00000  Uiso   1.00
H1634  H     0.36168   0.54457   0.95188   0.00000  Uiso   1.00
H1635  H     0.40897   0.52751   0.92323   0.00000  Uiso   1.00
H1636  H     0.39566   0.59482   0.85993   0.00000  Uiso   1.00
H1637  H     0.34704   0.59870   0.88910   0.00000  Uiso   1.00
H1638  H     0.37719   0.45976   0.94889   0.00000  Uiso   1.00
H1639  H     0.33783   0.48297   0.68790   0.00000  Uiso   1.00
H1640  H     0.39007   0.50523   0.69540   0.00000  Uiso   1.00
H1641  H     0.41092   0.45229   0.75279   0.00000  Uiso   1.00
H1642  H     0.36753   0.41416   0.74327   0.00000  Uiso   1.00
H1643  H     0.60985   0.61706   0.70049   0.00000  Uiso   1.00
H1644  H     0.65826   0.64628   0.72150   0.00000  Uiso   1.00
N1645  N     0.50000   0.61907   0.83333   0.00000  Uiso   1.00
N1646  N     0.50000   0.38093   0.83333   0.00000  Uiso   1.00
O1647  O     0.43892   0.53821   0.83333   0.00000  Uiso   1.00
O1648  O     0.56108   0.46179   0.83334   0.00000  Uiso   1.00
O1649  O     0.56108   0.53821   0.83334   0.00000  Uiso   1.00
O1650  O     0.43892   0.46179   0.83333   0.00000  Uiso   1.00
O1651  O     0.50000   0.53821   0.76178   0.00000  Uiso   1.00
O1652  O     0.50000   0.46179   0.90489   0.00000  Uiso   1.00
O1653  O     0.50000   0.53821   0.90489   0.00000  Uiso   1.00
O1654  O     0.50000   0.46179   0.76178   0.00000  Uiso   1.00
Zn1655 Zn    0.50000   0.55104   0.83333   0.00000  Uiso   1.00
Zn1656 Zn    0.50000   0.44896   0.83333   0.00000  Uiso   1.00
C1657  C     0.75302   0.49989   0.83169   0.00000  Uiso   1.00
C1658  C     0.68612   0.53789   0.84449   0.00000  Uiso   1.00
C1659  C     0.95646   0.50332   0.81534   0.00000  Uiso   1.00
C1660  C     0.70810   0.50135   0.82390   0.00000  Uiso   1.00
C1661  C     0.85757   0.35817   0.86743   0.00000  Uiso   1.00
C1662  C     0.80868   0.64153   0.80006   0.00000  Uiso   1.00
C1663  C     0.81012   0.35568   0.79857   0.00000  Uiso   1.00
C1664  C     0.85826   0.64374   0.86664   0.00000  Uiso   1.00
C1665  C     0.71031   0.45017   0.74575   0.00000  Uiso   1.00
C1666  C     0.70412   0.47366   0.69509   0.00000  Uiso   1.00
C1667  C     0.71757   0.44371   0.98534   0.00000  Uiso   1.00
C1668  C     0.91291   0.50068   0.82784   0.00000  Uiso   1.00
C1669  C     0.97052   0.58379   0.79442   0.00000  Uiso   1.00
C1670  C     0.98687   0.57593   0.74132   0.00000  Uiso   1.00
C1671  C     0.97758   0.61442   0.70619   0.00000  Uiso   1.00
C1672  C     0.95071   0.43599   0.75599   0.00000  Uiso   1.00
C1673  C     0.94626   0.39021   0.78076   0.00000  Uiso   1.00
C1674  C     0.91322   0.36145   0.75214   0.00000  Uiso   1.00
C1675  C     0.70488   0.57454   0.87934   0.00000  Uiso   1.00
C1676  C     0.72180   0.55622   0.92921   0.00000  Uiso   1.00
C1677  C     0.74736   0.59201   0.95863   0.00000  Uiso   1.00
C1678  C     0.83310   0.49986   0.73966   0.00000  Uiso   1.00
C1679  C     0.83336   0.50014   0.92699   0.00000  Uiso   1.00
C1680  C     0.83308   0.49981   0.68849   0.00000  Uiso   1.00
C1681  C     0.83318   0.50020   0.97817   0.00000  Uiso   1.00
C1682  C     0.68714   0.47245   0.78779   0.00000  Uiso   1.00
C1683  C     0.97875   0.54306   0.82699   0.00000  Uiso   1.00
C1684  C     0.97634   0.46952   0.78848   0.00000  Uiso   1.00
Cl1685 Cl    0.88971   0.38802   0.91161   0.00000  Uiso   1.00
Cl1686 Cl    0.77476   0.61122   0.75835   0.00000  Uiso   1.00
Cl1687 Cl    0.78578   0.38072   0.74710   0.00000  Uiso   1.00
Cl1688 Cl    0.89218   0.61606   0.90842   0.00000  Uiso   1.00
H1689  H     0.75178   0.43790   0.98852   0.00000  Uiso   1.00
H1690  H     0.99115   0.60769   0.66914   0.00000  Uiso   1.00
H1691  H     0.68796   0.57128   0.74333   0.00000  Uiso   1.00
H1692  H     0.97160   0.54522   0.72467   0.00000  Uiso   1.00
H1693  H     0.93666   0.59064   0.79147   0.00000  Uiso   1.00
H1694  H     0.98612   0.61442   0.81087   0.00000  Uiso   1.00
H1695  H     0.88269   0.37819   0.75159   0.00000  Uiso   1.00
H1696  H     0.92245   0.35669   0.71271   0.00000  Uiso   1.00
H1697  H     0.90940   0.66181   0.77039   0.00000  Uiso   1.00
H1698  H     0.97676   0.37319   0.78088   0.00000  Uiso   1.00
H1699  H     0.93696   0.39381   0.82025   0.00000  Uiso   1.00
H1700  H     0.70013   0.41101   0.98576   0.00000  Uiso   1.00
H1701  H     0.91931   0.44945   0.74703   0.00000  Uiso   1.00
H1702  H     0.96433   0.43096   0.71882   0.00000  Uiso   1.00
H1703  H     0.77442   0.60400   0.93660   0.00000  Uiso   1.00
H1704  H     0.72762   0.62082   0.96781   0.00000  Uiso   1.00
H1705  H     0.75963   0.57731   0.99388   0.00000  Uiso   1.00
H1706  H     0.69501   0.54457   0.95188   0.00000  Uiso   1.00
H1707  H     0.74230   0.52751   0.92323   0.00000  Uiso   1.00
H1708  H     0.72900   0.59482   0.85993   0.00000  Uiso   1.00
H1709  H     0.68038   0.59870   0.88910   0.00000  Uiso   1.00
H1710  H     0.71052   0.45976   0.94889   0.00000  Uiso   1.00
H1711  H     0.67117   0.48297   0.68790   0.00000  Uiso   1.00
H1712  H     0.72340   0.50523   0.69540   0.00000  Uiso   1.00
H1713  H     0.74425   0.45229   0.75279   0.00000  Uiso   1.00
H1714  H     0.70086   0.41416   0.74327   0.00000  Uiso   1.00
H1715  H     0.94318   0.61706   0.70049   0.00000  Uiso   1.00
H1716  H     0.99160   0.64628   0.72150   0.00000  Uiso   1.00
N1717  N     0.83333   0.61907   0.83333   0.00000  Uiso   1.00
N1718  N     0.83333   0.38093   0.83333   0.00000  Uiso   1.00
O1719  O     0.77226   0.53821   0.83333   0.00000  Uiso   1.00
O1720  O     0.89441   0.46179   0.83334   0.00000  Uiso   1.00
O1721  O     0.89441   0.53821   0.83334   0.00000  Uiso   1.00
O1722  O     0.77226   0.46179   0.83333   0.00000  Uiso   1.00
O1723  O     0.83334   0.53821   0.76178   0.00000  Uiso   1.00
O1724  O     0.83333   0.46179   0.90489   0.00000  Uiso   1.00
O1725  O     0.83333   0.53821   0.90489   0.00000  Uiso   1.00
O1726  O     0.83334   0.46179   0.76178   0.00000  Uiso   1.00
Zn1727 Zn    0.83333   0.55104   0.83333   0.00000  Uiso   1.00
Zn1728 Zn    0.83333   0.44896   0.83333   0.00000  Uiso   1.00
C1729  C     0.08636   0.83322   0.83169   0.00000  Uiso   1.00
C1730  C     0.01946   0.87122   0.84449   0.00000  Uiso   1.00
C1731  C     0.28980   0.83666   0.81534   0.00000  Uiso   1.00
C1732  C     0.04144   0.83468   0.82390   0.00000  Uiso   1.00
C1733  C     0.19090   0.69150   0.86743   0.00000  Uiso   1.00
C1734  C     0.14201   0.97487   0.80006   0.00000  Uiso   1.00
C1735  C     0.14346   0.68902   0.79857   0.00000  Uiso   1.00
C1736  C     0.19160   0.97708   0.86664   0.00000  Uiso   1.00
C1737  C     0.04364   0.78351   0.74575   0.00000  Uiso   1.00
C1738  C     0.03745   0.80699   0.69509   0.00000  Uiso   1.00
C1739  C     0.05090   0.77704   0.98534   0.00000  Uiso   1.00
C1740  C     0.24624   0.83401   0.82784   0.00000  Uiso   1.00
C1741  C     0.30385   0.91712   0.79442   0.00000  Uiso   1.00
C1742  C     0.32020   0.90927   0.74132   0.00000  Uiso   1.00
C1743  C     0.31092   0.94776   0.70619   0.00000  Uiso   1.00
C1744  C     0.28404   0.76932   0.75599   0.00000  Uiso   1.00
C1745  C     0.27959   0.72354   0.78076   0.00000  Uiso   1.00
C1746  C     0.24655   0.69478   0.75214   0.00000  Uiso   1.00
C1747  C     0.03821   0.90788   0.87934   0.00000  Uiso   1.00
C1748  C     0.05514   0.88956   0.92921   0.00000  Uiso   1.00
C1749  C     0.08069   0.92534   0.95863   0.00000  Uiso   1.00
C1750  C     0.16643   0.83320   0.73966   0.00000  Uiso   1.00
C1751  C     0.16670   0.83347   0.92699   0.00000  Uiso   1.00
C1752  C     0.16642   0.83314   0.68849   0.00000  Uiso   1.00
C1753  C     0.16651   0.83353   0.97817   0.00000  Uiso   1.00
C1754  C     0.02047   0.80579   0.78779   0.00000  Uiso   1.00
C1755  C     0.31208   0.87639   0.82699   0.00000  Uiso   1.00
C1756  C     0.30967   0.80285   0.78848   0.00000  Uiso   1.00
Cl1757 Cl    0.22304   0.72135   0.91161   0.00000  Uiso   1.00
Cl1758 Cl    0.10809   0.94456   0.75835   0.00000  Uiso   1.00
Cl1759 Cl    0.11912   0.71405   0.74710   0.00000  Uiso   1.00
Cl1760 Cl    0.22551   0.94939   0.90842   0.00000  Uiso   1.00
H1761  H     0.08511   0.77123   0.98852   0.00000  Uiso   1.00
H1762  H     0.32449   0.94102   0.66914   0.00000  Uiso   1.00
H1763  H     0.02129   0.90461   0.74333   0.00000  Uiso   1.00
H1764  H     0.30493   0.87855   0.72467   0.00000  Uiso   1.00
H1765  H     0.26999   0.92397   0.79147   0.00000  Uiso   1.00
H1766  H     0.31945   0.94775   0.81087   0.00000  Uiso   1.00
H1767  H     0.21602   0.71152   0.75159   0.00000  Uiso   1.00
H1768  H     0.25578   0.69002   0.71271   0.00000  Uiso   1.00
H1769  H     0.24273   0.99515   0.77039   0.00000  Uiso   1.00
H1770  H     0.31009   0.70653   0.78088   0.00000  Uiso   1.00
H1771  H     0.27029   0.72714   0.82025   0.00000  Uiso   1.00
H1772  H     0.03347   0.74434   0.98576   0.00000  Uiso   1.00
H1773  H     0.25264   0.78278   0.74703   0.00000  Uiso   1.00
H1774  H     0.29767   0.76430   0.71882   0.00000  Uiso   1.00
H1775  H     0.10775   0.93733   0.93660   0.00000  Uiso   1.00
H1776  H     0.06096   0.95415   0.96781   0.00000  Uiso   1.00
H1777  H     0.09297   0.91064   0.99388   0.00000  Uiso   1.00
H1778  H     0.02834   0.87791   0.95188   0.00000  Uiso   1.00
H1779  H     0.07563   0.86084   0.92323   0.00000  Uiso   1.00
H1780  H     0.06233   0.92815   0.85993   0.00000  Uiso   1.00
H1781  H     0.01371   0.93203   0.88910   0.00000  Uiso   1.00
H1782  H     0.04385   0.79309   0.94889   0.00000  Uiso   1.00
H1783  H     0.00450   0.81630   0.68790   0.00000  Uiso   1.00
H1784  H     0.05673   0.83857   0.69540   0.00000  Uiso   1.00
H1785  H     0.07759   0.78562   0.75279   0.00000  Uiso   1.00
H1786  H     0.03419   0.74749   0.74327   0.00000  Uiso   1.00
H1787  H     0.27651   0.95039   0.70049   0.00000  Uiso   1.00
H1788  H     0.32493   0.97961   0.72150   0.00000  Uiso   1.00
N1789  N     0.16667   0.95240   0.83333   0.00000  Uiso   1.00
N1790  N     0.16667   0.71427   0.83333   0.00000  Uiso   1.00
O1791  O     0.10559   0.87154   0.83333   0.00000  Uiso   1.00
O1792  O     0.22774   0.79513   0.83334   0.00000  Uiso   1.00
O1793  O     0.22774   0.87154   0.83334   0.00000  Uiso   1.00
O1794  O     0.10559   0.79513   0.83333   0.00000  Uiso   1.00
O1795  O     0.16667   0.87155   0.76178   0.00000  Uiso   1.00
O1796  O     0.16666   0.79512   0.90489   0.00000  Uiso   1.00
O1797  O     0.16666   0.87155   0.90489   0.00000  Uiso   1.00
O1798  O     0.16667   0.79512   0.76178   0.00000  Uiso   1.00
Zn1799 Zn    0.16667   0.88437   0.83333   0.00000  Uiso   1.00
Zn1800 Zn    0.16667   0.78229   0.83333   0.00000  Uiso   1.00
C1801  C     0.41969   0.83322   0.83169   0.00000  Uiso   1.00
C1802  C     0.35279   0.87122   0.84449   0.00000  Uiso   1.00
C1803  C     0.62313   0.83666   0.81534   0.00000  Uiso   1.00
C1804  C     0.37477   0.83468   0.82390   0.00000  Uiso   1.00
C1805  C     0.52423   0.69150   0.86743   0.00000  Uiso   1.00
C1806  C     0.47535   0.97487   0.80006   0.00000  Uiso   1.00
C1807  C     0.47679   0.68902   0.79857   0.00000  Uiso   1.00
C1808  C     0.52493   0.97708   0.86664   0.00000  Uiso   1.00
C1809  C     0.37698   0.78351   0.74575   0.00000  Uiso   1.00
C1810  C     0.37079   0.80699   0.69509   0.00000  Uiso   1.00
C1811  C     0.38424   0.77704   0.98534   0.00000  Uiso   1.00
C1812  C     0.57957   0.83401   0.82784   0.00000  Uiso   1.00
C1813  C     0.63719   0.91712   0.79442   0.00000  Uiso   1.00
C1814  C     0.65353   0.90927   0.74132   0.00000  Uiso   1.00
C1815  C     0.64425   0.94776   0.70619   0.00000  Uiso   1.00
C1816  C     0.61738   0.76932   0.75599   0.00000  Uiso   1.00
C1817  C     0.61293   0.72354   0.78076   0.00000  Uiso   1.00
C1818  C     0.57989   0.69478   0.75214   0.00000  Uiso   1.00
C1819  C     0.37154   0.90788   0.87934   0.00000  Uiso   1.00
C1820  C     0.38847   0.88956   0.92921   0.00000  Uiso   1.00
C1821  C     0.41403   0.92534   0.95863   0.00000  Uiso   1.00
C1822  C     0.49976   0.83320   0.73966   0.00000  Uiso   1.00
C1823  C     0.50003   0.83347   0.92699   0.00000  Uiso   1.00
C1824  C     0.49975   0.83314   0.68849   0.00000  Uiso   1.00
C1825  C     0.49985   0.83353   0.97817   0.00000  Uiso   1.00
C1826  C     0.35380   0.80579   0.78779   0.00000  Uiso   1.00
C1827  C     0.64541   0.87639   0.82699   0.00000  Uiso   1.00
C1828  C     0.64301   0.80285   0.78848   0.00000  Uiso   1.00
Cl1829 Cl    0.55637   0.72135   0.91161   0.00000  Uiso   1.00
Cl1830 Cl    0.44142   0.94456   0.75835   0.00000  Uiso   1.00
Cl1831 Cl    0.45245   0.71405   0.74710   0.00000  Uiso   1.00
Cl1832 Cl    0.55884   0.94939   0.90842   0.00000  Uiso   1.00
H1833  H     0.41844   0.77123   0.98852   0.00000  Uiso   1.00
H1834  H     0.65782   0.94102   0.66914   0.00000  Uiso   1.00
H1835  H     0.35462   0.90461   0.74333   0.00000  Uiso   1.00
H1836  H     0.63826   0.87855   0.72467   0.00000  Uiso   1.00
H1837  H     0.60332   0.92397   0.79147   0.00000  Uiso   1.00
H1838  H     0.65278   0.94775   0.81087   0.00000  Uiso   1.00
H1839  H     0.54935   0.71152   0.75159   0.00000  Uiso   1.00
H1840  H     0.58912   0.69002   0.71271   0.00000  Uiso   1.00
H1841  H     0.57607   0.99515   0.77039   0.00000  Uiso   1.00
H1842  H     0.64342   0.70653   0.78088   0.00000  Uiso   1.00
H1843  H     0.60363   0.72714   0.82025   0.00000  Uiso   1.00
H1844  H     0.36680   0.74434   0.98576   0.00000  Uiso   1.00
H1845  H     0.58598   0.78278   0.74703   0.00000  Uiso   1.00
H1846  H     0.63100   0.76430   0.71882   0.00000  Uiso   1.00
H1847  H     0.44108   0.93733   0.93660   0.00000  Uiso   1.00
H1848  H     0.39429   0.95415   0.96781   0.00000  Uiso   1.00
H1849  H     0.42630   0.91064   0.99388   0.00000  Uiso   1.00
H1850  H     0.36168   0.87791   0.95188   0.00000  Uiso   1.00
H1851  H     0.40897   0.86084   0.92323   0.00000  Uiso   1.00
H1852  H     0.39566   0.92815   0.85993   0.00000  Uiso   1.00
H1853  H     0.34704   0.93203   0.88910   0.00000  Uiso   1.00
H1854  H     0.37719   0.79309   0.94889   0.00000  Uiso   1.00
H1855  H     0.33783   0.81630   0.68790   0.00000  Uiso   1.00
H1856  H     0.39007   0.83857   0.69540   0.00000  Uiso   1.00
H1857  H     0.41092   0.78562   0.75279   0.00000  Uiso   1.00
H1858  H     0.36753   0.74749   0.74327   0.00000  Uiso   1.00
H1859  H     0.60985   0.95039   0.70049   0.00000  Uiso   1.00
H1860  H     0.65826   0.97961   0.72150   0.00000  Uiso   1.00
N1861  N     0.50000   0.95240   0.83333   0.00000  Uiso   1.00
N1862  N     0.50000   0.71427   0.83333   0.00000  Uiso   1.00
O1863  O     0.43892   0.87154   0.83333   0.00000  Uiso   1.00
O1864  O     0.56108   0.79513   0.83334   0.00000  Uiso   1.00
O1865  O     0.56108   0.87154   0.83334   0.00000  Uiso   1.00
O1866  O     0.43892   0.79513   0.83333   0.00000  Uiso   1.00
O1867  O     0.50000   0.87155   0.76178   0.00000  Uiso   1.00
O1868  O     0.50000   0.79512   0.90489   0.00000  Uiso   1.00
O1869  O     0.50000   0.87155   0.90489   0.00000  Uiso   1.00
O1870  O     0.50000   0.79512   0.76178   0.00000  Uiso   1.00
Zn1871 Zn    0.50000   0.88437   0.83333   0.00000  Uiso   1.00
Zn1872 Zn    0.50000   0.78229   0.83333   0.00000  Uiso   1.00
C1873  C     0.75302   0.83322   0.83169   0.00000  Uiso   1.00
C1874  C     0.68612   0.87122   0.84449   0.00000  Uiso   1.00
C1875  C     0.95646   0.83666   0.81534   0.00000  Uiso   1.00
C1876  C     0.70810   0.83468   0.82390   0.00000  Uiso   1.00
C1877  C     0.85757   0.69150   0.86743   0.00000  Uiso   1.00
C1878  C     0.80868   0.97487   0.80006   0.00000  Uiso   1.00
C1879  C     0.81012   0.68902   0.79857   0.00000  Uiso   1.00
C1880  C     0.85826   0.97708   0.86664   0.00000  Uiso   1.00
C1881  C     0.71031   0.78351   0.74575   0.00000  Uiso   1.00
C1882  C     0.70412   0.80699   0.69509   0.00000  Uiso   1.00
C1883  C     0.71757   0.77704   0.98534   0.00000  Uiso   1.00
C1884  C     0.91291   0.83401   0.82784   0.00000  Uiso   1.00
C1885  C     0.97052   0.91712   0.79442   0.00000  Uiso   1.00
C1886  C     0.98687   0.90927   0.74132   0.00000  Uiso   1.00
C1887  C     0.97758   0.94776   0.70619   0.00000  Uiso   1.00
C1888  C     0.95071   0.76932   0.75599   0.00000  Uiso   1.00
C1889  C     0.94626   0.72354   0.78076   0.00000  Uiso   1.00
C1890  C     0.91322   0.69478   0.75214   0.00000  Uiso   1.00
C1891  C     0.70488   0.90788   0.87934   0.00000  Uiso   1.00
C1892  C     0.72180   0.88956   0.92921   0.00000  Uiso   1.00
C1893  C     0.74736   0.92534   0.95863   0.00000  Uiso   1.00
C1894  C     0.83310   0.83320   0.73966   0.00000  Uiso   1.00
C1895  C     0.83336   0.83347   0.92699   0.00000  Uiso   1.00
C1896  C     0.83308   0.83314   0.68849   0.00000  Uiso   1.00
C1897  C     0.83318   0.83353   0.97817   0.00000  Uiso   1.00
C1898  C     0.68714   0.80579   0.78779   0.00000  Uiso   1.00
C1899  C     0.97875   0.87639   0.82699   0.00000  Uiso   1.00
C1900  C     0.97634   0.80285   0.78848   0.00000  Uiso   1.00
Cl1901 Cl    0.88971   0.72135   0.91161   0.00000  Uiso   1.00
Cl1902 Cl    0.77476   0.94456   0.75835   0.00000  Uiso   1.00
Cl1903 Cl    0.78578   0.71405   0.74710   0.00000  Uiso   1.00
Cl1904 Cl    0.89218   0.94939   0.90842   0.00000  Uiso   1.00
H1905  H     0.75178   0.77123   0.98852   0.00000  Uiso   1.00
H1906  H     0.99115   0.94102   0.66914   0.00000  Uiso   1.00
H1907  H     0.68796   0.90461   0.74333   0.00000  Uiso   1.00
H1908  H     0.97160   0.87855   0.72467   0.00000  Uiso   1.00
H1909  H     0.93666   0.92397   0.79147   0.00000  Uiso   1.00
H1910  H     0.98612   0.94775   0.81087   0.00000  Uiso   1.00
H1911  H     0.88269   0.71152   0.75159   0.00000  Uiso   1.00
H1912  H     0.92245   0.69002   0.71271   0.00000  Uiso   1.00
H1913  H     0.90940   0.99515   0.77039   0.00000  Uiso   1.00
H1914  H     0.97676   0.70653   0.78088   0.00000  Uiso   1.00
H1915  H     0.93696   0.72714   0.82025   0.00000  Uiso   1.00
H1916  H     0.70013   0.74434   0.98576   0.00000  Uiso   1.00
H1917  H     0.91931   0.78278   0.74703   0.00000  Uiso   1.00
H1918  H     0.96433   0.76430   0.71882   0.00000  Uiso   1.00
H1919  H     0.77442   0.93733   0.93660   0.00000  Uiso   1.00
H1920  H     0.72762   0.95415   0.96781   0.00000  Uiso   1.00
H1921  H     0.75963   0.91064   0.99388   0.00000  Uiso   1.00
H1922  H     0.69501   0.87791   0.95188   0.00000  Uiso   1.00
H1923  H     0.74230   0.86084   0.92323   0.00000  Uiso   1.00
H1924  H     0.72900   0.92815   0.85993   0.00000  Uiso   1.00
H1925  H     0.68038   0.93203   0.88910   0.00000  Uiso   1.00
H1926  H     0.71052   0.79309   0.94889   0.00000  Uiso   1.00
H1927  H     0.67117   0.81630   0.68790   0.00000  Uiso   1.00
H1928  H     0.72340   0.83857   0.69540   0.00000  Uiso   1.00
H1929  H     0.74425   0.78562   0.75279   0.00000  Uiso   1.00
H1930  H     0.70086   0.74749   0.74327   0.00000  Uiso   1.00
H1931  H     0.94318   0.95039   0.70049   0.00000  Uiso   1.00
H1932  H     0.99160   0.97961   0.72150   0.00000  Uiso   1.00
N1933  N     0.83333   0.95240   0.83333   0.00000  Uiso   1.00
N1934  N     0.83333   0.71427   0.83333   0.00000  Uiso   1.00
O1935  O     0.77226   0.87154   0.83333   0.00000  Uiso   1.00
O1936  O     0.89441   0.79513   0.83334   0.00000  Uiso   1.00
O1937  O     0.89441   0.87154   0.83334   0.00000  Uiso   1.00
O1938  O     0.77226   0.79513   0.83333   0.00000  Uiso   1.00
O1939  O     0.83334   0.87155   0.76178   0.00000  Uiso   1.00
O1940  O     0.83333   0.79512   0.90489   0.00000  Uiso   1.00
O1941  O     0.83333   0.87155   0.90489   0.00000  Uiso   1.00
O1942  O     0.83334   0.79512   0.76178   0.00000  Uiso   1.00
Zn1943 Zn    0.83333   0.88437   0.83333   0.00000  Uiso   1.00
Zn1944 Zn    0.83333   0.78229   0.83333   0.00000  Uiso   1.00
loop_
_geom_bond_atom_site_label_1
_geom_bond_atom_site_label_2
_geom_bond_distance
_geom_bond_site_symmetry_2
_ccdc_geom_bond_type
C1     O66     1.309   .     A
C1     O63     1.284   .     A
C1     C4      1.444   .     S
C2     C4      1.428   .     A
C2     C19     1.528   .     S
C2     C171    1.381   1_455 S
C3     C27     1.395   .     A
C3     C28     1.408   .     A
C3     C12     1.439   .     S
C4     C26     1.427   .     A
C5     N62     1.374   .     A
C5     Cl29    1.760   .     S
C5     C440    1.428   1_545 S
C6     N61     1.363   .     A
C6     Cl30    1.757   .     S
C6     C223    1.419   .     S
C7     N62     1.377   .     A
C7     Cl31    1.743   .     S
C7     C438    1.419   1_545 S
C8     N61     1.372   .     A
C8     Cl32    1.760   .     S
C8     C221    1.428   .     S
C9     C26     1.519   .     S
C9     C10     1.539   .     S
C9     H57     1.094   .     S
C9     H58     1.110   .     S
C10    H56     1.112   .     S
C10    H55     1.107   .     S
C10    C1307   1.528   1_554 S
C11    H44     1.111   .     S
C11    H54     1.109   .     S
C11    H33     1.111   .     S
C11    C658    1.528   .     S
C12    O64     1.300   .     A
C12    O65     1.291   .     A
C13    C14     1.541   .     S
C13    H38     1.110   .     S
C13    H37     1.106   .     S
C13    C27     1.526   .     S
C14    H36     1.110   .     S
C14    C15     1.521   .     S
C14    H107    1.111   .     S
C15    H34     1.109   .     S
C15    H59     1.109   .     S
C15    H60     1.110   .     S
C16    H45     1.110   .     S
C16    C28     1.524   .     S
C16    H46     1.105   .     S
C16    C17     1.530   .     S
C17    H43     1.108   .     S
C17    C18     1.525   .     S
C17    H42     1.110   .     S
C18    H39     1.107   .     S
C18    H40     1.109   .     S
C18    H473    1.108   1_545 S
C19    C20     1.533   .     S
C19    H53     1.113   .     S
C19    H52     1.109   .     S
C20    H51     1.106   .     S
C20    C21     1.524   .     S
C20    H50     1.111   .     S
C21    H48     1.110   .     S
C21    H49     1.108   .     S
C21    H47     1.111   .     S
C22    C24     1.365   .     S
C22    O67     1.284   .     A
C22    O70     1.287   .     A
C23    O69     1.286   .     A
C23    O68     1.284   .     A
C23    C25     1.365   .     S
C24    C1321   1.165   1_554 S
C25    C672    1.165   .     S
C26    C172    1.409   1_455 S
C27    C74     1.381   .     S
C28    C98     1.409   .     S
H35    C158    1.111   1_455 S
H41    C234    1.108   .     S
N61    Zn71    2.033   .     S
N62    Zn72    2.033   .     S
O63    Zn71    1.976   .     S
O64    Zn72    1.976   .     S
O65    Zn71    1.996   .     S
O66    Zn72    1.996   .     S
O67    Zn71    1.943   .     S
O68    Zn72    1.943   .     S
O69    Zn71    1.951   .     S
O70    Zn72    1.951   .     S
C73    O138    1.309   .     A
C73    O135    1.284   .     A
C73    C76     1.444   .     S
C74    C76     1.428   .     A
C74    C91     1.528   .     S
C75    C99     1.395   .     A
C75    C100    1.408   .     A
C75    C84     1.439   .     S
C76    C98     1.427   .     A
C77    N134    1.374   .     A
C77    Cl101   1.760   .     S
C77    C512    1.428   1_545 S
C78    N133    1.363   .     A
C78    Cl102   1.757   .     S
C78    C295    1.419   .     S
C79    N134    1.377   .     A
C79    Cl103   1.743   .     S
C79    C510    1.419   1_545 S
C80    N133    1.372   .     A
C80    Cl104   1.760   .     S
C80    C293    1.428   .     S
C81    C98     1.519   .     S
C81    C82     1.539   .     S
C81    H129    1.094   .     S
C81    H130    1.110   .     S
C82    H128    1.112   .     S
C82    H127    1.107   .     S
C82    C1379   1.528   1_554 S
C83    H116    1.111   .     S
C83    H126    1.109   .     S
C83    H105    1.111   .     S
C83    C730    1.528   .     S
C84    O136    1.300   .     A
C84    O137    1.291   .     A
C85    C86     1.541   .     S
C85    H110    1.110   .     S
C85    H109    1.106   .     S
C85    C99     1.526   .     S
C86    H108    1.110   .     S
C86    C87     1.521   .     S
C86    H179    1.111   .     S
C87    H106    1.109   .     S
C87    H131    1.109   .     S
C87    H132    1.110   .     S
C88    H117    1.110   .     S
C88    C100    1.524   .     S
C88    H118    1.105   .     S
C88    C89     1.530   .     S
C89    H115    1.108   .     S
C89    C90     1.525   .     S
C89    H114    1.110   .     S
C90    H111    1.107   .     S
C90    H112    1.109   .     S
C90    H545    1.108   1_545 S
C91    C92     1.533   .     S
C91    H125    1.113   .     S
C91    H124    1.109   .     S
C92    H123    1.106   .     S
C92    C93     1.524   .     S
C92    H122    1.111   .     S
C93    H120    1.110   .     S
C93    H121    1.108   .     S
C93    H119    1.111   .     S
C94    C96     1.365   .     S
C94    O139    1.284   .     A
C94    O142    1.287   .     A
C95    O141    1.286   .     A
C95    O140    1.284   .     A
C95    C97     1.365   .     S
C96    C1393   1.165   1_554 S
C97    C744    1.165   .     S
C99    C146    1.381   .     S
C100   C170    1.409   .     S
H113   C306    1.108   .     S
N133   Zn143   2.033   .     S
N134   Zn144   2.033   .     S
O135   Zn143   1.976   .     S
O136   Zn144   1.976   .     S
O137   Zn143   1.996   .     S
O138   Zn144   1.996   .     S
O139   Zn143   1.943   .     S
O140   Zn144   1.943   .     S
O141   Zn143   1.951   .     S
O142   Zn144   1.951   .     S
C145   O210    1.309   .     A
C145   O207    1.284   .     A
C145   C148    1.444   .     S
C146   C148    1.428   .     A
C146   C163    1.528   .     S
C147   C171    1.395   .     A
C147   C172    1.408   .     A
C147   C156    1.439   .     S
C148   C170    1.427   .     A
C149   N206    1.374   .     A
C149   Cl173   1.760   .     S
C149   C584    1.428   1_545 S
C150   N205    1.363   .     A
C150   Cl174   1.757   .     S
C150   C367    1.419   .     S
C151   N206    1.377   .     A
C151   Cl175   1.743   .     S
C151   C582    1.419   1_545 S
C152   N205    1.372   .     A
C152   Cl176   1.760   .     S
C152   C365    1.428   .     S
C153   C170    1.519   .     S
C153   C154    1.539   .     S
C153   H201    1.094   .     S
C153   H202    1.110   .     S
C154   H200    1.112   .     S
C154   H199    1.107   .     S
C154   C1451   1.528   1_554 S
C155   H188    1.111   .     S
C155   H198    1.109   .     S
C155   H177    1.111   .     S
C155   C802    1.528   .     S
C156   O208    1.300   .     A
C156   O209    1.291   .     A
C157   C158    1.541   .     S
C157   H182    1.110   .     S
C157   H181    1.106   .     S
C157   C171    1.526   .     S
C158   H180    1.110   .     S
C158   C159    1.521   .     S
C158   H35     1.111   1_655 S
C159   H178    1.109   .     S
C159   H203    1.109   .     S
C159   H204    1.110   .     S
C160   H189    1.110   .     S
C160   C172    1.524   .     S
C160   H190    1.105   .     S
C160   C161    1.530   .     S
C161   H187    1.108   .     S
C161   C162    1.525   .     S
C161   H186    1.110   .     S
C162   H183    1.107   .     S
C162   H184    1.109   .     S
C162   H617    1.108   1_545 S
C163   C164    1.533   .     S
C163   H197    1.113   .     S
C163   H196    1.109   .     S
C164   H195    1.106   .     S
C164   C165    1.524   .     S
C164   H194    1.111   .     S
C165   H192    1.110   .     S
C165   H193    1.108   .     S
C165   H191    1.111   .     S
C166   C168    1.365   .     S
C166   O211    1.284   .     A
C166   O214    1.287   .     A
C167   O213    1.286   .     A
C167   O212    1.284   .     A
C167   C169    1.365   .     S
C168   C1465   1.165   1_554 S
C169   C816    1.165   .     S
C171   C2      1.381   1_655 S
C172   C26     1.409   1_655 S
H185   C378    1.108   .     S
N205   Zn215   2.033   .     S
N206   Zn216   2.033   .     S
O207   Zn215   1.976   .     S
O208   Zn216   1.976   .     S
O209   Zn215   1.996   .     S
O210   Zn216   1.996   .     S
O211   Zn215   1.943   .     S
O212   Zn216   1.943   .     S
O213   Zn215   1.951   .     S
O214   Zn216   1.951   .     S
C217   O282    1.309   .     A
C217   O279    1.284   .     A
C217   C220    1.444   .     S
C218   C220    1.428   .     A
C218   C235    1.528   .     S
C218   C387    1.381   1_455 S
C219   C243    1.395   .     A
C219   C244    1.408   .     A
C219   C228    1.439   .     S
C220   C242    1.427   .     A
C221   N278    1.374   .     A
C221   Cl245   1.760   .     S
C222   N277    1.363   .     A
C222   Cl246   1.757   .     S
C222   C439    1.419   .     S
C223   N278    1.377   .     A
C223   Cl247   1.743   .     S
C224   N277    1.372   .     A
C224   Cl248   1.760   .     S
C224   C437    1.428   .     S
C225   C242    1.519   .     S
C225   C226    1.539   .     S
C225   H273    1.094   .     S
C225   H274    1.110   .     S
C226   H272    1.112   .     S
C226   H271    1.107   .     S
C226   C1523   1.528   1_554 S
C227   H260    1.111   .     S
C227   H270    1.109   .     S
C227   H249    1.111   .     S
C227   C874    1.528   .     S
C228   O280    1.300   .     A
C228   O281    1.291   .     A
C229   C230    1.541   .     S
C229   H254    1.110   .     S
C229   H253    1.106   .     S
C229   C243    1.526   .     S
C230   H252    1.110   .     S
C230   C231    1.521   .     S
C230   H323    1.111   .     S
C231   H250    1.109   .     S
C231   H275    1.109   .     S
C231   H276    1.110   .     S
C232   H261    1.110   .     S
C232   C244    1.524   .     S
C232   H262    1.105   .     S
C232   C233    1.530   .     S
C233   H259    1.108   .     S
C233   C234    1.525   .     S
C233   H258    1.110   .     S
C234   H255    1.107   .     S
C234   H256    1.109   .     S
C235   C236    1.533   .     S
C235   H269    1.113   .     S
C235   H268    1.109   .     S
C236   H267    1.106   .     S
C236   C237    1.524   .     S
C236   H266    1.111   .     S
C237   H264    1.110   .     S
C237   H265    1.108   .     S
C237   H263    1.111   .     S
C238   C240    1.365   .     S
C238   O283    1.284   .     A
C238   O286    1.287   .     A
C239   O285    1.286   .     A
C239   O284    1.284   .     A
C239   C241    1.365   .     S
C240   C1537   1.165   1_554 S
C241   C888    1.165   .     S
C242   C388    1.409   1_455 S
C243   C290    1.381   .     S
C244   C314    1.409   .     S
H251   C374    1.111   1_455 S
H257   C450    1.108   .     S
N277   Zn287   2.033   .     S
N278   Zn288   2.033   .     S
O279   Zn287   1.976   .     S
O280   Zn288   1.976   .     S
O281   Zn287   1.996   .     S
O282   Zn288   1.996   .     S
O283   Zn287   1.943   .     S
O284   Zn288   1.943   .     S
O285   Zn287   1.951   .     S
O286   Zn288   1.951   .     S
C289   O354    1.309   .     A
C289   O351    1.284   .     A
C289   C292    1.444   .     S
C290   C292    1.428   .     A
C290   C307    1.528   .     S
C291   C315    1.395   .     A
C291   C316    1.408   .     A
C291   C300    1.439   .     S
C292   C314    1.427   .     A
C293   N350    1.374   .     A
C293   Cl317   1.760   .     S
C294   N349    1.363   .     A
C294   Cl318   1.757   .     S
C294   C511    1.419   .     S
C295   N350    1.377   .     A
C295   Cl319   1.743   .     S
C296   N349    1.372   .     A
C296   Cl320   1.760   .     S
C296   C509    1.428   .     S
C297   C314    1.519   .     S
C297   C298    1.539   .     S
C297   H345    1.094   .     S
C297   H346    1.110   .     S
C298   H344    1.112   .     S
C298   H343    1.107   .     S
C298   C1595   1.528   1_554 S
C299   H332    1.111   .     S
C299   H342    1.109   .     S
C299   H321    1.111   .     S
C299   C946    1.528   .     S
C300   O352    1.300   .     A
C300   O353    1.291   .     A
C301   C302    1.541   .     S
C301   H326    1.110   .     S
C301   H325    1.106   .     S
C301   C315    1.526   .     S
C302   H324    1.110   .     S
C302   C303    1.521   .     S
C302   H395    1.111   .     S
C303   H322    1.109   .     S
C303   H347    1.109   .     S
C303   H348    1.110   .     S
C304   H333    1.110   .     S
C304   C316    1.524   .     S
C304   H334    1.105   .     S
C304   C305    1.530   .     S
C305   H331    1.108   .     S
C305   C306    1.525   .     S
C305   H330    1.110   .     S
C306   H327    1.107   .     S
C306   H328    1.109   .     S
C307   C308    1.533   .     S
C307   H341    1.113   .     S
C307   H340    1.109   .     S
C308   H339    1.106   .     S
C308   C309    1.524   .     S
C308   H338    1.111   .     S
C309   H336    1.110   .     S
C309   H337    1.108   .     S
C309   H335    1.111   .     S
C310   C312    1.365   .     S
C310   O355    1.284   .     A
C310   O358    1.287   .     A
C311   O357    1.286   .     A
C311   O356    1.284   .     A
C311   C313    1.365   .     S
C312   C1609   1.165   1_554 S
C313   C960    1.165   .     S
C315   C362    1.381   .     S
C316   C386    1.409   .     S
H329   C522    1.108   .     S
N349   Zn359   2.033   .     S
N350   Zn360   2.033   .     S
O351   Zn359   1.976   .     S
O352   Zn360   1.976   .     S
O353   Zn359   1.996   .     S
O354   Zn360   1.996   .     S
O355   Zn359   1.943   .     S
O356   Zn360   1.943   .     S
O357   Zn359   1.951   .     S
O358   Zn360   1.951   .     S
C361   O426    1.309   .     A
C361   O423    1.284   .     A
C361   C364    1.444   .     S
C362   C364    1.428   .     A
C362   C379    1.528   .     S
C363   C387    1.395   .     A
C363   C388    1.408   .     A
C363   C372    1.439   .     S
C364   C386    1.427   .     A
C365   N422    1.374   .     A
C365   Cl389   1.760   .     S
C366   N421    1.363   .     A
C366   Cl390   1.757   .     S
C366   C583    1.419   .     S
C367   N422    1.377   .     A
C367   Cl391   1.743   .     S
C368   N421    1.372   .     A
C368   Cl392   1.760   .     S
C368   C581    1.428   .     S
C369   C386    1.519   .     S
C369   C370    1.539   .     S
C369   H417    1.094   .     S
C369   H418    1.110   .     S
C370   H416    1.112   .     S
C370   H415    1.107   .     S
C370   C1667   1.528   1_554 S
C371   H404    1.111   .     S
C371   H414    1.109   .     S
C371   H393    1.111   .     S
C371   C1018   1.528   .     S
C372   O424    1.300   .     A
C372   O425    1.291   .     A
C373   C374    1.541   .     S
C373   H398    1.110   .     S
C373   H397    1.106   .     S
C373   C387    1.526   .     S
C374   H396    1.110   .     S
C374   C375    1.521   .     S
C374   H251    1.111   1_655 S
C375   H394    1.109   .     S
C375   H419    1.109   .     S
C375   H420    1.110   .     S
C376   H405    1.110   .     S
C376   C388    1.524   .     S
C376   H406    1.105   .     S
C376   C377    1.530   .     S
C377   H403    1.108   .     S
C377   C378    1.525   .     S
C377   H402    1.110   .     S
C378   H399    1.107   .     S
C378   H400    1.109   .     S
C379   C380    1.533   .     S
C379   H413    1.113   .     S
C379   H412    1.109   .     S
C380   H411    1.106   .     S
C380   C381    1.524   .     S
C380   H410    1.111   .     S
C381   H408    1.110   .     S
C381   H409    1.108   .     S
C381   H407    1.111   .     S
C382   C384    1.365   .     S
C382   O427    1.284   .     A
C382   O430    1.287   .     A
C383   O429    1.286   .     A
C383   O428    1.284   .     A
C383   C385    1.365   .     S
C384   C1681   1.165   1_554 S
C385   C1032   1.165   .     S
C387   C218    1.381   1_655 S
C388   C242    1.409   1_655 S
H401   C594    1.108   .     S
N421   Zn431   2.033   .     S
N422   Zn432   2.033   .     S
O423   Zn431   1.976   .     S
O424   Zn432   1.976   .     S
O425   Zn431   1.996   .     S
O426   Zn432   1.996   .     S
O427   Zn431   1.943   .     S
O428   Zn432   1.943   .     S
O429   Zn431   1.951   .     S
O430   Zn432   1.951   .     S
C433   O498    1.309   .     A
C433   O495    1.284   .     A
C433   C436    1.444   .     S
C434   C436    1.428   .     A
C434   C451    1.528   .     S
C434   C603    1.381   1_455 S
C435   C459    1.395   .     A
C435   C460    1.408   .     A
C435   C444    1.439   .     S
C436   C458    1.427   .     A
C437   N494    1.374   .     A
C437   Cl461   1.760   .     S
C438   N493    1.363   .     A
C438   Cl462   1.757   .     S
C438   C7      1.419   1_565 S
C439   N494    1.377   .     A
C439   Cl463   1.743   .     S
C440   N493    1.372   .     A
C440   Cl464   1.760   .     S
C440   C5      1.428   1_565 S
C441   C458    1.519   .     S
C441   C442    1.539   .     S
C441   H489    1.094   .     S
C441   H490    1.110   .     S
C442   H488    1.112   .     S
C442   H487    1.107   .     S
C442   C1739   1.528   1_554 S
C443   H476    1.111   .     S
C443   H486    1.109   .     S
C443   H465    1.111   .     S
C443   C1090   1.528   .     S
C444   O496    1.300   .     A
C444   O497    1.291   .     A
C445   C446    1.541   .     S
C445   H470    1.110   .     S
C445   H469    1.106   .     S
C445   C459    1.526   .     S
C446   H468    1.110   .     S
C446   C447    1.521   .     S
C446   H539    1.111   .     S
C447   H466    1.109   .     S
C447   H491    1.109   .     S
C447   H492    1.110   .     S
C448   H477    1.110   .     S
C448   C460    1.524   .     S
C448   H478    1.105   .     S
C448   C449    1.530   .     S
C449   H475    1.108   .     S
C449   C450    1.525   .     S
C449   H474    1.110   .     S
C450   H471    1.107   .     S
C450   H472    1.109   .     S
C451   C452    1.533   .     S
C451   H485    1.113   .     S
C451   H484    1.109   .     S
C452   H483    1.106   .     S
C452   C453    1.524   .     S
C452   H482    1.111   .     S
C453   H480    1.110   .     S
C453   H481    1.108   .     S
C453   H479    1.111   .     S
C454   C456    1.365   .     S
C454   O499    1.284   .     A
C454   O502    1.287   .     A
C455   O501    1.286   .     A
C455   O500    1.284   .     A
C455   C457    1.365   .     S
C456   C1753   1.165   1_554 S
C457   C1104   1.165   .     S
C458   C604    1.409   1_455 S
C459   C506    1.381   .     S
C460   C530    1.409   .     S
H467   C590    1.111   1_455 S
H473   C18     1.108   1_565 S
N493   Zn503   2.033   .     S
N494   Zn504   2.033   .     S
O495   Zn503   1.976   .     S
O496   Zn504   1.976   .     S
O497   Zn503   1.996   .     S
O498   Zn504   1.996   .     S
O499   Zn503   1.943   .     S
O500   Zn504   1.943   .     S
O501   Zn503   1.951   .     S
O502   Zn504   1.951   .     S
C505   O570    1.309   .     A
C505   O567    1.284   .     A
C505   C508    1.444   .     S
C506   C508    1.428   .     A
C506   C523    1.528   .     S
C507   C531    1.395   .     A
C507   C532    1.408   .     A
C507   C516    1.439   .     S
C508   C530    1.427   .     A
C509   N566    1.374   .     A
C509   Cl533   1.760   .     S
C510   N565    1.363   .     A
C510   Cl534   1.757   .     S
C510   C79     1.419   1_565 S
C511   N566    1.377   .     A
C511   Cl535   1.743   .     S
C512   N565    1.372   .     A
C512   Cl536   1.760   .     S
C512   C77     1.428   1_565 S
C513   C530    1.519   .     S
C513   C514    1.539   .     S
C513   H561    1.094   .     S
C513   H562    1.110   .     S
C514   H560    1.112   .     S
C514   H559    1.107   .     S
C514   C1811   1.528   1_554 S
C515   H548    1.111   .     S
C515   H558    1.109   .     S
C515   H537    1.111   .     S
C515   C1162   1.528   .     S
C516   O568    1.300   .     A
C516   O569    1.291   .     A
C517   C518    1.541   .     S
C517   H542    1.110   .     S
C517   H541    1.106   .     S
C517   C531    1.526   .     S
C518   H540    1.110   .     S
C518   C519    1.521   .     S
C518   H611    1.111   .     S
C519   H538    1.109   .     S
C519   H563    1.109   .     S
C519   H564    1.110   .     S
C520   H549    1.110   .     S
C520   C532    1.524   .     S
C520   H550    1.105   .     S
C520   C521    1.530   .     S
C521   H547    1.108   .     S
C521   C522    1.525   .     S
C521   H546    1.110   .     S
C522   H543    1.107   .     S
C522   H544    1.109   .     S
C523   C524    1.533   .     S
C523   H557    1.113   .     S
C523   H556    1.109   .     S
C524   H555    1.106   .     S
C524   C525    1.524   .     S
C524   H554    1.111   .     S
C525   H552    1.110   .     S
C525   H553    1.108   .     S
C525   H551    1.111   .     S
C526   C528    1.365   .     S
C526   O571    1.284   .     A
C526   O574    1.287   .     A
C527   O573    1.286   .     A
C527   O572    1.284   .     A
C527   C529    1.365   .     S
C528   C1825   1.165   1_554 S
C529   C1176   1.165   .     S
C531   C578    1.381   .     S
C532   C602    1.409   .     S
H545   C90     1.108   1_565 S
N565   Zn575   2.033   .     S
N566   Zn576   2.033   .     S
O567   Zn575   1.976   .     S
O568   Zn576   1.976   .     S
O569   Zn575   1.996   .     S
O570   Zn576   1.996   .     S
O571   Zn575   1.943   .     S
O572   Zn576   1.943   .     S
O573   Zn575   1.951   .     S
O574   Zn576   1.951   .     S
C577   O642    1.309   .     A
C577   O639    1.284   .     A
C577   C580    1.444   .     S
C578   C580    1.428   .     A
C578   C595    1.528   .     S
C579   C603    1.395   .     A
C579   C604    1.408   .     A
C579   C588    1.439   .     S
C580   C602    1.427   .     A
C581   N638    1.374   .     A
C581   Cl605   1.760   .     S
C582   N637    1.363   .     A
C582   Cl606   1.757   .     S
C582   C151    1.419   1_565 S
C583   N638    1.377   .     A
C583   Cl607   1.743   .     S
C584   N637    1.372   .     A
C584   Cl608   1.760   .     S
C584   C149    1.428   1_565 S
C585   C602    1.519   .     S
C585   C586    1.539   .     S
C585   H633    1.094   .     S
C585   H634    1.110   .     S
C586   H632    1.112   .     S
C586   H631    1.107   .     S
C586   C1883   1.528   1_554 S
C587   H620    1.111   .     S
C587   H630    1.109   .     S
C587   H609    1.111   .     S
C587   C1234   1.528   .     S
C588   O640    1.300   .     A
C588   O641    1.291   .     A
C589   C590    1.541   .     S
C589   H614    1.110   .     S
C589   H613    1.106   .     S
C589   C603    1.526   .     S
C590   H612    1.110   .     S
C590   C591    1.521   .     S
C590   H467    1.111   1_655 S
C591   H610    1.109   .     S
C591   H635    1.109   .     S
C591   H636    1.110   .     S
C592   H621    1.110   .     S
C592   C604    1.524   .     S
C592   H622    1.105   .     S
C592   C593    1.530   .     S
C593   H619    1.108   .     S
C593   C594    1.525   .     S
C593   H618    1.110   .     S
C594   H615    1.107   .     S
C594   H616    1.109   .     S
C595   C596    1.533   .     S
C595   H629    1.113   .     S
C595   H628    1.109   .     S
C596   H627    1.106   .     S
C596   C597    1.524   .     S
C596   H626    1.111   .     S
C597   H624    1.110   .     S
C597   H625    1.108   .     S
C597   H623    1.111   .     S
C598   C600    1.365   .     S
C598   O643    1.284   .     A
C598   O646    1.287   .     A
C599   O645    1.286   .     A
C599   O644    1.284   .     A
C599   C601    1.365   .     S
C600   C1897   1.165   1_554 S
C601   C1248   1.165   .     S
C603   C434    1.381   1_655 S
C604   C458    1.409   1_655 S
H617   C162    1.108   1_565 S
N637   Zn647   2.033   .     S
N638   Zn648   2.033   .     S
O639   Zn647   1.976   .     S
O640   Zn648   1.976   .     S
O641   Zn647   1.996   .     S
O642   Zn648   1.996   .     S
O643   Zn647   1.943   .     S
O644   Zn648   1.943   .     S
O645   Zn647   1.951   .     S
O646   Zn648   1.951   .     S
C649   O714    1.309   .     A
C649   O711    1.284   .     A
C649   C652    1.444   .     S
C650   C652    1.428   .     A
C650   C667    1.528   .     S
C650   C819    1.381   1_455 S
C651   C675    1.395   .     A
C651   C676    1.408   .     A
C651   C660    1.439   .     S
C652   C674    1.427   .     A
C653   N710    1.374   .     A
C653   Cl677   1.760   .     S
C653   C1088   1.428   1_545 S
C654   N709    1.363   .     A
C654   Cl678   1.757   .     S
C654   C871    1.419   .     S
C655   N710    1.377   .     A
C655   Cl679   1.743   .     S
C655   C1086   1.419   1_545 S
C656   N709    1.372   .     A
C656   Cl680   1.760   .     S
C656   C869    1.428   .     S
C657   C674    1.519   .     S
C657   C658    1.539   .     S
C657   H705    1.094   .     S
C657   H706    1.110   .     S
C658   H704    1.112   .     S
C658   H703    1.107   .     S
C659   H692    1.111   .     S
C659   H702    1.109   .     S
C659   H681    1.111   .     S
C659   C1306   1.528   .     S
C660   O712    1.300   .     A
C660   O713    1.291   .     A
C661   C662    1.541   .     S
C661   H686    1.110   .     S
C661   H685    1.106   .     S
C661   C675    1.526   .     S
C662   H684    1.110   .     S
C662   C663    1.521   .     S
C662   H755    1.111   .     S
C663   H682    1.109   .     S
C663   H707    1.109   .     S
C663   H708    1.110   .     S
C664   H693    1.110   .     S
C664   C676    1.524   .     S
C664   H694    1.105   .     S
C664   C665    1.530   .     S
C665   H691    1.108   .     S
C665   C666    1.525   .     S
C665   H690    1.110   .     S
C666   H687    1.107   .     S
C666   H688    1.109   .     S
C666   H1121   1.108   1_545 S
C667   C668    1.533   .     S
C667   H701    1.113   .     S
C667   H700    1.109   .     S
C668   H699    1.106   .     S
C668   C669    1.524   .     S
C668   H698    1.111   .     S
C669   H696    1.110   .     S
C669   H697    1.108   .     S
C669   H695    1.111   .     S
C670   C672    1.365   .     S
C670   O715    1.284   .     A
C670   O718    1.287   .     A
C671   O717    1.286   .     A
C671   O716    1.284   .     A
C671   C673    1.365   .     S
C673   C1320   1.165   .     S
C674   C820    1.409   1_455 S
C675   C722    1.381   .     S
C676   C746    1.409   .     S
H683   C806    1.111   1_455 S
H689   C882    1.108   .     S
N709   Zn719   2.033   .     S
N710   Zn720   2.033   .     S
O711   Zn719   1.976   .     S
O712   Zn720   1.976   .     S
O713   Zn719   1.996   .     S
O714   Zn720   1.996   .     S
O715   Zn719   1.943   .     S
O716   Zn720   1.943   .     S
O717   Zn719   1.951   .     S
O718   Zn720   1.951   .     S
C721   O786    1.309   .     A
C721   O783    1.284   .     A
C721   C724    1.444   .     S
C722   C724    1.428   .     A
C722   C739    1.528   .     S
C723   C747    1.395   .     A
C723   C748    1.408   .     A
C723   C732    1.439   .     S
C724   C746    1.427   .     A
C725   N782    1.374   .     A
C725   Cl749   1.760   .     S
C725   C1160   1.428   1_545 S
C726   N781    1.363   .     A
C726   Cl750   1.757   .     S
C726   C943    1.419   .     S
C727   N782    1.377   .     A
C727   Cl751   1.743   .     S
C727   C1158   1.419   1_545 S
C728   N781    1.372   .     A
C728   Cl752   1.760   .     S
C728   C941    1.428   .     S
C729   C746    1.519   .     S
C729   C730    1.539   .     S
C729   H777    1.094   .     S
C729   H778    1.110   .     S
C730   H776    1.112   .     S
C730   H775    1.107   .     S
C731   H764    1.111   .     S
C731   H774    1.109   .     S
C731   H753    1.111   .     S
C731   C1378   1.528   .     S
C732   O784    1.300   .     A
C732   O785    1.291   .     A
C733   C734    1.541   .     S
C733   H758    1.110   .     S
C733   H757    1.106   .     S
C733   C747    1.526   .     S
C734   H756    1.110   .     S
C734   C735    1.521   .     S
C734   H827    1.111   .     S
C735   H754    1.109   .     S
C735   H779    1.109   .     S
C735   H780    1.110   .     S
C736   H765    1.110   .     S
C736   C748    1.524   .     S
C736   H766    1.105   .     S
C736   C737    1.530   .     S
C737   H763    1.108   .     S
C737   C738    1.525   .     S
C737   H762    1.110   .     S
C738   H759    1.107   .     S
C738   H760    1.109   .     S
C738   H1193   1.108   1_545 S
C739   C740    1.533   .     S
C739   H773    1.113   .     S
C739   H772    1.109   .     S
C740   H771    1.106   .     S
C740   C741    1.524   .     S
C740   H770    1.111   .     S
C741   H768    1.110   .     S
C741   H769    1.108   .     S
C741   H767    1.111   .     S
C742   C744    1.365   .     S
C742   O787    1.284   .     A
C742   O790    1.287   .     A
C743   O789    1.286   .     A
C743   O788    1.284   .     A
C743   C745    1.365   .     S
C745   C1392   1.165   .     S
C747   C794    1.381   .     S
C748   C818    1.409   .     S
H761   C954    1.108   .     S
N781   Zn791   2.033   .     S
N782   Zn792   2.033   .     S
O783   Zn791   1.976   .     S
O784   Zn792   1.976   .     S
O785   Zn791   1.996   .     S
O786   Zn792   1.996   .     S
O787   Zn791   1.943   .     S
O788   Zn792   1.943   .     S
O789   Zn791   1.951   .     S
O790   Zn792   1.951   .     S
C793   O858    1.309   .     A
C793   O855    1.284   .     A
C793   C796    1.444   .     S
C794   C796    1.428   .     A
C794   C811    1.528   .     S
C795   C819    1.395   .     A
C795   C820    1.408   .     A
C795   C804    1.439   .     S
C796   C818    1.427   .     A
C797   N854    1.374   .     A
C797   Cl821   1.760   .     S
C797   C1232   1.428   1_545 S
C798   N853    1.363   .     A
C798   Cl822   1.757   .     S
C798   C1015   1.419   .     S
C799   N854    1.377   .     A
C799   Cl823   1.743   .     S
C799   C1230   1.419   1_545 S
C800   N853    1.372   .     A
C800   Cl824   1.760   .     S
C800   C1013   1.428   .     S
C801   C818    1.519   .     S
C801   C802    1.539   .     S
C801   H849    1.094   .     S
C801   H850    1.110   .     S
C802   H848    1.112   .     S
C802   H847    1.107   .     S
C803   H836    1.111   .     S
C803   H846    1.109   .     S
C803   H825    1.111   .     S
C803   C1450   1.528   .     S
C804   O856    1.300   .     A
C804   O857    1.291   .     A
C805   C806    1.541   .     S
C805   H830    1.110   .     S
C805   H829    1.106   .     S
C805   C819    1.526   .     S
C806   H828    1.110   .     S
C806   C807    1.521   .     S
C806   H683    1.111   1_655 S
C807   H826    1.109   .     S
C807   H851    1.109   .     S
C807   H852    1.110   .     S
C808   H837    1.110   .     S
C808   C820    1.524   .     S
C808   H838    1.105   .     S
C808   C809    1.530   .     S
C809   H835    1.108   .     S
C809   C810    1.525   .     S
C809   H834    1.110   .     S
C810   H831    1.107   .     S
C810   H832    1.109   .     S
C810   H1265   1.108   1_545 S
C811   C812    1.533   .     S
C811   H845    1.113   .     S
C811   H844    1.109   .     S
C812   H843    1.106   .     S
C812   C813    1.524   .     S
C812   H842    1.111   .     S
C813   H840    1.110   .     S
C813   H841    1.108   .     S
C813   H839    1.111   .     S
C814   C816    1.365   .     S
C814   O859    1.284   .     A
C814   O862    1.287   .     A
C815   O861    1.286   .     A
C815   O860    1.284   .     A
C815   C817    1.365   .     S
C817   C1464   1.165   .     S
C819   C650    1.381   1_655 S
C820   C674    1.409   1_655 S
H833   C1026   1.108   .     S
N853   Zn863   2.033   .     S
N854   Zn864   2.033   .     S
O855   Zn863   1.976   .     S
O856   Zn864   1.976   .     S
O857   Zn863   1.996   .     S
O858   Zn864   1.996   .     S
O859   Zn863   1.943   .     S
O860   Zn864   1.943   .     S
O861   Zn863   1.951   .     S
O862   Zn864   1.951   .     S
C865   O930    1.309   .     A
C865   O927    1.284   .     A
C865   C868    1.444   .     S
C866   C868    1.428   .     A
C866   C883    1.528   .     S
C866   C1035   1.381   1_455 S
C867   C891    1.395   .     A
C867   C892    1.408   .     A
C867   C876    1.439   .     S
C868   C890    1.427   .     A
C869   N926    1.374   .     A
C869   Cl893   1.760   .     S
C870   N925    1.363   .     A
C870   Cl894   1.757   .     S
C870   C1087   1.419   .     S
C871   N926    1.377   .     A
C871   Cl895   1.743   .     S
C872   N925    1.372   .     A
C872   Cl896   1.760   .     S
C872   C1085   1.428   .     S
C873   C890    1.519   .     S
C873   C874    1.539   .     S
C873   H921    1.094   .     S
C873   H922    1.110   .     S
C874   H920    1.112   .     S
C874   H919    1.107   .     S
C875   H908    1.111   .     S
C875   H918    1.109   .     S
C875   H897    1.111   .     S
C875   C1522   1.528   .     S
C876   O928    1.300   .     A
C876   O929    1.291   .     A
C877   C878    1.541   .     S
C877   H902    1.110   .     S
C877   H901    1.106   .     S
C877   C891    1.526   .     S
C878   H900    1.110   .     S
C878   C879    1.521   .     S
C878   H971    1.111   .     S
C879   H898    1.109   .     S
C879   H923    1.109   .     S
C879   H924    1.110   .     S
C880   H909    1.110   .     S
C880   C892    1.524   .     S
C880   H910    1.105   .     S
C880   C881    1.530   .     S
C881   H907    1.108   .     S
C881   C882    1.525   .     S
C881   H906    1.110   .     S
C882   H903    1.107   .     S
C882   H904    1.109   .     S
C883   C884    1.533   .     S
C883   H917    1.113   .     S
C883   H916    1.109   .     S
C884   H915    1.106   .     S
C884   C885    1.524   .     S
C884   H914    1.111   .     S
C885   H912    1.110   .     S
C885   H913    1.108   .     S
C885   H911    1.111   .     S
C886   C888    1.365   .     S
C886   O931    1.284   .     A
C886   O934    1.287   .     A
C887   O933    1.286   .     A
C887   O932    1.284   .     A
C887   C889    1.365   .     S
C889   C1536   1.165   .     S
C890   C1036   1.409   1_455 S
C891   C938    1.381   .     S
C892   C962    1.409   .     S
H899   C1022   1.111   1_455 S
H905   C1098   1.108   .     S
N925   Zn935   2.033   .     S
N926   Zn936   2.033   .     S
O927   Zn935   1.976   .     S
O928   Zn936   1.976   .     S
O929   Zn935   1.996   .     S
O930   Zn936   1.996   .     S
O931   Zn935   1.943   .     S
O932   Zn936   1.943   .     S
O933   Zn935   1.951   .     S
O934   Zn936   1.951   .     S
C937   O1002   1.309   .     A
C937   O999    1.284   .     A
C937   C940    1.444   .     S
C938   C940    1.428   .     A
C938   C955    1.528   .     S
C939   C963    1.395   .     A
C939   C964    1.408   .     A
C939   C948    1.439   .     S
C940   C962    1.427   .     A
C941   N998    1.374   .     A
C941   Cl965   1.760   .     S
C942   N997    1.363   .     A
C942   Cl966   1.757   .     S
C942   C1159   1.419   .     S
C943   N998    1.377   .     A
C943   Cl967   1.743   .     S
C944   N997    1.372   .     A
C944   Cl968   1.760   .     S
C944   C1157   1.428   .     S
C945   C962    1.519   .     S
C945   C946    1.539   .     S
C945   H993    1.094   .     S
C945   H994    1.110   .     S
C946   H992    1.112   .     S
C946   H991    1.107   .     S
C947   H980    1.111   .     S
C947   H990    1.109   .     S
C947   H969    1.111   .     S
C947   C1594   1.528   .     S
C948   O1000   1.300   .     A
C948   O1001   1.291   .     A
C949   C950    1.541   .     S
C949   H974    1.110   .     S
C949   H973    1.106   .     S
C949   C963    1.526   .     S
C950   H972    1.110   .     S
C950   C951    1.521   .     S
C950   H1043   1.111   .     S
C951   H970    1.109   .     S
C951   H995    1.109   .     S
C951   H996    1.110   .     S
C952   H981    1.110   .     S
C952   C964    1.524   .     S
C952   H982    1.105   .     S
C952   C953    1.530   .     S
C953   H979    1.108   .     S
C953   C954    1.525   .     S
C953   H978    1.110   .     S
C954   H975    1.107   .     S
C954   H976    1.109   .     S
C955   C956    1.533   .     S
C955   H989    1.113   .     S
C955   H988    1.109   .     S
C956   H987    1.106   .     S
C956   C957    1.524   .     S
C956   H986    1.111   .     S
C957   H984    1.110   .     S
C957   H985    1.108   .     S
C957   H983    1.111   .     S
C958   C960    1.365   .     S
C958   O1003   1.284   .     A
C958   O1006   1.287   .     A
C959   O1005   1.286   .     A
C959   O1004   1.284   .     A
C959   C961    1.365   .     S
C961   C1608   1.165   .     S
C963   C1010   1.381   .     S
C964   C1034   1.409   .     S
H977   C1170   1.108   .     S
N997   Zn1007  2.033   .     S
N998   Zn1008  2.033   .     S
O999   Zn1007  1.976   .     S
O1000  Zn1008  1.976   .     S
O1001  Zn1007  1.996   .     S
O1002  Zn1008  1.996   .     S
O1003  Zn1007  1.943   .     S
O1004  Zn1008  1.943   .     S
O1005  Zn1007  1.951   .     S
O1006  Zn1008  1.951   .     S
C1009  O1074   1.309   .     A
C1009  O1071   1.284   .     A
C1009  C1012   1.444   .     S
C1010  C1012   1.428   .     A
C1010  C1027   1.528   .     S
C1011  C1035   1.395   .     A
C1011  C1036   1.408   .     A
C1011  C1020   1.439   .     S
C1012  C1034   1.427   .     A
C1013  N1070   1.374   .     A
C1013  Cl1037  1.760   .     S
C1014  N1069   1.363   .     A
C1014  Cl1038  1.757   .     S
C1014  C1231   1.419   .     S
C1015  N1070   1.377   .     A
C1015  Cl1039  1.743   .     S
C1016  N1069   1.372   .     A
C1016  Cl1040  1.760   .     S
C1016  C1229   1.428   .     S
C1017  C1034   1.519   .     S
C1017  C1018   1.539   .     S
C1017  H1065   1.094   .     S
C1017  H1066   1.110   .     S
C1018  H1064   1.112   .     S
C1018  H1063   1.107   .     S
C1019  H1052   1.111   .     S
C1019  H1062   1.109   .     S
C1019  H1041   1.111   .     S
C1019  C1666   1.528   .     S
C1020  O1072   1.300   .     A
C1020  O1073   1.291   .     A
C1021  C1022   1.541   .     S
C1021  H1046   1.110   .     S
C1021  H1045   1.106   .     S
C1021  C1035   1.526   .     S
C1022  H1044   1.110   .     S
C1022  C1023   1.521   .     S
C1022  H899    1.111   1_655 S
C1023  H1042   1.109   .     S
C1023  H1067   1.109   .     S
C1023  H1068   1.110   .     S
C1024  H1053   1.110   .     S
C1024  C1036   1.524   .     S
C1024  H1054   1.105   .     S
C1024  C1025   1.530   .     S
C1025  H1051   1.108   .     S
C1025  C1026   1.525   .     S
C1025  H1050   1.110   .     S
C1026  H1047   1.107   .     S
C1026  H1048   1.109   .     S
C1027  C1028   1.533   .     S
C1027  H1061   1.113   .     S
C1027  H1060   1.109   .     S
C1028  H1059   1.106   .     S
C1028  C1029   1.524   .     S
C1028  H1058   1.111   .     S
C1029  H1056   1.110   .     S
C1029  H1057   1.108   .     S
C1029  H1055   1.111   .     S
C1030  C1032   1.365   .     S
C1030  O1075   1.284   .     A
C1030  O1078   1.287   .     A
C1031  O1077   1.286   .     A
C1031  O1076   1.284   .     A
C1031  C1033   1.365   .     S
C1033  C1680   1.165   .     S
C1035  C866    1.381   1_655 S
C1036  C890    1.409   1_655 S
H1049  C1242   1.108   .     S
N1069  Zn1079  2.033   .     S
N1070  Zn1080  2.033   .     S
O1071  Zn1079  1.976   .     S
O1072  Zn1080  1.976   .     S
O1073  Zn1079  1.996   .     S
O1074  Zn1080  1.996   .     S
O1075  Zn1079  1.943   .     S
O1076  Zn1080  1.943   .     S
O1077  Zn1079  1.951   .     S
O1078  Zn1080  1.951   .     S
C1081  O1146   1.309   .     A
C1081  O1143   1.284   .     A
C1081  C1084   1.444   .     S
C1082  C1084   1.428   .     A
C1082  C1099   1.528   .     S
C1082  C1251   1.381   1_455 S
C1083  C1107   1.395   .     A
C1083  C1108   1.408   .     A
C1083  C1092   1.439   .     S
C1084  C1106   1.427   .     A
C1085  N1142   1.374   .     A
C1085  Cl1109  1.760   .     S
C1086  N1141   1.363   .     A
C1086  Cl1110  1.757   .     S
C1086  C655    1.419   1_565 S
C1087  N1142   1.377   .     A
C1087  Cl1111  1.743   .     S
C1088  N1141   1.372   .     A
C1088  Cl1112  1.760   .     S
C1088  C653    1.428   1_565 S
C1089  C1106   1.519   .     S
C1089  C1090   1.539   .     S
C1089  H1137   1.094   .     S
C1089  H1138   1.110   .     S
C1090  H1136   1.112   .     S
C1090  H1135   1.107   .     S
C1091  H1124   1.111   .     S
C1091  H1134   1.109   .     S
C1091  H1113   1.111   .     S
C1091  C1738   1.528   .     S
C1092  O1144   1.300   .     A
C1092  O1145   1.291   .     A
C1093  C1094   1.541   .     S
C1093  H1118   1.110   .     S
C1093  H1117   1.106   .     S
C1093  C1107   1.526   .     S
C1094  H1116   1.110   .     S
C1094  C1095   1.521   .     S
C1094  H1187   1.111   .     S
C1095  H1114   1.109   .     S
C1095  H1139   1.109   .     S
C1095  H1140   1.110   .     S
C1096  H1125   1.110   .     S
C1096  C1108   1.524   .     S
C1096  H1126   1.105   .     S
C1096  C1097   1.530   .     S
C1097  H1123   1.108   .     S
C1097  C1098   1.525   .     S
C1097  H1122   1.110   .     S
C1098  H1119   1.107   .     S
C1098  H1120   1.109   .     S
C1099  C1100   1.533   .     S
C1099  H1133   1.113   .     S
C1099  H1132   1.109   .     S
C1100  H1131   1.106   .     S
C1100  C1101   1.524   .     S
C1100  H1130   1.111   .     S
C1101  H1128   1.110   .     S
C1101  H1129   1.108   .     S
C1101  H1127   1.111   .     S
C1102  C1104   1.365   .     S
C1102  O1147   1.284   .     A
C1102  O1150   1.287   .     A
C1103  O1149   1.286   .     A
C1103  O1148   1.284   .     A
C1103  C1105   1.365   .     S
C1105  C1752   1.165   .     S
C1106  C1252   1.409   1_455 S
C1107  C1154   1.381   .     S
C1108  C1178   1.409   .     S
H1115  C1238   1.111   1_455 S
H1121  C666    1.108   1_565 S
N1141  Zn1151  2.033   .     S
N1142  Zn1152  2.033   .     S
O1143  Zn1151  1.976   .     S
O1144  Zn1152  1.976   .     S
O1145  Zn1151  1.996   .     S
O1146  Zn1152  1.996   .     S
O1147  Zn1151  1.943   .     S
O1148  Zn1152  1.943   .     S
O1149  Zn1151  1.951   .     S
O1150  Zn1152  1.951   .     S
C1153  O1218   1.309   .     A
C1153  O1215   1.284   .     A
C1153  C1156   1.444   .     S
C1154  C1156   1.428   .     A
C1154  C1171   1.528   .     S
C1155  C1179   1.395   .     A
C1155  C1180   1.408   .     A
C1155  C1164   1.439   .     S
C1156  C1178   1.427   .     A
C1157  N1214   1.374   .     A
C1157  Cl1181  1.760   .     S
C1158  N1213   1.363   .     A
C1158  Cl1182  1.757   .     S
C1158  C727    1.419   1_565 S
C1159  N1214   1.377   .     A
C1159  Cl1183  1.743   .     S
C1160  N1213   1.372   .     A
C1160  Cl1184  1.760   .     S
C1160  C725    1.428   1_565 S
C1161  C1178   1.519   .     S
C1161  C1162   1.539   .     S
C1161  H1209   1.094   .     S
C1161  H1210   1.110   .     S
C1162  H1208   1.112   .     S
C1162  H1207   1.107   .     S
C1163  H1196   1.111   .     S
C1163  H1206   1.109   .     S
C1163  H1185   1.111   .     S
C1163  C1810   1.528   .     S
C1164  O1216   1.300   .     A
C1164  O1217   1.291   .     A
C1165  C1166   1.541   .     S
C1165  H1190   1.110   .     S
C1165  H1189   1.106   .     S
C1165  C1179   1.526   .     S
C1166  H1188   1.110   .     S
C1166  C1167   1.521   .     S
C1166  H1259   1.111   .     S
C1167  H1186   1.109   .     S
C1167  H1211   1.109   .     S
C1167  H1212   1.110   .     S
C1168  H1197   1.110   .     S
C1168  C1180   1.524   .     S
C1168  H1198   1.105   .     S
C1168  C1169   1.530   .     S
C1169  H1195   1.108   .     S
C1169  C1170   1.525   .     S
C1169  H1194   1.110   .     S
C1170  H1191   1.107   .     S
C1170  H1192   1.109   .     S
C1171  C1172   1.533   .     S
C1171  H1205   1.113   .     S
C1171  H1204   1.109   .     S
C1172  H1203   1.106   .     S
C1172  C1173   1.524   .     S
C1172  H1202   1.111   .     S
C1173  H1200   1.110   .     S
C1173  H1201   1.108   .     S
C1173  H1199   1.111   .     S
C1174  C1176   1.365   .     S
C1174  O1219   1.284   .     A
C1174  O1222   1.287   .     A
C1175  O1221   1.286   .     A
C1175  O1220   1.284   .     A
C1175  C1177   1.365   .     S
C1177  C1824   1.165   .     S
C1179  C1226   1.381   .     S
C1180  C1250   1.409   .     S
H1193  C738    1.108   1_565 S
N1213  Zn1223  2.033   .     S
N1214  Zn1224  2.033   .     S
O1215  Zn1223  1.976   .     S
O1216  Zn1224  1.976   .     S
O1217  Zn1223  1.996   .     S
O1218  Zn1224  1.996   .     S
O1219  Zn1223  1.943   .     S
O1220  Zn1224  1.943   .     S
O1221  Zn1223  1.951   .     S
O1222  Zn1224  1.951   .     S
C1225  O1290   1.309   .     A
C1225  O1287   1.284   .     A
C1225  C1228   1.444   .     S
C1226  C1228   1.428   .     A
C1226  C1243   1.528   .     S
C1227  C1251   1.395   .     A
C1227  C1252   1.408   .     A
C1227  C1236   1.439   .     S
C1228  C1250   1.427   .     A
C1229  N1286   1.374   .     A
C1229  Cl1253  1.760   .     S
C1230  N1285   1.363   .     A
C1230  Cl1254  1.757   .     S
C1230  C799    1.419   1_565 S
C1231  N1286   1.377   .     A
C1231  Cl1255  1.743   .     S
C1232  N1285   1.372   .     A
C1232  Cl1256  1.760   .     S
C1232  C797    1.428   1_565 S
C1233  C1250   1.519   .     S
C1233  C1234   1.539   .     S
C1233  H1281   1.094   .     S
C1233  H1282   1.110   .     S
C1234  H1280   1.112   .     S
C1234  H1279   1.107   .     S
C1235  H1268   1.111   .     S
C1235  H1278   1.109   .     S
C1235  H1257   1.111   .     S
C1235  C1882   1.528   .     S
C1236  O1288   1.300   .     A
C1236  O1289   1.291   .     A
C1237  C1238   1.541   .     S
C1237  H1262   1.110   .     S
C1237  H1261   1.106   .     S
C1237  C1251   1.526   .     S
C1238  H1260   1.110   .     S
C1238  C1239   1.521   .     S
C1238  H1115   1.111   1_655 S
C1239  H1258   1.109   .     S
C1239  H1283   1.109   .     S
C1239  H1284   1.110   .     S
C1240  H1269   1.110   .     S
C1240  C1252   1.524   .     S
C1240  H1270   1.105   .     S
C1240  C1241   1.530   .     S
C1241  H1267   1.108   .     S
C1241  C1242   1.525   .     S
C1241  H1266   1.110   .     S
C1242  H1263   1.107   .     S
C1242  H1264   1.109   .     S
C1243  C1244   1.533   .     S
C1243  H1277   1.113   .     S
C1243  H1276   1.109   .     S
C1244  H1275   1.106   .     S
C1244  C1245   1.524   .     S
C1244  H1274   1.111   .     S
C1245  H1272   1.110   .     S
C1245  H1273   1.108   .     S
C1245  H1271   1.111   .     S
C1246  C1248   1.365   .     S
C1246  O1291   1.284   .     A
C1246  O1294   1.287   .     A
C1247  O1293   1.286   .     A
C1247  O1292   1.284   .     A
C1247  C1249   1.365   .     S
C1249  C1896   1.165   .     S
C1251  C1082   1.381   1_655 S
C1252  C1106   1.409   1_655 S
H1265  C810    1.108   1_565 S
N1285  Zn1295  2.033   .     S
N1286  Zn1296  2.033   .     S
O1287  Zn1295  1.976   .     S
O1288  Zn1296  1.976   .     S
O1289  Zn1295  1.996   .     S
O1290  Zn1296  1.996   .     S
O1291  Zn1295  1.943   .     S
O1292  Zn1296  1.943   .     S
O1293  Zn1295  1.951   .     S
O1294  Zn1296  1.951   .     S
C1297  O1362   1.309   .     A
C1297  O1359   1.284   .     A
C1297  C1300   1.444   .     S
C1298  C1300   1.428   .     A
C1298  C1315   1.528   .     S
C1298  C1467   1.381   1_455 S
C1299  C1323   1.395   .     A
C1299  C1324   1.408   .     A
C1299  C1308   1.439   .     S
C1300  C1322   1.427   .     A
C1301  N1358   1.374   .     A
C1301  Cl1325  1.760   .     S
C1301  C1736   1.428   1_545 S
C1302  N1357   1.363   .     A
C1302  Cl1326  1.757   .     S
C1302  C1519   1.419   .     S
C1303  N1358   1.377   .     A
C1303  Cl1327  1.743   .     S
C1303  C1734   1.419   1_545 S
C1304  N1357   1.372   .     A
C1304  Cl1328  1.760   .     S
C1304  C1517   1.428   .     S
C1305  C1322   1.519   .     S
C1305  C1306   1.539   .     S
C1305  H1353   1.094   .     S
C1305  H1354   1.110   .     S
C1306  H1352   1.112   .     S
C1306  H1351   1.107   .     S
C1307  H1340   1.111   .     S
C1307  H1350   1.109   .     S
C1307  H1329   1.111   .     S
C1307  C10     1.528   1_556 S
C1308  O1360   1.300   .     A
C1308  O1361   1.291   .     A
C1309  C1310   1.541   .     S
C1309  H1334   1.110   .     S
C1309  H1333   1.106   .     S
C1309  C1323   1.526   .     S
C1310  H1332   1.110   .     S
C1310  C1311   1.521   .     S
C1310  H1403   1.111   .     S
C1311  H1330   1.109   .     S
C1311  H1355   1.109   .     S
C1311  H1356   1.110   .     S
C1312  H1341   1.110   .     S
C1312  C1324   1.524   .     S
C1312  H1342   1.105   .     S
C1312  C1313   1.530   .     S
C1313  H1339   1.108   .     S
C1313  C1314   1.525   .     S
C1313  H1338   1.110   .     S
C1314  H1335   1.107   .     S
C1314  H1336   1.109   .     S
C1314  H1769   1.108   1_545 S
C1315  C1316   1.533   .     S
C1315  H1349   1.113   .     S
C1315  H1348   1.109   .     S
C1316  H1347   1.106   .     S
C1316  C1317   1.524   .     S
C1316  H1346   1.111   .     S
C1317  H1344   1.110   .     S
C1317  H1345   1.108   .     S
C1317  H1343   1.111   .     S
C1318  C1320   1.365   .     S
C1318  O1363   1.284   .     A
C1318  O1366   1.287   .     A
C1319  O1365   1.286   .     A
C1319  O1364   1.284   .     A
C1319  C1321   1.365   .     S
C1321  C24     1.165   1_556 S
C1322  C1468   1.409   1_455 S
C1323  C1370   1.381   .     S
C1324  C1394   1.409   .     S
H1331  C1454   1.111   1_455 S
H1337  C1530   1.108   .     S
N1357  Zn1367  2.033   .     S
N1358  Zn1368  2.033   .     S
O1359  Zn1367  1.976   .     S
O1360  Zn1368  1.976   .     S
O1361  Zn1367  1.996   .     S
O1362  Zn1368  1.996   .     S
O1363  Zn1367  1.943   .     S
O1364  Zn1368  1.943   .     S
O1365  Zn1367  1.951   .     S
O1366  Zn1368  1.951   .     S
C1369  O1434   1.309   .     A
C1369  O1431   1.284   .     A
C1369  C1372   1.444   .     S
C1370  C1372   1.428   .     A
C1370  C1387   1.528   .     S
C1371  C1395   1.395   .     A
C1371  C1396   1.408   .     A
C1371  C1380   1.439   .     S
C1372  C1394   1.427   .     A
C1373  N1430   1.374   .     A
C1373  Cl1397  1.760   .     S
C1373  C1808   1.428   1_545 S
C1374  N1429   1.363   .     A
C1374  Cl1398  1.757   .     S
C1374  C1591   1.419   .     S
C1375  N1430   1.377   .     A
C1375  Cl1399  1.743   .     S
C1375  C1806   1.419   1_545 S
C1376  N1429   1.372   .     A
C1376  Cl1400  1.760   .     S
C1376  C1589   1.428   .     S
C1377  C1394   1.519   .     S
C1377  C1378   1.539   .     S
C1377  H1425   1.094   .     S
C1377  H1426   1.110   .     S
C1378  H1424   1.112   .     S
C1378  H1423   1.107   .     S
C1379  H1412   1.111   .     S
C1379  H1422   1.109   .     S
C1379  H1401   1.111   .     S
C1379  C82     1.528   1_556 S
C1380  O1432   1.300   .     A
C1380  O1433   1.291   .     A
C1381  C1382   1.541   .     S
C1381  H1406   1.110   .     S
C1381  H1405   1.106   .     S
C1381  C1395   1.526   .     S
C1382  H1404   1.110   .     S
C1382  C1383   1.521   .     S
C1382  H1475   1.111   .     S
C1383  H1402   1.109   .     S
C1383  H1427   1.109   .     S
C1383  H1428   1.110   .     S
C1384  H1413   1.110   .     S
C1384  C1396   1.524   .     S
C1384  H1414   1.105   .     S
C1384  C1385   1.530   .     S
C1385  H1411   1.108   .     S
C1385  C1386   1.525   .     S
C1385  H1410   1.110   .     S
C1386  H1407   1.107   .     S
C1386  H1408   1.109   .     S
C1386  H1841   1.108   1_545 S
C1387  C1388   1.533   .     S
C1387  H1421   1.113   .     S
C1387  H1420   1.109   .     S
C1388  H1419   1.106   .     S
C1388  C1389   1.524   .     S
C1388  H1418   1.111   .     S
C1389  H1416   1.110   .     S
C1389  H1417   1.108   .     S
C1389  H1415   1.111   .     S
C1390  C1392   1.365   .     S
C1390  O1435   1.284   .     A
C1390  O1438   1.287   .     A
C1391  O1437   1.286   .     A
C1391  O1436   1.284   .     A
C1391  C1393   1.365   .     S
C1393  C96     1.165   1_556 S
C1395  C1442   1.381   .     S
C1396  C1466   1.409   .     S
H1409  C1602   1.108   .     S
N1429  Zn1439  2.033   .     S
N1430  Zn1440  2.033   .     S
O1431  Zn1439  1.976   .     S
O1432  Zn1440  1.976   .     S
O1433  Zn1439  1.996   .     S
O1434  Zn1440  1.996   .     S
O1435  Zn1439  1.943   .     S
O1436  Zn1440  1.943   .     S
O1437  Zn1439  1.951   .     S
O1438  Zn1440  1.951   .     S
C1441  O1506   1.309   .     A
C1441  O1503   1.284   .     A
C1441  C1444   1.444   .     S
C1442  C1444   1.428   .     A
C1442  C1459   1.528   .     S
C1443  C1467   1.395   .     A
C1443  C1468   1.408   .     A
C1443  C1452   1.439   .     S
C1444  C1466   1.427   .     A
C1445  N1502   1.374   .     A
C1445  Cl1469  1.760   .     S
C1445  C1880   1.428   1_545 S
C1446  N1501   1.363   .     A
C1446  Cl1470  1.757   .     S
C1446  C1663   1.419   .     S
C1447  N1502   1.377   .     A
C1447  Cl1471  1.743   .     S
C1447  C1878   1.419   1_545 S
C1448  N1501   1.372   .     A
C1448  Cl1472  1.760   .     S
C1448  C1661   1.428   .     S
C1449  C1466   1.519   .     S
C1449  C1450   1.539   .     S
C1449  H1497   1.094   .     S
C1449  H1498   1.110   .     S
C1450  H1496   1.112   .     S
C1450  H1495   1.107   .     S
C1451  H1484   1.111   .     S
C1451  H1494   1.109   .     S
C1451  H1473   1.111   .     S
C1451  C154    1.528   1_556 S
C1452  O1504   1.300   .     A
C1452  O1505   1.291   .     A
C1453  C1454   1.541   .     S
C1453  H1478   1.110   .     S
C1453  H1477   1.106   .     S
C1453  C1467   1.526   .     S
C1454  H1476   1.110   .     S
C1454  C1455   1.521   .     S
C1454  H1331   1.111   1_655 S
C1455  H1474   1.109   .     S
C1455  H1499   1.109   .     S
C1455  H1500   1.110   .     S
C1456  H1485   1.110   .     S
C1456  C1468   1.524   .     S
C1456  H1486   1.105   .     S
C1456  C1457   1.530   .     S
C1457  H1483   1.108   .     S
C1457  C1458   1.525   .     S
C1457  H1482   1.110   .     S
C1458  H1479   1.107   .     S
C1458  H1480   1.109   .     S
C1458  H1913   1.108   1_545 S
C1459  C1460   1.533   .     S
C1459  H1493   1.113   .     S
C1459  H1492   1.109   .     S
C1460  H1491   1.106   .     S
C1460  C1461   1.524   .     S
C1460  H1490   1.111   .     S
C1461  H1488   1.110   .     S
C1461  H1489   1.108   .     S
C1461  H1487   1.111   .     S
C1462  C1464   1.365   .     S
C1462  O1507   1.284   .     A
C1462  O1510   1.287   .     A
C1463  O1509   1.286   .     A
C1463  O1508   1.284   .     A
C1463  C1465   1.365   .     S
C1465  C168    1.165   1_556 S
C1467  C1298   1.381   1_655 S
C1468  C1322   1.409   1_655 S
H1481  C1674   1.108   .     S
N1501  Zn1511  2.033   .     S
N1502  Zn1512  2.033   .     S
O1503  Zn1511  1.976   .     S
O1504  Zn1512  1.976   .     S
O1505  Zn1511  1.996   .     S
O1506  Zn1512  1.996   .     S
O1507  Zn1511  1.943   .     S
O1508  Zn1512  1.943   .     S
O1509  Zn1511  1.951   .     S
O1510  Zn1512  1.951   .     S
C1513  O1578   1.309   .     A
C1513  O1575   1.284   .     A
C1513  C1516   1.444   .     S
C1514  C1516   1.428   .     A
C1514  C1531   1.528   .     S
C1514  C1683   1.381   1_455 S
C1515  C1539   1.395   .     A
C1515  C1540   1.408   .     A
C1515  C1524   1.439   .     S
C1516  C1538   1.427   .     A
C1517  N1574   1.374   .     A
C1517  Cl1541  1.760   .     S
C1518  N1573   1.363   .     A
C1518  Cl1542  1.757   .     S
C1518  C1735   1.419   .     S
C1519  N1574   1.377   .     A
C1519  Cl1543  1.743   .     S
C1520  N1573   1.372   .     A
C1520  Cl1544  1.760   .     S
C1520  C1733   1.428   .     S
C1521  C1538   1.519   .     S
C1521  C1522   1.539   .     S
C1521  H1569   1.094   .     S
C1521  H1570   1.110   .     S
C1522  H1568   1.112   .     S
C1522  H1567   1.107   .     S
C1523  H1556   1.111   .     S
C1523  H1566   1.109   .     S
C1523  H1545   1.111   .     S
C1523  C226    1.528   1_556 S
C1524  O1576   1.300   .     A
C1524  O1577   1.291   .     A
C1525  C1526   1.541   .     S
C1525  H1550   1.110   .     S
C1525  H1549   1.106   .     S
C1525  C1539   1.526   .     S
C1526  H1548   1.110   .     S
C1526  C1527   1.521   .     S
C1526  H1619   1.111   .     S
C1527  H1546   1.109   .     S
C1527  H1571   1.109   .     S
C1527  H1572   1.110   .     S
C1528  H1557   1.110   .     S
C1528  C1540   1.524   .     S
C1528  H1558   1.105   .     S
C1528  C1529   1.530   .     S
C1529  H1555   1.108   .     S
C1529  C1530   1.525   .     S
C1529  H1554   1.110   .     S
C1530  H1551   1.107   .     S
C1530  H1552   1.109   .     S
C1531  C1532   1.533   .     S
C1531  H1565   1.113   .     S
C1531  H1564   1.109   .     S
C1532  H1563   1.106   .     S
C1532  C1533   1.524   .     S
C1532  H1562   1.111   .     S
C1533  H1560   1.110   .     S
C1533  H1561   1.108   .     S
C1533  H1559   1.111   .     S
C1534  C1536   1.365   .     S
C1534  O1579   1.284   .     A
C1534  O1582   1.287   .     A
C1535  O1581   1.286   .     A
C1535  O1580   1.284   .     A
C1535  C1537   1.365   .     S
C1537  C240    1.165   1_556 S
C1538  C1684   1.409   1_455 S
C1539  C1586   1.381   .     S
C1540  C1610   1.409   .     S
H1547  C1670   1.111   1_455 S
H1553  C1746   1.108   .     S
N1573  Zn1583  2.033   .     S
N1574  Zn1584  2.033   .     S
O1575  Zn1583  1.976   .     S
O1576  Zn1584  1.976   .     S
O1577  Zn1583  1.996   .     S
O1578  Zn1584  1.996   .     S
O1579  Zn1583  1.943   .     S
O1580  Zn1584  1.943   .     S
O1581  Zn1583  1.951   .     S
O1582  Zn1584  1.951   .     S
C1585  O1650   1.309   .     A
C1585  O1647   1.284   .     A
C1585  C1588   1.444   .     S
C1586  C1588   1.428   .     A
C1586  C1603   1.528   .     S
C1587  C1611   1.395   .     A
C1587  C1612   1.408   .     A
C1587  C1596   1.439   .     S
C1588  C1610   1.427   .     A
C1589  N1646   1.374   .     A
C1589  Cl1613  1.760   .     S
C1590  N1645   1.363   .     A
C1590  Cl1614  1.757   .     S
C1590  C1807   1.419   .     S
C1591  N1646   1.377   .     A
C1591  Cl1615  1.743   .     S
C1592  N1645   1.372   .     A
C1592  Cl1616  1.760   .     S
C1592  C1805   1.428   .     S
C1593  C1610   1.519   .     S
C1593  C1594   1.539   .     S
C1593  H1641   1.094   .     S
C1593  H1642   1.110   .     S
C1594  H1640   1.112   .     S
C1594  H1639   1.107   .     S
C1595  H1628   1.111   .     S
C1595  H1638   1.109   .     S
C1595  H1617   1.111   .     S
C1595  C298    1.528   1_556 S
C1596  O1648   1.300   .     A
C1596  O1649   1.291   .     A
C1597  C1598   1.541   .     S
C1597  H1622   1.110   .     S
C1597  H1621   1.106   .     S
C1597  C1611   1.526   .     S
C1598  H1620   1.110   .     S
C1598  C1599   1.521   .     S
C1598  H1691   1.111   .     S
C1599  H1618   1.109   .     S
C1599  H1643   1.109   .     S
C1599  H1644   1.110   .     S
C1600  H1629   1.110   .     S
C1600  C1612   1.524   .     S
C1600  H1630   1.105   .     S
C1600  C1601   1.530   .     S
C1601  H1627   1.108   .     S
C1601  C1602   1.525   .     S
C1601  H1626   1.110   .     S
C1602  H1623   1.107   .     S
C1602  H1624   1.109   .     S
C1603  C1604   1.533   .     S
C1603  H1637   1.113   .     S
C1603  H1636   1.109   .     S
C1604  H1635   1.106   .     S
C1604  C1605   1.524   .     S
C1604  H1634   1.111   .     S
C1605  H1632   1.110   .     S
C1605  H1633   1.108   .     S
C1605  H1631   1.111   .     S
C1606  C1608   1.365   .     S
C1606  O1651   1.284   .     A
C1606  O1654   1.287   .     A
C1607  O1653   1.286   .     A
C1607  O1652   1.284   .     A
C1607  C1609   1.365   .     S
C1609  C312    1.165   1_556 S
C1611  C1658   1.381   .     S
C1612  C1682   1.409   .     S
H1625  C1818   1.108   .     S
N1645  Zn1655  2.033   .     S
N1646  Zn1656  2.033   .     S
O1647  Zn1655  1.976   .     S
O1648  Zn1656  1.976   .     S
O1649  Zn1655  1.996   .     S
O1650  Zn1656  1.996   .     S
O1651  Zn1655  1.943   .     S
O1652  Zn1656  1.943   .     S
O1653  Zn1655  1.951   .     S
O1654  Zn1656  1.951   .     S
C1657  O1722   1.309   .     A
C1657  O1719   1.284   .     A
C1657  C1660   1.444   .     S
C1658  C1660   1.428   .     A
C1658  C1675   1.528   .     S
C1659  C1683   1.395   .     A
C1659  C1684   1.408   .     A
C1659  C1668   1.439   .     S
C1660  C1682   1.427   .     A
C1661  N1718   1.374   .     A
C1661  Cl1685  1.760   .     S
C1662  N1717   1.363   .     A
C1662  Cl1686  1.757   .     S
C1662  C1879   1.419   .     S
C1663  N1718   1.377   .     A
C1663  Cl1687  1.743   .     S
C1664  N1717   1.372   .     A
C1664  Cl1688  1.760   .     S
C1664  C1877   1.428   .     S
C1665  C1682   1.519   .     S
C1665  C1666   1.539   .     S
C1665  H1713   1.094   .     S
C1665  H1714   1.110   .     S
C1666  H1712   1.112   .     S
C1666  H1711   1.107   .     S
C1667  H1700   1.111   .     S
C1667  H1710   1.109   .     S
C1667  H1689   1.111   .     S
C1667  C370    1.528   1_556 S
C1668  O1720   1.300   .     A
C1668  O1721   1.291   .     A
C1669  C1670   1.541   .     S
C1669  H1694   1.110   .     S
C1669  H1693   1.106   .     S
C1669  C1683   1.526   .     S
C1670  H1692   1.110   .     S
C1670  C1671   1.521   .     S
C1670  H1547   1.111   1_655 S
C1671  H1690   1.109   .     S
C1671  H1715   1.109   .     S
C1671  H1716   1.110   .     S
C1672  H1701   1.110   .     S
C1672  C1684   1.524   .     S
C1672  H1702   1.105   .     S
C1672  C1673   1.530   .     S
C1673  H1699   1.108   .     S
C1673  C1674   1.525   .     S
C1673  H1698   1.110   .     S
C1674  H1695   1.107   .     S
C1674  H1696   1.109   .     S
C1675  C1676   1.533   .     S
C1675  H1709   1.113   .     S
C1675  H1708   1.109   .     S
C1676  H1707   1.106   .     S
C1676  C1677   1.524   .     S
C1676  H1706   1.111   .     S
C1677  H1704   1.110   .     S
C1677  H1705   1.108   .     S
C1677  H1703   1.111   .     S
C1678  C1680   1.365   .     S
C1678  O1723   1.284   .     A
C1678  O1726   1.287   .     A
C1679  O1725   1.286   .     A
C1679  O1724   1.284   .     A
C1679  C1681   1.365   .     S
C1681  C384    1.165   1_556 S
C1683  C1514   1.381   1_655 S
C1684  C1538   1.409   1_655 S
H1697  C1890   1.108   .     S
N1717  Zn1727  2.033   .     S
N1718  Zn1728  2.033   .     S
O1719  Zn1727  1.976   .     S
O1720  Zn1728  1.976   .     S
O1721  Zn1727  1.996   .     S
O1722  Zn1728  1.996   .     S
O1723  Zn1727  1.943   .     S
O1724  Zn1728  1.943   .     S
O1725  Zn1727  1.951   .     S
O1726  Zn1728  1.951   .     S
C1729  O1794   1.309   .     A
C1729  O1791   1.284   .     A
C1729  C1732   1.444   .     S
C1730  C1732   1.428   .     A
C1730  C1747   1.528   .     S
C1730  C1899   1.381   1_455 S
C1731  C1755   1.395   .     A
C1731  C1756   1.408   .     A
C1731  C1740   1.439   .     S
C1732  C1754   1.427   .     A
C1733  N1790   1.374   .     A
C1733  Cl1757  1.760   .     S
C1734  N1789   1.363   .     A
C1734  Cl1758  1.757   .     S
C1734  C1303   1.419   1_565 S
C1735  N1790   1.377   .     A
C1735  Cl1759  1.743   .     S
C1736  N1789   1.372   .     A
C1736  Cl1760  1.760   .     S
C1736  C1301   1.428   1_565 S
C1737  C1754   1.519   .     S
C1737  C1738   1.539   .     S
C1737  H1785   1.094   .     S
C1737  H1786   1.110   .     S
C1738  H1784   1.112   .     S
C1738  H1783   1.107   .     S
C1739  H1772   1.111   .     S
C1739  H1782   1.109   .     S
C1739  H1761   1.111   .     S
C1739  C442    1.528   1_556 S
C1740  O1792   1.300   .     A
C1740  O1793   1.291   .     A
C1741  C1742   1.541   .     S
C1741  H1766   1.110   .     S
C1741  H1765   1.106   .     S
C1741  C1755   1.526   .     S
C1742  H1764   1.110   .     S
C1742  C1743   1.521   .     S
C1742  H1835   1.111   .     S
C1743  H1762   1.109   .     S
C1743  H1787   1.109   .     S
C1743  H1788   1.110   .     S
C1744  H1773   1.110   .     S
C1744  C1756   1.524   .     S
C1744  H1774   1.105   .     S
C1744  C1745   1.530   .     S
C1745  H1771   1.108   .     S
C1745  C1746   1.525   .     S
C1745  H1770   1.110   .     S
C1746  H1767   1.107   .     S
C1746  H1768   1.109   .     S
C1747  C1748   1.533   .     S
C1747  H1781   1.113   .     S
C1747  H1780   1.109   .     S
C1748  H1779   1.106   .     S
C1748  C1749   1.524   .     S
C1748  H1778   1.111   .     S
C1749  H1776   1.110   .     S
C1749  H1777   1.108   .     S
C1749  H1775   1.111   .     S
C1750  C1752   1.365   .     S
C1750  O1795   1.284   .     A
C1750  O1798   1.287   .     A
C1751  O1797   1.286   .     A
C1751  O1796   1.284   .     A
C1751  C1753   1.365   .     S
C1753  C456    1.165   1_556 S
C1754  C1900   1.409   1_455 S
C1755  C1802   1.381   .     S
C1756  C1826   1.409   .     S
H1763  C1886   1.111   1_455 S
H1769  C1314   1.108   1_565 S
N1789  Zn1799  2.033   .     S
N1790  Zn1800  2.033   .     S
O1791  Zn1799  1.976   .     S
O1792  Zn1800  1.976   .     S
O1793  Zn1799  1.996   .     S
O1794  Zn1800  1.996   .     S
O1795  Zn1799  1.943   .     S
O1796  Zn1800  1.943   .     S
O1797  Zn1799  1.951   .     S
O1798  Zn1800  1.951   .     S
C1801  O1866   1.309   .     A
C1801  O1863   1.284   .     A
C1801  C1804   1.444   .     S
C1802  C1804   1.428   .     A
C1802  C1819   1.528   .     S
C1803  C1827   1.395   .     A
C1803  C1828   1.408   .     A
C1803  C1812   1.439   .     S
C1804  C1826   1.427   .     A
C1805  N1862   1.374   .     A
C1805  Cl1829  1.760   .     S
C1806  N1861   1.363   .     A
C1806  Cl1830  1.757   .     S
C1806  C1375   1.419   1_565 S
C1807  N1862   1.377   .     A
C1807  Cl1831  1.743   .     S
C1808  N1861   1.372   .     A
C1808  Cl1832  1.760   .     S
C1808  C1373   1.428   1_565 S
C1809  C1826   1.519   .     S
C1809  C1810   1.539   .     S
C1809  H1857   1.094   .     S
C1809  H1858   1.110   .     S
C1810  H1856   1.112   .     S
C1810  H1855   1.107   .     S
C1811  H1844   1.111   .     S
C1811  H1854   1.109   .     S
C1811  H1833   1.111   .     S
C1811  C514    1.528   1_556 S
C1812  O1864   1.300   .     A
C1812  O1865   1.291   .     A
C1813  C1814   1.541   .     S
C1813  H1838   1.110   .     S
C1813  H1837   1.106   .     S
C1813  C1827   1.526   .     S
C1814  H1836   1.110   .     S
C1814  C1815   1.521   .     S
C1814  H1907   1.111   .     S
C1815  H1834   1.109   .     S
C1815  H1859   1.109   .     S
C1815  H1860   1.110   .     S
C1816  H1845   1.110   .     S
C1816  C1828   1.524   .     S
C1816  H1846   1.105   .     S
C1816  C1817   1.530   .     S
C1817  H1843   1.108   .     S
C1817  C1818   1.525   .     S
C1817  H1842   1.110   .     S
C1818  H1839   1.107   .     S
C1818  H1840   1.109   .     S
C1819  C1820   1.533   .     S
C1819  H1853   1.113   .     S
C1819  H1852   1.109   .     S
C1820  H1851   1.106   .     S
C1820  C1821   1.524   .     S
C1820  H1850   1.111   .     S
C1821  H1848   1.110   .     S
C1821  H1849   1.108   .     S
C1821  H1847   1.111   .     S
C1822  C1824   1.365   .     S
C1822  O1867   1.284   .     A
C1822  O1870   1.287   .     A
C1823  O1869   1.286   .     A
C1823  O1868   1.284   .     A
C1823  C1825   1.365   .     S
C1825  C528    1.165   1_556 S
C1827  C1874   1.381   .     S
C1828  C1898   1.409   .     S
H1841  C1386   1.108   1_565 S
N1861  Zn1871  2.033   .     S
N1862  Zn1872  2.033   .     S
O1863  Zn1871  1.976   .     S
O1864  Zn1872  1.976   .     S
O1865  Zn1871  1.996   .     S
O1866  Zn1872  1.996   .     S
O1867  Zn1871  1.943   .     S
O1868  Zn1872  1.943   .     S
O1869  Zn1871  1.951   .     S
O1870  Zn1872  1.951   .     S
C1873  O1938   1.309   .     A
C1873  O1935   1.284   .     A
C1873  C1876   1.444   .     S
C1874  C1876   1.428   .     A
C1874  C1891   1.528   .     S
C1875  C1899   1.395   .     A
C1875  C1900   1.408   .     A
C1875  C1884   1.439   .     S
C1876  C1898   1.427   .     A
C1877  N1934   1.374   .     A
C1877  Cl1901  1.760   .     S
C1878  N1933   1.363   .     A
C1878  Cl1902  1.757   .     S
C1878  C1447   1.419   1_565 S
C1879  N1934   1.377   .     A
C1879  Cl1903  1.743   .     S
C1880  N1933   1.372   .     A
C1880  Cl1904  1.760   .     S
C1880  C1445   1.428   1_565 S
C1881  C1898   1.519   .     S
C1881  C1882   1.539   .     S
C1881  H1929   1.094   .     S
C1881  H1930   1.110   .     S
C1882  H1928   1.112   .     S
C1882  H1927   1.107   .     S
C1883  H1916   1.111   .     S
C1883  H1926   1.109   .     S
C1883  H1905   1.111   .     S
C1883  C586    1.528   1_556 S
C1884  O1936   1.300   .     A
C1884  O1937   1.291   .     A
C1885  C1886   1.541   .     S
C1885  H1910   1.110   .     S
C1885  H1909   1.106   .     S
C1885  C1899   1.526   .     S
C1886  H1908   1.110   .     S
C1886  C1887   1.521   .     S
C1886  H1763   1.111   1_655 S
C1887  H1906   1.109   .     S
C1887  H1931   1.109   .     S
C1887  H1932   1.110   .     S
C1888  H1917   1.110   .     S
C1888  C1900   1.524   .     S
C1888  H1918   1.105   .     S
C1888  C1889   1.530   .     S
C1889  H1915   1.108   .     S
C1889  C1890   1.525   .     S
C1889  H1914   1.110   .     S
C1890  H1911   1.107   .     S
C1890  H1912   1.109   .     S
C1891  C1892   1.533   .     S
C1891  H1925   1.113   .     S
C1891  H1924   1.109   .     S
C1892  H1923   1.106   .     S
C1892  C1893   1.524   .     S
C1892  H1922   1.111   .     S
C1893  H1920   1.110   .     S
C1893  H1921   1.108   .     S
C1893  H1919   1.111   .     S
C1894  C1896   1.365   .     S
C1894  O1939   1.284   .     A
C1894  O1942   1.287   .     A
C1895  O1941   1.286   .     A
C1895  O1940   1.284   .     A
C1895  C1897   1.365   .     S
C1897  C600    1.165   1_556 S
C1899  C1730   1.381   1_655 S
C1900  C1754   1.409   1_655 S
H1913  C1458   1.108   1_565 S
N1933  Zn1943  2.033   .     S
N1934  Zn1944  2.033   .     S
O1935  Zn1943  1.976   .     S
O1936  Zn1944  1.976   .     S
O1937  Zn1943  1.996   .     S
O1938  Zn1944  1.996   .     S
O1939  Zn1943  1.943   .     S
O1940  Zn1944  1.943   .     S
O1941  Zn1943  1.951   .     S
O1942  Zn1944  1.951   .     S
