data_str_m3_o10_o17_pcu_sym.150
_audit_creation_date              2020-01-03
_audit_creation_method            'Materials Studio'
_symmetry_space_group_name_H-M    'P1'
_symmetry_Int_Tables_number       1
_symmetry_cell_setting            triclinic
loop_
_symmetry_equiv_pos_as_xyz
  x,y,z
_cell_length_a                    23.5397
_cell_length_b                    25.8000
_cell_length_c                    29.8410
_cell_angle_alpha                 91.4847
_cell_angle_beta                  84.9102
_cell_angle_gamma                 93.5648
loop_
_atom_site_label
_atom_site_type_symbol
_atom_site_fract_x
_atom_site_fract_y
_atom_site_fract_z
_atom_site_U_iso_or_equiv
_atom_site_adp_type
_atom_site_occupancy
C1     C     0.18180   0.26479   0.24858   0.00000  Uiso   1.00
C2     C     0.14513   0.21339   0.40957   0.00000  Uiso   1.00
C3     C     0.16340   0.16367   0.11573   0.00000  Uiso   1.00
C4     C     0.16988   0.17250   0.38402   0.00000  Uiso   1.00
C5     C     0.14457   0.20743   0.09640   0.00000  Uiso   1.00
C6     C     0.19859   0.13484   0.40376   0.00000  Uiso   1.00
C7     C     0.14485   0.20980   0.05008   0.00000  Uiso   1.00
C8     C     0.19719   0.13295   0.44993   0.00000  Uiso   1.00
C9     C     0.16823   0.16941   0.02321   0.00000  Uiso   1.00
C10    C     0.17087   0.17217   0.47648   0.00000  Uiso   1.00
C11    C     0.18615   0.12478   0.04305   0.00000  Uiso   1.00
C12    C     0.15151   0.06852   0.25119   0.00000  Uiso   1.00
C13    C     0.14584   0.21322   0.45642   0.00000  Uiso   1.00
C14    C     0.12223   0.25160   0.03026   0.00000  Uiso   1.00
C15    C     0.21925   0.09104   0.46991   0.00000  Uiso   1.00
C16    C     0.21300   0.05368   0.12622   0.00000  Uiso   1.00
C17    C     0.20986   0.32811   0.12699   0.00000  Uiso   1.00
C18    C     0.15474   0.28618   0.36546   0.00000  Uiso   1.00
C19    C     0.18438   0.32505   0.39616   0.00000  Uiso   1.00
C20    C     0.31889   0.09012   0.18397   0.00000  Uiso   1.00
C21    C     0.03038   0.06187   0.15449   0.00000  Uiso   1.00
C22    C     0.01646   0.23118   0.32368   0.00000  Uiso   1.00
C23    C     0.12142   0.25266   0.48373   0.00000  Uiso   1.00
C24    C     0.31407   0.26740   0.35379   0.00000  Uiso   1.00
C25    C     0.21123   0.08562   0.01612   0.00000  Uiso   1.00
C26    C     0.18968   0.31930   0.24867   0.00000  Uiso   1.00
C27    C     0.14358   0.01399   0.25113   0.00000  Uiso   1.00
C28    C     0.16728   0.16817   0.33637   0.00000  Uiso   1.00
C29    C     0.16564   0.16435   0.16357   0.00000  Uiso   1.00
C30    C     0.17783   0.11970   0.08944   0.00000  Uiso   1.00
H31    H     0.12847   0.23890   0.11762   0.00000  Uiso   1.00
H32    H     0.25455   0.06710   0.10812   0.00000  Uiso   1.00
H33    H     0.21002   0.31184   0.09217   0.00000  Uiso   1.00
H34    H     0.24713   0.31460   0.14277   0.00000  Uiso   1.00
H35    H     0.17021   0.31414   0.14710   0.00000  Uiso   1.00
H36    H     0.12993   0.30853   0.34356   0.00000  Uiso   1.00
H37    H     0.18710   0.26680   0.34278   0.00000  Uiso   1.00
H38    H     0.20893   0.30498   0.41986   0.00000  Uiso   1.00
H39    H     0.21487   0.01737   0.37518   0.00000  Uiso   1.00
H40    H     0.15238   0.01546   0.41532   0.00000  Uiso   1.00
H41    H     0.30333   0.12060   0.16333   0.00000  Uiso   1.00
H42    H     0.21918   0.10521   0.38298   0.00000  Uiso   1.00
H43    H     0.28509   0.06085   0.19560   0.00000  Uiso   1.00
H44    H     0.05042   0.03345   0.17457   0.00000  Uiso   1.00
H45    H     0.01072   0.04075   0.12636   0.00000  Uiso   1.00
H46    H     0.06376   0.09044   0.14025   0.00000  Uiso   1.00
H47    H     0.05852   0.25145   0.31513   0.00000  Uiso   1.00
H48    H     0.02061   0.19551   0.34306   0.00000  Uiso   1.00
H49    H     0.27422   0.24604   0.36740   0.00000  Uiso   1.00
H50    H     0.00480   0.28162   0.38250   0.00000  Uiso   1.00
H51    H     0.30345   0.30125   0.33453   0.00000  Uiso   1.00
H52    H     0.10402   0.28274   0.05077   0.00000  Uiso   1.00
H53    H     0.24087   0.06152   0.44978   0.00000  Uiso   1.00
H54    H     0.10192   0.28453   0.46932   0.00000  Uiso   1.00
H55    H     0.22621   0.05156   0.03070   0.00000  Uiso   1.00
H56    H     0.23323   0.00283   0.24721   0.00000  Uiso   1.00
H57    H     0.09998   0.33038   0.25295   0.00000  Uiso   1.00
H58    H     0.20963   0.06775   0.16138   0.00000  Uiso   1.00
N59    N     0.31678   0.15265   0.23783   0.00000  Uiso   1.00
N60    N     0.01656   0.18068   0.26217   0.00000  Uiso   1.00
O61    O     0.12975   0.24619   0.25298   0.00000  Uiso   1.00
O62    O     0.11607   0.25086   0.38993   0.00000  Uiso   1.00
O63    O     0.01064   0.11083   0.22153   0.00000  Uiso   1.00
O64    O     0.32265   0.21928   0.28444   0.00000  Uiso   1.00
O65    O     0.20358   0.08714   0.24701   0.00000  Uiso   1.00
O66    O     0.22613   0.23721   0.24518   0.00000  Uiso   1.00
O67    O     0.10720   0.09613   0.25481   0.00000  Uiso   1.00
O68    O     0.11847   0.17117   0.31997   0.00000  Uiso   1.00
O69    O     0.21486   0.16216   0.18002   0.00000  Uiso   1.00
O70    O     0.21485   0.16219   0.31217   0.00000  Uiso   1.00
O71    O     0.11848   0.17115   0.18782   0.00000  Uiso   1.00
O72    O     0.16595   0.07024   0.10612   0.00000  Uiso   1.00
Zn73   Zn    0.10231   0.17266   0.25521   0.00000  Uiso   1.00
Zn74   Zn    0.23102   0.16067   0.24479   0.00000  Uiso   1.00
C75    C     0.51513   0.26479   0.24858   0.00000  Uiso   1.00
C76    C     0.47846   0.21339   0.40957   0.00000  Uiso   1.00
C77    C     0.49673   0.16367   0.11573   0.00000  Uiso   1.00
C78    C     0.50321   0.17250   0.38402   0.00000  Uiso   1.00
C79    C     0.47790   0.20743   0.09640   0.00000  Uiso   1.00
C80    C     0.53193   0.13484   0.40376   0.00000  Uiso   1.00
C81    C     0.47818   0.20980   0.05008   0.00000  Uiso   1.00
C82    C     0.53053   0.13295   0.44993   0.00000  Uiso   1.00
C83    C     0.50157   0.16941   0.02321   0.00000  Uiso   1.00
C84    C     0.50420   0.17217   0.47648   0.00000  Uiso   1.00
C85    C     0.51948   0.12478   0.04305   0.00000  Uiso   1.00
C86    C     0.48484   0.06852   0.25119   0.00000  Uiso   1.00
C87    C     0.47917   0.21322   0.45642   0.00000  Uiso   1.00
C88    C     0.45557   0.25160   0.03026   0.00000  Uiso   1.00
C89    C     0.55259   0.09104   0.46991   0.00000  Uiso   1.00
C90    C     0.54634   0.05368   0.12622   0.00000  Uiso   1.00
C91    C     0.54319   0.32811   0.12699   0.00000  Uiso   1.00
C92    C     0.48807   0.28618   0.36546   0.00000  Uiso   1.00
C93    C     0.51772   0.32505   0.39616   0.00000  Uiso   1.00
C94    C     0.65222   0.09012   0.18397   0.00000  Uiso   1.00
C95    C     0.36371   0.06187   0.15449   0.00000  Uiso   1.00
C96    C     0.34979   0.23118   0.32368   0.00000  Uiso   1.00
C97    C     0.45475   0.25266   0.48373   0.00000  Uiso   1.00
C98    C     0.64741   0.26740   0.35379   0.00000  Uiso   1.00
C99    C     0.54456   0.08562   0.01612   0.00000  Uiso   1.00
C100   C     0.52301   0.31930   0.24867   0.00000  Uiso   1.00
C101   C     0.47691   0.01399   0.25113   0.00000  Uiso   1.00
C102   C     0.50061   0.16817   0.33637   0.00000  Uiso   1.00
C103   C     0.49897   0.16435   0.16357   0.00000  Uiso   1.00
C104   C     0.51117   0.11970   0.08944   0.00000  Uiso   1.00
H105   H     0.46181   0.23890   0.11762   0.00000  Uiso   1.00
H106   H     0.58788   0.06710   0.10812   0.00000  Uiso   1.00
H107   H     0.54335   0.31184   0.09217   0.00000  Uiso   1.00
H108   H     0.58047   0.31460   0.14277   0.00000  Uiso   1.00
H109   H     0.50354   0.31414   0.14710   0.00000  Uiso   1.00
H110   H     0.46326   0.30853   0.34356   0.00000  Uiso   1.00
H111   H     0.52043   0.26680   0.34278   0.00000  Uiso   1.00
H112   H     0.54226   0.30498   0.41986   0.00000  Uiso   1.00
H113   H     0.54820   0.01737   0.37518   0.00000  Uiso   1.00
H114   H     0.48571   0.01546   0.41532   0.00000  Uiso   1.00
H115   H     0.63666   0.12060   0.16333   0.00000  Uiso   1.00
H116   H     0.55252   0.10521   0.38298   0.00000  Uiso   1.00
H117   H     0.61842   0.06085   0.19560   0.00000  Uiso   1.00
H118   H     0.38375   0.03345   0.17457   0.00000  Uiso   1.00
H119   H     0.34405   0.04075   0.12636   0.00000  Uiso   1.00
H120   H     0.39710   0.09044   0.14025   0.00000  Uiso   1.00
H121   H     0.39185   0.25145   0.31513   0.00000  Uiso   1.00
H122   H     0.35395   0.19551   0.34306   0.00000  Uiso   1.00
H123   H     0.60755   0.24604   0.36740   0.00000  Uiso   1.00
H124   H     0.33813   0.28162   0.38250   0.00000  Uiso   1.00
H125   H     0.63678   0.30125   0.33453   0.00000  Uiso   1.00
H126   H     0.43735   0.28274   0.05077   0.00000  Uiso   1.00
H127   H     0.57420   0.06152   0.44978   0.00000  Uiso   1.00
H128   H     0.43525   0.28453   0.46932   0.00000  Uiso   1.00
H129   H     0.55955   0.05156   0.03070   0.00000  Uiso   1.00
H130   H     0.56656   0.00283   0.24721   0.00000  Uiso   1.00
H131   H     0.43331   0.33038   0.25295   0.00000  Uiso   1.00
H132   H     0.54296   0.06775   0.16138   0.00000  Uiso   1.00
N133   N     0.65011   0.15265   0.23783   0.00000  Uiso   1.00
N134   N     0.34989   0.18068   0.26217   0.00000  Uiso   1.00
O135   O     0.46308   0.24619   0.25298   0.00000  Uiso   1.00
O136   O     0.44940   0.25086   0.38993   0.00000  Uiso   1.00
O137   O     0.34397   0.11083   0.22153   0.00000  Uiso   1.00
O138   O     0.65598   0.21928   0.28444   0.00000  Uiso   1.00
O139   O     0.53692   0.08714   0.24701   0.00000  Uiso   1.00
O140   O     0.55946   0.23721   0.24518   0.00000  Uiso   1.00
O141   O     0.44054   0.09613   0.25481   0.00000  Uiso   1.00
O142   O     0.45181   0.17117   0.31997   0.00000  Uiso   1.00
O143   O     0.54819   0.16216   0.18002   0.00000  Uiso   1.00
O144   O     0.54819   0.16219   0.31217   0.00000  Uiso   1.00
O145   O     0.45181   0.17115   0.18782   0.00000  Uiso   1.00
O146   O     0.49928   0.07024   0.10612   0.00000  Uiso   1.00
Zn147  Zn    0.43565   0.17266   0.25521   0.00000  Uiso   1.00
Zn148  Zn    0.56435   0.16067   0.24479   0.00000  Uiso   1.00
C149   C     0.84847   0.26479   0.24858   0.00000  Uiso   1.00
C150   C     0.81179   0.21339   0.40957   0.00000  Uiso   1.00
C151   C     0.83006   0.16367   0.11573   0.00000  Uiso   1.00
C152   C     0.83654   0.17250   0.38402   0.00000  Uiso   1.00
C153   C     0.81123   0.20743   0.09640   0.00000  Uiso   1.00
C154   C     0.86526   0.13484   0.40376   0.00000  Uiso   1.00
C155   C     0.81152   0.20980   0.05008   0.00000  Uiso   1.00
C156   C     0.86386   0.13295   0.44993   0.00000  Uiso   1.00
C157   C     0.83490   0.16941   0.02321   0.00000  Uiso   1.00
C158   C     0.83753   0.17217   0.47648   0.00000  Uiso   1.00
C159   C     0.85281   0.12478   0.04305   0.00000  Uiso   1.00
C160   C     0.81818   0.06852   0.25119   0.00000  Uiso   1.00
C161   C     0.81250   0.21322   0.45642   0.00000  Uiso   1.00
C162   C     0.78890   0.25160   0.03026   0.00000  Uiso   1.00
C163   C     0.88592   0.09104   0.46991   0.00000  Uiso   1.00
C164   C     0.87967   0.05368   0.12622   0.00000  Uiso   1.00
C165   C     0.87653   0.32811   0.12699   0.00000  Uiso   1.00
C166   C     0.82140   0.28618   0.36546   0.00000  Uiso   1.00
C167   C     0.85105   0.32505   0.39616   0.00000  Uiso   1.00
C168   C     0.98556   0.09012   0.18397   0.00000  Uiso   1.00
C169   C     0.69705   0.06187   0.15449   0.00000  Uiso   1.00
C170   C     0.68313   0.23118   0.32368   0.00000  Uiso   1.00
C171   C     0.78808   0.25266   0.48373   0.00000  Uiso   1.00
C172   C     0.98074   0.26740   0.35379   0.00000  Uiso   1.00
C173   C     0.87789   0.08562   0.01612   0.00000  Uiso   1.00
C174   C     0.85634   0.31930   0.24867   0.00000  Uiso   1.00
C175   C     0.81024   0.01399   0.25113   0.00000  Uiso   1.00
C176   C     0.83395   0.16817   0.33637   0.00000  Uiso   1.00
C177   C     0.83231   0.16435   0.16357   0.00000  Uiso   1.00
C178   C     0.84450   0.11970   0.08944   0.00000  Uiso   1.00
H179   H     0.79514   0.23890   0.11762   0.00000  Uiso   1.00
H180   H     0.92122   0.06710   0.10812   0.00000  Uiso   1.00
H181   H     0.87668   0.31184   0.09217   0.00000  Uiso   1.00
H182   H     0.91380   0.31460   0.14277   0.00000  Uiso   1.00
H183   H     0.83687   0.31414   0.14710   0.00000  Uiso   1.00
H184   H     0.79660   0.30853   0.34356   0.00000  Uiso   1.00
H185   H     0.85376   0.26680   0.34278   0.00000  Uiso   1.00
H186   H     0.87560   0.30498   0.41986   0.00000  Uiso   1.00
H187   H     0.88153   0.01737   0.37518   0.00000  Uiso   1.00
H188   H     0.81904   0.01546   0.41532   0.00000  Uiso   1.00
H189   H     0.96999   0.12060   0.16333   0.00000  Uiso   1.00
H190   H     0.88585   0.10521   0.38298   0.00000  Uiso   1.00
H191   H     0.95176   0.06085   0.19560   0.00000  Uiso   1.00
H192   H     0.71708   0.03345   0.17457   0.00000  Uiso   1.00
H193   H     0.67738   0.04075   0.12636   0.00000  Uiso   1.00
H194   H     0.73043   0.09044   0.14025   0.00000  Uiso   1.00
H195   H     0.72518   0.25145   0.31513   0.00000  Uiso   1.00
H196   H     0.68728   0.19551   0.34306   0.00000  Uiso   1.00
H197   H     0.94088   0.24604   0.36740   0.00000  Uiso   1.00
H198   H     0.67146   0.28162   0.38250   0.00000  Uiso   1.00
H199   H     0.97012   0.30125   0.33453   0.00000  Uiso   1.00
H200   H     0.77068   0.28274   0.05077   0.00000  Uiso   1.00
H201   H     0.90754   0.06152   0.44978   0.00000  Uiso   1.00
H202   H     0.76858   0.28453   0.46932   0.00000  Uiso   1.00
H203   H     0.89288   0.05156   0.03070   0.00000  Uiso   1.00
H204   H     0.89990   0.00283   0.24721   0.00000  Uiso   1.00
H205   H     0.76664   0.33038   0.25295   0.00000  Uiso   1.00
H206   H     0.87629   0.06775   0.16138   0.00000  Uiso   1.00
N207   N     0.98344   0.15265   0.23783   0.00000  Uiso   1.00
N208   N     0.68322   0.18068   0.26217   0.00000  Uiso   1.00
O209   O     0.79642   0.24619   0.25298   0.00000  Uiso   1.00
O210   O     0.78273   0.25086   0.38993   0.00000  Uiso   1.00
O211   O     0.67731   0.11083   0.22153   0.00000  Uiso   1.00
O212   O     0.98932   0.21928   0.28444   0.00000  Uiso   1.00
O213   O     0.87025   0.08714   0.24701   0.00000  Uiso   1.00
O214   O     0.89280   0.23721   0.24518   0.00000  Uiso   1.00
O215   O     0.77387   0.09613   0.25481   0.00000  Uiso   1.00
O216   O     0.78514   0.17117   0.31997   0.00000  Uiso   1.00
O217   O     0.88153   0.16216   0.18002   0.00000  Uiso   1.00
O218   O     0.88152   0.16219   0.31217   0.00000  Uiso   1.00
O219   O     0.78515   0.17115   0.18782   0.00000  Uiso   1.00
O220   O     0.83261   0.07024   0.10612   0.00000  Uiso   1.00
Zn221  Zn    0.76898   0.17266   0.25521   0.00000  Uiso   1.00
Zn222  Zn    0.89769   0.16067   0.24479   0.00000  Uiso   1.00
C223   C     0.18180   0.59812   0.24858   0.00000  Uiso   1.00
C224   C     0.14513   0.54673   0.40957   0.00000  Uiso   1.00
C225   C     0.16340   0.49700   0.11573   0.00000  Uiso   1.00
C226   C     0.16988   0.50584   0.38402   0.00000  Uiso   1.00
C227   C     0.14457   0.54076   0.09640   0.00000  Uiso   1.00
C228   C     0.19859   0.46817   0.40376   0.00000  Uiso   1.00
C229   C     0.14485   0.54314   0.05008   0.00000  Uiso   1.00
C230   C     0.19719   0.46628   0.44993   0.00000  Uiso   1.00
C231   C     0.16823   0.50274   0.02321   0.00000  Uiso   1.00
C232   C     0.17087   0.50550   0.47648   0.00000  Uiso   1.00
C233   C     0.18615   0.45811   0.04305   0.00000  Uiso   1.00
C234   C     0.15151   0.40186   0.25119   0.00000  Uiso   1.00
C235   C     0.14584   0.54655   0.45642   0.00000  Uiso   1.00
C236   C     0.12223   0.58493   0.03026   0.00000  Uiso   1.00
C237   C     0.21925   0.42438   0.46991   0.00000  Uiso   1.00
C238   C     0.21300   0.38701   0.12622   0.00000  Uiso   1.00
C239   C     0.20986   0.66144   0.12699   0.00000  Uiso   1.00
C240   C     0.15474   0.61951   0.36546   0.00000  Uiso   1.00
C241   C     0.18438   0.65838   0.39616   0.00000  Uiso   1.00
C242   C     0.31889   0.42346   0.18397   0.00000  Uiso   1.00
C243   C     0.03038   0.39520   0.15449   0.00000  Uiso   1.00
C244   C     0.01646   0.56452   0.32368   0.00000  Uiso   1.00
C245   C     0.12142   0.58600   0.48373   0.00000  Uiso   1.00
C246   C     0.31407   0.60074   0.35379   0.00000  Uiso   1.00
C247   C     0.21123   0.41896   0.01612   0.00000  Uiso   1.00
C248   C     0.18968   0.65264   0.24867   0.00000  Uiso   1.00
C249   C     0.14358   0.34732   0.25113   0.00000  Uiso   1.00
C250   C     0.16728   0.50150   0.33637   0.00000  Uiso   1.00
C251   C     0.16564   0.49768   0.16357   0.00000  Uiso   1.00
C252   C     0.17783   0.45303   0.08944   0.00000  Uiso   1.00
H253   H     0.12847   0.57223   0.11762   0.00000  Uiso   1.00
H254   H     0.25455   0.40044   0.10812   0.00000  Uiso   1.00
H255   H     0.21002   0.64517   0.09217   0.00000  Uiso   1.00
H256   H     0.24713   0.64793   0.14277   0.00000  Uiso   1.00
H257   H     0.17021   0.64748   0.14710   0.00000  Uiso   1.00
H258   H     0.12993   0.64187   0.34356   0.00000  Uiso   1.00
H259   H     0.18710   0.60013   0.34278   0.00000  Uiso   1.00
H260   H     0.20893   0.63831   0.41986   0.00000  Uiso   1.00
H261   H     0.21487   0.35070   0.37518   0.00000  Uiso   1.00
H262   H     0.15238   0.34879   0.41532   0.00000  Uiso   1.00
H263   H     0.30333   0.45394   0.16333   0.00000  Uiso   1.00
H264   H     0.21918   0.43854   0.38298   0.00000  Uiso   1.00
H265   H     0.28509   0.39418   0.19560   0.00000  Uiso   1.00
H266   H     0.05042   0.36678   0.17457   0.00000  Uiso   1.00
H267   H     0.01072   0.37408   0.12636   0.00000  Uiso   1.00
H268   H     0.06376   0.42377   0.14025   0.00000  Uiso   1.00
H269   H     0.05852   0.58479   0.31513   0.00000  Uiso   1.00
H270   H     0.02061   0.52884   0.34306   0.00000  Uiso   1.00
H271   H     0.27422   0.57937   0.36740   0.00000  Uiso   1.00
H272   H     0.00480   0.61495   0.38250   0.00000  Uiso   1.00
H273   H     0.30345   0.63458   0.33453   0.00000  Uiso   1.00
H274   H     0.10402   0.61608   0.05077   0.00000  Uiso   1.00
H275   H     0.24087   0.39486   0.44978   0.00000  Uiso   1.00
H276   H     0.10192   0.61786   0.46932   0.00000  Uiso   1.00
H277   H     0.22621   0.38489   0.03070   0.00000  Uiso   1.00
H278   H     0.23323   0.33616   0.24721   0.00000  Uiso   1.00
H279   H     0.09998   0.66371   0.25295   0.00000  Uiso   1.00
H280   H     0.20963   0.40109   0.16138   0.00000  Uiso   1.00
N281   N     0.31678   0.48598   0.23783   0.00000  Uiso   1.00
N282   N     0.01656   0.51402   0.26217   0.00000  Uiso   1.00
O283   O     0.12975   0.57952   0.25298   0.00000  Uiso   1.00
O284   O     0.11607   0.58419   0.38993   0.00000  Uiso   1.00
O285   O     0.01064   0.44416   0.22153   0.00000  Uiso   1.00
O286   O     0.32265   0.55261   0.28444   0.00000  Uiso   1.00
O287   O     0.20358   0.42048   0.24701   0.00000  Uiso   1.00
O288   O     0.22613   0.57054   0.24518   0.00000  Uiso   1.00
O289   O     0.10720   0.42946   0.25481   0.00000  Uiso   1.00
O290   O     0.11847   0.50450   0.31997   0.00000  Uiso   1.00
O291   O     0.21486   0.49550   0.18002   0.00000  Uiso   1.00
O292   O     0.21485   0.49552   0.31217   0.00000  Uiso   1.00
O293   O     0.11848   0.50448   0.18782   0.00000  Uiso   1.00
O294   O     0.16595   0.40357   0.10612   0.00000  Uiso   1.00
Zn295  Zn    0.10231   0.50600   0.25521   0.00000  Uiso   1.00
Zn296  Zn    0.23102   0.49400   0.24479   0.00000  Uiso   1.00
C297   C     0.51513   0.59812   0.24858   0.00000  Uiso   1.00
C298   C     0.47846   0.54673   0.40957   0.00000  Uiso   1.00
C299   C     0.49673   0.49700   0.11573   0.00000  Uiso   1.00
C300   C     0.50321   0.50584   0.38402   0.00000  Uiso   1.00
C301   C     0.47790   0.54076   0.09640   0.00000  Uiso   1.00
C302   C     0.53193   0.46817   0.40376   0.00000  Uiso   1.00
C303   C     0.47818   0.54314   0.05008   0.00000  Uiso   1.00
C304   C     0.53053   0.46628   0.44993   0.00000  Uiso   1.00
C305   C     0.50157   0.50274   0.02321   0.00000  Uiso   1.00
C306   C     0.50420   0.50550   0.47648   0.00000  Uiso   1.00
C307   C     0.51948   0.45811   0.04305   0.00000  Uiso   1.00
C308   C     0.48484   0.40186   0.25119   0.00000  Uiso   1.00
C309   C     0.47917   0.54655   0.45642   0.00000  Uiso   1.00
C310   C     0.45557   0.58493   0.03026   0.00000  Uiso   1.00
C311   C     0.55259   0.42438   0.46991   0.00000  Uiso   1.00
C312   C     0.54634   0.38701   0.12622   0.00000  Uiso   1.00
C313   C     0.54319   0.66144   0.12699   0.00000  Uiso   1.00
C314   C     0.48807   0.61951   0.36546   0.00000  Uiso   1.00
C315   C     0.51772   0.65838   0.39616   0.00000  Uiso   1.00
C316   C     0.65222   0.42346   0.18397   0.00000  Uiso   1.00
C317   C     0.36371   0.39520   0.15449   0.00000  Uiso   1.00
C318   C     0.34979   0.56452   0.32368   0.00000  Uiso   1.00
C319   C     0.45475   0.58600   0.48373   0.00000  Uiso   1.00
C320   C     0.64741   0.60074   0.35379   0.00000  Uiso   1.00
C321   C     0.54456   0.41896   0.01612   0.00000  Uiso   1.00
C322   C     0.52301   0.65264   0.24867   0.00000  Uiso   1.00
C323   C     0.47691   0.34732   0.25113   0.00000  Uiso   1.00
C324   C     0.50061   0.50150   0.33637   0.00000  Uiso   1.00
C325   C     0.49897   0.49768   0.16357   0.00000  Uiso   1.00
C326   C     0.51117   0.45303   0.08944   0.00000  Uiso   1.00
H327   H     0.46181   0.57223   0.11762   0.00000  Uiso   1.00
H328   H     0.58788   0.40044   0.10812   0.00000  Uiso   1.00
H329   H     0.54335   0.64517   0.09217   0.00000  Uiso   1.00
H330   H     0.58047   0.64793   0.14277   0.00000  Uiso   1.00
H331   H     0.50354   0.64748   0.14710   0.00000  Uiso   1.00
H332   H     0.46326   0.64187   0.34356   0.00000  Uiso   1.00
H333   H     0.52043   0.60013   0.34278   0.00000  Uiso   1.00
H334   H     0.54226   0.63831   0.41986   0.00000  Uiso   1.00
H335   H     0.54820   0.35070   0.37518   0.00000  Uiso   1.00
H336   H     0.48571   0.34879   0.41532   0.00000  Uiso   1.00
H337   H     0.63666   0.45394   0.16333   0.00000  Uiso   1.00
H338   H     0.55252   0.43854   0.38298   0.00000  Uiso   1.00
H339   H     0.61842   0.39418   0.19560   0.00000  Uiso   1.00
H340   H     0.38375   0.36678   0.17457   0.00000  Uiso   1.00
H341   H     0.34405   0.37408   0.12636   0.00000  Uiso   1.00
H342   H     0.39710   0.42377   0.14025   0.00000  Uiso   1.00
H343   H     0.39185   0.58479   0.31513   0.00000  Uiso   1.00
H344   H     0.35395   0.52884   0.34306   0.00000  Uiso   1.00
H345   H     0.60755   0.57937   0.36740   0.00000  Uiso   1.00
H346   H     0.33813   0.61495   0.38250   0.00000  Uiso   1.00
H347   H     0.63678   0.63458   0.33453   0.00000  Uiso   1.00
H348   H     0.43735   0.61608   0.05077   0.00000  Uiso   1.00
H349   H     0.57420   0.39486   0.44978   0.00000  Uiso   1.00
H350   H     0.43525   0.61786   0.46932   0.00000  Uiso   1.00
H351   H     0.55955   0.38489   0.03070   0.00000  Uiso   1.00
H352   H     0.56656   0.33616   0.24721   0.00000  Uiso   1.00
H353   H     0.43331   0.66371   0.25295   0.00000  Uiso   1.00
H354   H     0.54296   0.40109   0.16138   0.00000  Uiso   1.00
N355   N     0.65011   0.48598   0.23783   0.00000  Uiso   1.00
N356   N     0.34989   0.51402   0.26217   0.00000  Uiso   1.00
O357   O     0.46308   0.57952   0.25298   0.00000  Uiso   1.00
O358   O     0.44940   0.58419   0.38993   0.00000  Uiso   1.00
O359   O     0.34397   0.44416   0.22153   0.00000  Uiso   1.00
O360   O     0.65598   0.55261   0.28444   0.00000  Uiso   1.00
O361   O     0.53692   0.42048   0.24701   0.00000  Uiso   1.00
O362   O     0.55946   0.57054   0.24518   0.00000  Uiso   1.00
O363   O     0.44054   0.42946   0.25481   0.00000  Uiso   1.00
O364   O     0.45181   0.50450   0.31997   0.00000  Uiso   1.00
O365   O     0.54819   0.49550   0.18002   0.00000  Uiso   1.00
O366   O     0.54819   0.49552   0.31217   0.00000  Uiso   1.00
O367   O     0.45181   0.50448   0.18782   0.00000  Uiso   1.00
O368   O     0.49928   0.40357   0.10612   0.00000  Uiso   1.00
Zn369  Zn    0.43565   0.50600   0.25521   0.00000  Uiso   1.00
Zn370  Zn    0.56435   0.49400   0.24479   0.00000  Uiso   1.00
C371   C     0.84847   0.59812   0.24858   0.00000  Uiso   1.00
C372   C     0.81179   0.54673   0.40957   0.00000  Uiso   1.00
C373   C     0.83006   0.49700   0.11573   0.00000  Uiso   1.00
C374   C     0.83654   0.50584   0.38402   0.00000  Uiso   1.00
C375   C     0.81123   0.54076   0.09640   0.00000  Uiso   1.00
C376   C     0.86526   0.46817   0.40376   0.00000  Uiso   1.00
C377   C     0.81152   0.54314   0.05008   0.00000  Uiso   1.00
C378   C     0.86386   0.46628   0.44993   0.00000  Uiso   1.00
C379   C     0.83490   0.50274   0.02321   0.00000  Uiso   1.00
C380   C     0.83753   0.50550   0.47648   0.00000  Uiso   1.00
C381   C     0.85281   0.45811   0.04305   0.00000  Uiso   1.00
C382   C     0.81818   0.40186   0.25119   0.00000  Uiso   1.00
C383   C     0.81250   0.54655   0.45642   0.00000  Uiso   1.00
C384   C     0.78890   0.58493   0.03026   0.00000  Uiso   1.00
C385   C     0.88592   0.42438   0.46991   0.00000  Uiso   1.00
C386   C     0.87967   0.38701   0.12622   0.00000  Uiso   1.00
C387   C     0.87653   0.66144   0.12699   0.00000  Uiso   1.00
C388   C     0.82140   0.61951   0.36546   0.00000  Uiso   1.00
C389   C     0.85105   0.65838   0.39616   0.00000  Uiso   1.00
C390   C     0.98556   0.42346   0.18397   0.00000  Uiso   1.00
C391   C     0.69705   0.39520   0.15449   0.00000  Uiso   1.00
C392   C     0.68313   0.56452   0.32368   0.00000  Uiso   1.00
C393   C     0.78808   0.58600   0.48373   0.00000  Uiso   1.00
C394   C     0.98074   0.60074   0.35379   0.00000  Uiso   1.00
C395   C     0.87789   0.41896   0.01612   0.00000  Uiso   1.00
C396   C     0.85634   0.65264   0.24867   0.00000  Uiso   1.00
C397   C     0.81024   0.34732   0.25113   0.00000  Uiso   1.00
C398   C     0.83395   0.50150   0.33637   0.00000  Uiso   1.00
C399   C     0.83231   0.49768   0.16357   0.00000  Uiso   1.00
C400   C     0.84450   0.45303   0.08944   0.00000  Uiso   1.00
H401   H     0.79514   0.57223   0.11762   0.00000  Uiso   1.00
H402   H     0.92122   0.40044   0.10812   0.00000  Uiso   1.00
H403   H     0.87668   0.64517   0.09217   0.00000  Uiso   1.00
H404   H     0.91380   0.64793   0.14277   0.00000  Uiso   1.00
H405   H     0.83687   0.64748   0.14710   0.00000  Uiso   1.00
H406   H     0.79660   0.64187   0.34356   0.00000  Uiso   1.00
H407   H     0.85376   0.60013   0.34278   0.00000  Uiso   1.00
H408   H     0.87560   0.63831   0.41986   0.00000  Uiso   1.00
H409   H     0.88153   0.35070   0.37518   0.00000  Uiso   1.00
H410   H     0.81904   0.34879   0.41532   0.00000  Uiso   1.00
H411   H     0.96999   0.45394   0.16333   0.00000  Uiso   1.00
H412   H     0.88585   0.43854   0.38298   0.00000  Uiso   1.00
H413   H     0.95176   0.39418   0.19560   0.00000  Uiso   1.00
H414   H     0.71708   0.36678   0.17457   0.00000  Uiso   1.00
H415   H     0.67738   0.37408   0.12636   0.00000  Uiso   1.00
H416   H     0.73043   0.42377   0.14025   0.00000  Uiso   1.00
H417   H     0.72518   0.58479   0.31513   0.00000  Uiso   1.00
H418   H     0.68728   0.52884   0.34306   0.00000  Uiso   1.00
H419   H     0.94088   0.57937   0.36740   0.00000  Uiso   1.00
H420   H     0.67146   0.61495   0.38250   0.00000  Uiso   1.00
H421   H     0.97012   0.63458   0.33453   0.00000  Uiso   1.00
H422   H     0.77068   0.61608   0.05077   0.00000  Uiso   1.00
H423   H     0.90754   0.39486   0.44978   0.00000  Uiso   1.00
H424   H     0.76858   0.61786   0.46932   0.00000  Uiso   1.00
H425   H     0.89288   0.38489   0.03070   0.00000  Uiso   1.00
H426   H     0.89990   0.33616   0.24721   0.00000  Uiso   1.00
H427   H     0.76664   0.66371   0.25295   0.00000  Uiso   1.00
H428   H     0.87629   0.40109   0.16138   0.00000  Uiso   1.00
N429   N     0.98344   0.48598   0.23783   0.00000  Uiso   1.00
N430   N     0.68322   0.51402   0.26217   0.00000  Uiso   1.00
O431   O     0.79642   0.57952   0.25298   0.00000  Uiso   1.00
O432   O     0.78273   0.58419   0.38993   0.00000  Uiso   1.00
O433   O     0.67731   0.44416   0.22153   0.00000  Uiso   1.00
O434   O     0.98932   0.55261   0.28444   0.00000  Uiso   1.00
O435   O     0.87025   0.42048   0.24701   0.00000  Uiso   1.00
O436   O     0.89280   0.57054   0.24518   0.00000  Uiso   1.00
O437   O     0.77387   0.42946   0.25481   0.00000  Uiso   1.00
O438   O     0.78514   0.50450   0.31997   0.00000  Uiso   1.00
O439   O     0.88153   0.49550   0.18002   0.00000  Uiso   1.00
O440   O     0.88152   0.49552   0.31217   0.00000  Uiso   1.00
O441   O     0.78515   0.50448   0.18782   0.00000  Uiso   1.00
O442   O     0.83261   0.40357   0.10612   0.00000  Uiso   1.00
Zn443  Zn    0.76898   0.50600   0.25521   0.00000  Uiso   1.00
Zn444  Zn    0.89769   0.49400   0.24479   0.00000  Uiso   1.00
C445   C     0.18180   0.93145   0.24858   0.00000  Uiso   1.00
C446   C     0.14513   0.88006   0.40957   0.00000  Uiso   1.00
C447   C     0.16340   0.83033   0.11573   0.00000  Uiso   1.00
C448   C     0.16988   0.83917   0.38402   0.00000  Uiso   1.00
C449   C     0.14457   0.87410   0.09640   0.00000  Uiso   1.00
C450   C     0.19859   0.80151   0.40376   0.00000  Uiso   1.00
C451   C     0.14485   0.87647   0.05008   0.00000  Uiso   1.00
C452   C     0.19719   0.79961   0.44993   0.00000  Uiso   1.00
C453   C     0.16823   0.83608   0.02321   0.00000  Uiso   1.00
C454   C     0.17087   0.83883   0.47648   0.00000  Uiso   1.00
C455   C     0.18615   0.79145   0.04305   0.00000  Uiso   1.00
C456   C     0.15151   0.73519   0.25119   0.00000  Uiso   1.00
C457   C     0.14584   0.87989   0.45642   0.00000  Uiso   1.00
C458   C     0.12223   0.91826   0.03026   0.00000  Uiso   1.00
C459   C     0.21925   0.75771   0.46991   0.00000  Uiso   1.00
C460   C     0.21300   0.72035   0.12622   0.00000  Uiso   1.00
C461   C     0.20986   0.99478   0.12699   0.00000  Uiso   1.00
C462   C     0.15474   0.95284   0.36546   0.00000  Uiso   1.00
C463   C     0.18438   0.99171   0.39616   0.00000  Uiso   1.00
C464   C     0.31889   0.75679   0.18397   0.00000  Uiso   1.00
C465   C     0.03038   0.72853   0.15449   0.00000  Uiso   1.00
C466   C     0.01646   0.89785   0.32368   0.00000  Uiso   1.00
C467   C     0.12142   0.91933   0.48373   0.00000  Uiso   1.00
C468   C     0.31407   0.93407   0.35379   0.00000  Uiso   1.00
C469   C     0.21123   0.75229   0.01612   0.00000  Uiso   1.00
C470   C     0.18968   0.98597   0.24867   0.00000  Uiso   1.00
C471   C     0.14358   0.68066   0.25113   0.00000  Uiso   1.00
C472   C     0.16728   0.83483   0.33637   0.00000  Uiso   1.00
C473   C     0.16564   0.83102   0.16357   0.00000  Uiso   1.00
C474   C     0.17783   0.78636   0.08944   0.00000  Uiso   1.00
H475   H     0.12847   0.90557   0.11762   0.00000  Uiso   1.00
H476   H     0.25455   0.73377   0.10812   0.00000  Uiso   1.00
H477   H     0.21002   0.97851   0.09217   0.00000  Uiso   1.00
H478   H     0.24713   0.98127   0.14277   0.00000  Uiso   1.00
H479   H     0.17021   0.98081   0.14710   0.00000  Uiso   1.00
H480   H     0.12993   0.97520   0.34356   0.00000  Uiso   1.00
H481   H     0.18710   0.93346   0.34278   0.00000  Uiso   1.00
H482   H     0.20893   0.97164   0.41986   0.00000  Uiso   1.00
H483   H     0.21487   0.68404   0.37518   0.00000  Uiso   1.00
H484   H     0.15238   0.68213   0.41532   0.00000  Uiso   1.00
H485   H     0.30333   0.78727   0.16333   0.00000  Uiso   1.00
H486   H     0.21918   0.77187   0.38298   0.00000  Uiso   1.00
H487   H     0.28509   0.72751   0.19560   0.00000  Uiso   1.00
H488   H     0.05042   0.70011   0.17457   0.00000  Uiso   1.00
H489   H     0.01072   0.70741   0.12636   0.00000  Uiso   1.00
H490   H     0.06376   0.75711   0.14025   0.00000  Uiso   1.00
H491   H     0.05852   0.91812   0.31513   0.00000  Uiso   1.00
H492   H     0.02061   0.86218   0.34306   0.00000  Uiso   1.00
H493   H     0.27422   0.91271   0.36740   0.00000  Uiso   1.00
H494   H     0.00480   0.94829   0.38250   0.00000  Uiso   1.00
H495   H     0.30345   0.96792   0.33453   0.00000  Uiso   1.00
H496   H     0.10402   0.94941   0.05077   0.00000  Uiso   1.00
H497   H     0.24087   0.72819   0.44978   0.00000  Uiso   1.00
H498   H     0.10192   0.95119   0.46932   0.00000  Uiso   1.00
H499   H     0.22621   0.71823   0.03070   0.00000  Uiso   1.00
H500   H     0.23323   0.66950   0.24721   0.00000  Uiso   1.00
H501   H     0.09998   0.99704   0.25295   0.00000  Uiso   1.00
H502   H     0.20963   0.73442   0.16138   0.00000  Uiso   1.00
N503   N     0.31678   0.81932   0.23783   0.00000  Uiso   1.00
N504   N     0.01656   0.84735   0.26217   0.00000  Uiso   1.00
O505   O     0.12975   0.91286   0.25298   0.00000  Uiso   1.00
O506   O     0.11607   0.91753   0.38993   0.00000  Uiso   1.00
O507   O     0.01064   0.77750   0.22153   0.00000  Uiso   1.00
O508   O     0.32265   0.88595   0.28444   0.00000  Uiso   1.00
O509   O     0.20358   0.75381   0.24701   0.00000  Uiso   1.00
O510   O     0.22613   0.90387   0.24518   0.00000  Uiso   1.00
O511   O     0.10720   0.76279   0.25481   0.00000  Uiso   1.00
O512   O     0.11847   0.83784   0.31997   0.00000  Uiso   1.00
O513   O     0.21486   0.82883   0.18002   0.00000  Uiso   1.00
O514   O     0.21485   0.82885   0.31217   0.00000  Uiso   1.00
O515   O     0.11848   0.83781   0.18782   0.00000  Uiso   1.00
O516   O     0.16595   0.73690   0.10612   0.00000  Uiso   1.00
Zn517  Zn    0.10231   0.83933   0.25521   0.00000  Uiso   1.00
Zn518  Zn    0.23102   0.82734   0.24479   0.00000  Uiso   1.00
C519   C     0.51513   0.93145   0.24858   0.00000  Uiso   1.00
C520   C     0.47846   0.88006   0.40957   0.00000  Uiso   1.00
C521   C     0.49673   0.83033   0.11573   0.00000  Uiso   1.00
C522   C     0.50321   0.83917   0.38402   0.00000  Uiso   1.00
C523   C     0.47790   0.87410   0.09640   0.00000  Uiso   1.00
C524   C     0.53193   0.80151   0.40376   0.00000  Uiso   1.00
C525   C     0.47818   0.87647   0.05008   0.00000  Uiso   1.00
C526   C     0.53053   0.79961   0.44993   0.00000  Uiso   1.00
C527   C     0.50157   0.83608   0.02321   0.00000  Uiso   1.00
C528   C     0.50420   0.83883   0.47648   0.00000  Uiso   1.00
C529   C     0.51948   0.79145   0.04305   0.00000  Uiso   1.00
C530   C     0.48484   0.73519   0.25119   0.00000  Uiso   1.00
C531   C     0.47917   0.87989   0.45642   0.00000  Uiso   1.00
C532   C     0.45557   0.91826   0.03026   0.00000  Uiso   1.00
C533   C     0.55259   0.75771   0.46991   0.00000  Uiso   1.00
C534   C     0.54634   0.72035   0.12622   0.00000  Uiso   1.00
C535   C     0.54319   0.99478   0.12699   0.00000  Uiso   1.00
C536   C     0.48807   0.95284   0.36546   0.00000  Uiso   1.00
C537   C     0.51772   0.99171   0.39616   0.00000  Uiso   1.00
C538   C     0.65222   0.75679   0.18397   0.00000  Uiso   1.00
C539   C     0.36371   0.72853   0.15449   0.00000  Uiso   1.00
C540   C     0.34979   0.89785   0.32368   0.00000  Uiso   1.00
C541   C     0.45475   0.91933   0.48373   0.00000  Uiso   1.00
C542   C     0.64741   0.93407   0.35379   0.00000  Uiso   1.00
C543   C     0.54456   0.75229   0.01612   0.00000  Uiso   1.00
C544   C     0.52301   0.98597   0.24867   0.00000  Uiso   1.00
C545   C     0.47691   0.68066   0.25113   0.00000  Uiso   1.00
C546   C     0.50061   0.83483   0.33637   0.00000  Uiso   1.00
C547   C     0.49897   0.83102   0.16357   0.00000  Uiso   1.00
C548   C     0.51117   0.78636   0.08944   0.00000  Uiso   1.00
H549   H     0.46181   0.90557   0.11762   0.00000  Uiso   1.00
H550   H     0.58788   0.73377   0.10812   0.00000  Uiso   1.00
H551   H     0.54335   0.97851   0.09217   0.00000  Uiso   1.00
H552   H     0.58047   0.98127   0.14277   0.00000  Uiso   1.00
H553   H     0.50354   0.98081   0.14710   0.00000  Uiso   1.00
H554   H     0.46326   0.97520   0.34356   0.00000  Uiso   1.00
H555   H     0.52043   0.93346   0.34278   0.00000  Uiso   1.00
H556   H     0.54226   0.97164   0.41986   0.00000  Uiso   1.00
H557   H     0.54820   0.68404   0.37518   0.00000  Uiso   1.00
H558   H     0.48571   0.68213   0.41532   0.00000  Uiso   1.00
H559   H     0.63666   0.78727   0.16333   0.00000  Uiso   1.00
H560   H     0.55252   0.77187   0.38298   0.00000  Uiso   1.00
H561   H     0.61842   0.72751   0.19560   0.00000  Uiso   1.00
H562   H     0.38375   0.70011   0.17457   0.00000  Uiso   1.00
H563   H     0.34405   0.70741   0.12636   0.00000  Uiso   1.00
H564   H     0.39710   0.75711   0.14025   0.00000  Uiso   1.00
H565   H     0.39185   0.91812   0.31513   0.00000  Uiso   1.00
H566   H     0.35395   0.86218   0.34306   0.00000  Uiso   1.00
H567   H     0.60755   0.91271   0.36740   0.00000  Uiso   1.00
H568   H     0.33813   0.94829   0.38250   0.00000  Uiso   1.00
H569   H     0.63678   0.96792   0.33453   0.00000  Uiso   1.00
H570   H     0.43735   0.94941   0.05077   0.00000  Uiso   1.00
H571   H     0.57420   0.72819   0.44978   0.00000  Uiso   1.00
H572   H     0.43525   0.95119   0.46932   0.00000  Uiso   1.00
H573   H     0.55955   0.71823   0.03070   0.00000  Uiso   1.00
H574   H     0.56656   0.66950   0.24721   0.00000  Uiso   1.00
H575   H     0.43331   0.99704   0.25295   0.00000  Uiso   1.00
H576   H     0.54296   0.73442   0.16138   0.00000  Uiso   1.00
N577   N     0.65011   0.81932   0.23783   0.00000  Uiso   1.00
N578   N     0.34989   0.84735   0.26217   0.00000  Uiso   1.00
O579   O     0.46308   0.91286   0.25298   0.00000  Uiso   1.00
O580   O     0.44940   0.91753   0.38993   0.00000  Uiso   1.00
O581   O     0.34397   0.77750   0.22153   0.00000  Uiso   1.00
O582   O     0.65598   0.88595   0.28444   0.00000  Uiso   1.00
O583   O     0.53692   0.75381   0.24701   0.00000  Uiso   1.00
O584   O     0.55946   0.90387   0.24518   0.00000  Uiso   1.00
O585   O     0.44054   0.76279   0.25481   0.00000  Uiso   1.00
O586   O     0.45181   0.83784   0.31997   0.00000  Uiso   1.00
O587   O     0.54819   0.82883   0.18002   0.00000  Uiso   1.00
O588   O     0.54819   0.82885   0.31217   0.00000  Uiso   1.00
O589   O     0.45181   0.83781   0.18782   0.00000  Uiso   1.00
O590   O     0.49928   0.73690   0.10612   0.00000  Uiso   1.00
Zn591  Zn    0.43565   0.83933   0.25521   0.00000  Uiso   1.00
Zn592  Zn    0.56435   0.82734   0.24479   0.00000  Uiso   1.00
C593   C     0.84847   0.93145   0.24858   0.00000  Uiso   1.00
C594   C     0.81179   0.88006   0.40957   0.00000  Uiso   1.00
C595   C     0.83006   0.83033   0.11573   0.00000  Uiso   1.00
C596   C     0.83654   0.83917   0.38402   0.00000  Uiso   1.00
C597   C     0.81123   0.87410   0.09640   0.00000  Uiso   1.00
C598   C     0.86526   0.80151   0.40376   0.00000  Uiso   1.00
C599   C     0.81152   0.87647   0.05008   0.00000  Uiso   1.00
C600   C     0.86386   0.79961   0.44993   0.00000  Uiso   1.00
C601   C     0.83490   0.83608   0.02321   0.00000  Uiso   1.00
C602   C     0.83753   0.83883   0.47648   0.00000  Uiso   1.00
C603   C     0.85281   0.79145   0.04305   0.00000  Uiso   1.00
C604   C     0.81818   0.73519   0.25119   0.00000  Uiso   1.00
C605   C     0.81250   0.87989   0.45642   0.00000  Uiso   1.00
C606   C     0.78890   0.91826   0.03026   0.00000  Uiso   1.00
C607   C     0.88592   0.75771   0.46991   0.00000  Uiso   1.00
C608   C     0.87967   0.72035   0.12622   0.00000  Uiso   1.00
C609   C     0.87653   0.99478   0.12699   0.00000  Uiso   1.00
C610   C     0.82140   0.95284   0.36546   0.00000  Uiso   1.00
C611   C     0.85105   0.99171   0.39616   0.00000  Uiso   1.00
C612   C     0.98556   0.75679   0.18397   0.00000  Uiso   1.00
C613   C     0.69705   0.72853   0.15449   0.00000  Uiso   1.00
C614   C     0.68313   0.89785   0.32368   0.00000  Uiso   1.00
C615   C     0.78808   0.91933   0.48373   0.00000  Uiso   1.00
C616   C     0.98074   0.93407   0.35379   0.00000  Uiso   1.00
C617   C     0.87789   0.75229   0.01612   0.00000  Uiso   1.00
C618   C     0.85634   0.98597   0.24867   0.00000  Uiso   1.00
C619   C     0.81024   0.68066   0.25113   0.00000  Uiso   1.00
C620   C     0.83395   0.83483   0.33637   0.00000  Uiso   1.00
C621   C     0.83231   0.83102   0.16357   0.00000  Uiso   1.00
C622   C     0.84450   0.78636   0.08944   0.00000  Uiso   1.00
H623   H     0.79514   0.90557   0.11762   0.00000  Uiso   1.00
H624   H     0.92122   0.73377   0.10812   0.00000  Uiso   1.00
H625   H     0.87668   0.97851   0.09217   0.00000  Uiso   1.00
H626   H     0.91380   0.98127   0.14277   0.00000  Uiso   1.00
H627   H     0.83687   0.98081   0.14710   0.00000  Uiso   1.00
H628   H     0.79660   0.97520   0.34356   0.00000  Uiso   1.00
H629   H     0.85376   0.93346   0.34278   0.00000  Uiso   1.00
H630   H     0.87560   0.97164   0.41986   0.00000  Uiso   1.00
H631   H     0.88153   0.68404   0.37518   0.00000  Uiso   1.00
H632   H     0.81904   0.68213   0.41532   0.00000  Uiso   1.00
H633   H     0.96999   0.78727   0.16333   0.00000  Uiso   1.00
H634   H     0.88585   0.77187   0.38298   0.00000  Uiso   1.00
H635   H     0.95176   0.72751   0.19560   0.00000  Uiso   1.00
H636   H     0.71708   0.70011   0.17457   0.00000  Uiso   1.00
H637   H     0.67738   0.70741   0.12636   0.00000  Uiso   1.00
H638   H     0.73043   0.75711   0.14025   0.00000  Uiso   1.00
H639   H     0.72518   0.91812   0.31513   0.00000  Uiso   1.00
H640   H     0.68728   0.86218   0.34306   0.00000  Uiso   1.00
H641   H     0.94088   0.91271   0.36740   0.00000  Uiso   1.00
H642   H     0.67146   0.94829   0.38250   0.00000  Uiso   1.00
H643   H     0.97012   0.96792   0.33453   0.00000  Uiso   1.00
H644   H     0.77068   0.94941   0.05077   0.00000  Uiso   1.00
H645   H     0.90754   0.72819   0.44978   0.00000  Uiso   1.00
H646   H     0.76858   0.95119   0.46932   0.00000  Uiso   1.00
H647   H     0.89288   0.71823   0.03070   0.00000  Uiso   1.00
H648   H     0.89990   0.66950   0.24721   0.00000  Uiso   1.00
H649   H     0.76664   0.99704   0.25295   0.00000  Uiso   1.00
H650   H     0.87629   0.73442   0.16138   0.00000  Uiso   1.00
N651   N     0.98344   0.81932   0.23783   0.00000  Uiso   1.00
N652   N     0.68322   0.84735   0.26217   0.00000  Uiso   1.00
O653   O     0.79642   0.91286   0.25298   0.00000  Uiso   1.00
O654   O     0.78273   0.91753   0.38993   0.00000  Uiso   1.00
O655   O     0.67731   0.77750   0.22153   0.00000  Uiso   1.00
O656   O     0.98932   0.88595   0.28444   0.00000  Uiso   1.00
O657   O     0.87025   0.75381   0.24701   0.00000  Uiso   1.00
O658   O     0.89280   0.90387   0.24518   0.00000  Uiso   1.00
O659   O     0.77387   0.76279   0.25481   0.00000  Uiso   1.00
O660   O     0.78514   0.83784   0.31997   0.00000  Uiso   1.00
O661   O     0.88153   0.82883   0.18002   0.00000  Uiso   1.00
O662   O     0.88152   0.82885   0.31217   0.00000  Uiso   1.00
O663   O     0.78515   0.83781   0.18782   0.00000  Uiso   1.00
O664   O     0.83261   0.73690   0.10612   0.00000  Uiso   1.00
Zn665  Zn    0.76898   0.83933   0.25521   0.00000  Uiso   1.00
Zn666  Zn    0.89769   0.82734   0.24479   0.00000  Uiso   1.00
C667   C     0.18180   0.26479   0.74858   0.00000  Uiso   1.00
C668   C     0.14513   0.21339   0.90957   0.00000  Uiso   1.00
C669   C     0.16340   0.16367   0.61573   0.00000  Uiso   1.00
C670   C     0.16988   0.17250   0.88402   0.00000  Uiso   1.00
C671   C     0.14457   0.20743   0.59640   0.00000  Uiso   1.00
C672   C     0.19859   0.13484   0.90376   0.00000  Uiso   1.00
C673   C     0.14485   0.20980   0.55008   0.00000  Uiso   1.00
C674   C     0.19719   0.13295   0.94993   0.00000  Uiso   1.00
C675   C     0.16823   0.16941   0.52321   0.00000  Uiso   1.00
C676   C     0.17087   0.17217   0.97648   0.00000  Uiso   1.00
C677   C     0.18615   0.12478   0.54305   0.00000  Uiso   1.00
C678   C     0.15151   0.06852   0.75119   0.00000  Uiso   1.00
C679   C     0.14584   0.21322   0.95642   0.00000  Uiso   1.00
C680   C     0.12223   0.25160   0.53026   0.00000  Uiso   1.00
C681   C     0.21925   0.09104   0.96991   0.00000  Uiso   1.00
C682   C     0.21300   0.05368   0.62622   0.00000  Uiso   1.00
C683   C     0.20986   0.32811   0.62699   0.00000  Uiso   1.00
C684   C     0.15474   0.28618   0.86546   0.00000  Uiso   1.00
C685   C     0.18438   0.32505   0.89616   0.00000  Uiso   1.00
C686   C     0.31889   0.09012   0.68397   0.00000  Uiso   1.00
C687   C     0.03038   0.06187   0.65449   0.00000  Uiso   1.00
C688   C     0.01646   0.23118   0.82368   0.00000  Uiso   1.00
C689   C     0.12142   0.25266   0.98373   0.00000  Uiso   1.00
C690   C     0.31407   0.26740   0.85379   0.00000  Uiso   1.00
C691   C     0.21123   0.08562   0.51612   0.00000  Uiso   1.00
C692   C     0.18968   0.31930   0.74867   0.00000  Uiso   1.00
C693   C     0.14358   0.01399   0.75113   0.00000  Uiso   1.00
C694   C     0.16728   0.16817   0.83637   0.00000  Uiso   1.00
C695   C     0.16564   0.16435   0.66357   0.00000  Uiso   1.00
C696   C     0.17783   0.11970   0.58944   0.00000  Uiso   1.00
H697   H     0.12847   0.23890   0.61762   0.00000  Uiso   1.00
H698   H     0.25455   0.06710   0.60812   0.00000  Uiso   1.00
H699   H     0.21002   0.31184   0.59217   0.00000  Uiso   1.00
H700   H     0.24713   0.31460   0.64277   0.00000  Uiso   1.00
H701   H     0.17021   0.31414   0.64710   0.00000  Uiso   1.00
H702   H     0.12993   0.30853   0.84356   0.00000  Uiso   1.00
H703   H     0.18710   0.26680   0.84278   0.00000  Uiso   1.00
H704   H     0.20893   0.30498   0.91986   0.00000  Uiso   1.00
H705   H     0.21487   0.01737   0.87518   0.00000  Uiso   1.00
H706   H     0.15238   0.01546   0.91532   0.00000  Uiso   1.00
H707   H     0.30333   0.12060   0.66333   0.00000  Uiso   1.00
H708   H     0.21918   0.10521   0.88298   0.00000  Uiso   1.00
H709   H     0.28509   0.06085   0.69560   0.00000  Uiso   1.00
H710   H     0.05042   0.03345   0.67457   0.00000  Uiso   1.00
H711   H     0.01072   0.04075   0.62636   0.00000  Uiso   1.00
H712   H     0.06376   0.09044   0.64025   0.00000  Uiso   1.00
H713   H     0.05852   0.25145   0.81513   0.00000  Uiso   1.00
H714   H     0.02061   0.19551   0.84306   0.00000  Uiso   1.00
H715   H     0.27422   0.24604   0.86740   0.00000  Uiso   1.00
H716   H     0.00480   0.28162   0.88250   0.00000  Uiso   1.00
H717   H     0.30345   0.30125   0.83453   0.00000  Uiso   1.00
H718   H     0.10402   0.28274   0.55077   0.00000  Uiso   1.00
H719   H     0.24087   0.06152   0.94978   0.00000  Uiso   1.00
H720   H     0.10192   0.28453   0.96932   0.00000  Uiso   1.00
H721   H     0.22621   0.05156   0.53070   0.00000  Uiso   1.00
H722   H     0.23323   0.00283   0.74721   0.00000  Uiso   1.00
H723   H     0.09998   0.33038   0.75295   0.00000  Uiso   1.00
H724   H     0.20963   0.06775   0.66138   0.00000  Uiso   1.00
N725   N     0.31678   0.15265   0.73783   0.00000  Uiso   1.00
N726   N     0.01656   0.18068   0.76217   0.00000  Uiso   1.00
O727   O     0.12975   0.24619   0.75298   0.00000  Uiso   1.00
O728   O     0.11607   0.25086   0.88993   0.00000  Uiso   1.00
O729   O     0.01064   0.11083   0.72153   0.00000  Uiso   1.00
O730   O     0.32265   0.21928   0.78444   0.00000  Uiso   1.00
O731   O     0.20358   0.08714   0.74701   0.00000  Uiso   1.00
O732   O     0.22613   0.23721   0.74518   0.00000  Uiso   1.00
O733   O     0.10720   0.09613   0.75481   0.00000  Uiso   1.00
O734   O     0.11847   0.17117   0.81997   0.00000  Uiso   1.00
O735   O     0.21486   0.16216   0.68002   0.00000  Uiso   1.00
O736   O     0.21485   0.16219   0.81217   0.00000  Uiso   1.00
O737   O     0.11848   0.17115   0.68782   0.00000  Uiso   1.00
O738   O     0.16595   0.07024   0.60612   0.00000  Uiso   1.00
Zn739  Zn    0.10231   0.17266   0.75521   0.00000  Uiso   1.00
Zn740  Zn    0.23102   0.16067   0.74479   0.00000  Uiso   1.00
C741   C     0.51513   0.26479   0.74858   0.00000  Uiso   1.00
C742   C     0.47846   0.21339   0.90957   0.00000  Uiso   1.00
C743   C     0.49673   0.16367   0.61573   0.00000  Uiso   1.00
C744   C     0.50321   0.17250   0.88402   0.00000  Uiso   1.00
C745   C     0.47790   0.20743   0.59640   0.00000  Uiso   1.00
C746   C     0.53193   0.13484   0.90376   0.00000  Uiso   1.00
C747   C     0.47818   0.20980   0.55008   0.00000  Uiso   1.00
C748   C     0.53053   0.13295   0.94993   0.00000  Uiso   1.00
C749   C     0.50157   0.16941   0.52321   0.00000  Uiso   1.00
C750   C     0.50420   0.17217   0.97648   0.00000  Uiso   1.00
C751   C     0.51948   0.12478   0.54305   0.00000  Uiso   1.00
C752   C     0.48484   0.06852   0.75119   0.00000  Uiso   1.00
C753   C     0.47917   0.21322   0.95642   0.00000  Uiso   1.00
C754   C     0.45557   0.25160   0.53026   0.00000  Uiso   1.00
C755   C     0.55259   0.09104   0.96991   0.00000  Uiso   1.00
C756   C     0.54634   0.05368   0.62622   0.00000  Uiso   1.00
C757   C     0.54319   0.32811   0.62699   0.00000  Uiso   1.00
C758   C     0.48807   0.28618   0.86546   0.00000  Uiso   1.00
C759   C     0.51772   0.32505   0.89616   0.00000  Uiso   1.00
C760   C     0.65222   0.09012   0.68397   0.00000  Uiso   1.00
C761   C     0.36371   0.06187   0.65449   0.00000  Uiso   1.00
C762   C     0.34979   0.23118   0.82368   0.00000  Uiso   1.00
C763   C     0.45475   0.25266   0.98373   0.00000  Uiso   1.00
C764   C     0.64741   0.26740   0.85379   0.00000  Uiso   1.00
C765   C     0.54456   0.08562   0.51612   0.00000  Uiso   1.00
C766   C     0.52301   0.31930   0.74867   0.00000  Uiso   1.00
C767   C     0.47691   0.01399   0.75113   0.00000  Uiso   1.00
C768   C     0.50061   0.16817   0.83637   0.00000  Uiso   1.00
C769   C     0.49897   0.16435   0.66357   0.00000  Uiso   1.00
C770   C     0.51117   0.11970   0.58944   0.00000  Uiso   1.00
H771   H     0.46181   0.23890   0.61762   0.00000  Uiso   1.00
H772   H     0.58788   0.06710   0.60812   0.00000  Uiso   1.00
H773   H     0.54335   0.31184   0.59217   0.00000  Uiso   1.00
H774   H     0.58047   0.31460   0.64277   0.00000  Uiso   1.00
H775   H     0.50354   0.31414   0.64710   0.00000  Uiso   1.00
H776   H     0.46326   0.30853   0.84356   0.00000  Uiso   1.00
H777   H     0.52043   0.26680   0.84278   0.00000  Uiso   1.00
H778   H     0.54226   0.30498   0.91986   0.00000  Uiso   1.00
H779   H     0.54820   0.01737   0.87518   0.00000  Uiso   1.00
H780   H     0.48571   0.01546   0.91532   0.00000  Uiso   1.00
H781   H     0.63666   0.12060   0.66333   0.00000  Uiso   1.00
H782   H     0.55252   0.10521   0.88298   0.00000  Uiso   1.00
H783   H     0.61842   0.06085   0.69560   0.00000  Uiso   1.00
H784   H     0.38375   0.03345   0.67457   0.00000  Uiso   1.00
H785   H     0.34405   0.04075   0.62636   0.00000  Uiso   1.00
H786   H     0.39710   0.09044   0.64025   0.00000  Uiso   1.00
H787   H     0.39185   0.25145   0.81513   0.00000  Uiso   1.00
H788   H     0.35395   0.19551   0.84306   0.00000  Uiso   1.00
H789   H     0.60755   0.24604   0.86740   0.00000  Uiso   1.00
H790   H     0.33813   0.28162   0.88250   0.00000  Uiso   1.00
H791   H     0.63678   0.30125   0.83453   0.00000  Uiso   1.00
H792   H     0.43735   0.28274   0.55077   0.00000  Uiso   1.00
H793   H     0.57420   0.06152   0.94978   0.00000  Uiso   1.00
H794   H     0.43525   0.28453   0.96932   0.00000  Uiso   1.00
H795   H     0.55955   0.05156   0.53070   0.00000  Uiso   1.00
H796   H     0.56656   0.00283   0.74721   0.00000  Uiso   1.00
H797   H     0.43331   0.33038   0.75295   0.00000  Uiso   1.00
H798   H     0.54296   0.06775   0.66138   0.00000  Uiso   1.00
N799   N     0.65011   0.15265   0.73783   0.00000  Uiso   1.00
N800   N     0.34989   0.18068   0.76217   0.00000  Uiso   1.00
O801   O     0.46308   0.24619   0.75298   0.00000  Uiso   1.00
O802   O     0.44940   0.25086   0.88993   0.00000  Uiso   1.00
O803   O     0.34397   0.11083   0.72153   0.00000  Uiso   1.00
O804   O     0.65598   0.21928   0.78444   0.00000  Uiso   1.00
O805   O     0.53692   0.08714   0.74701   0.00000  Uiso   1.00
O806   O     0.55946   0.23721   0.74518   0.00000  Uiso   1.00
O807   O     0.44054   0.09613   0.75481   0.00000  Uiso   1.00
O808   O     0.45181   0.17117   0.81997   0.00000  Uiso   1.00
O809   O     0.54819   0.16216   0.68002   0.00000  Uiso   1.00
O810   O     0.54819   0.16219   0.81217   0.00000  Uiso   1.00
O811   O     0.45181   0.17115   0.68782   0.00000  Uiso   1.00
O812   O     0.49928   0.07024   0.60612   0.00000  Uiso   1.00
Zn813  Zn    0.43565   0.17266   0.75521   0.00000  Uiso   1.00
Zn814  Zn    0.56435   0.16067   0.74479   0.00000  Uiso   1.00
C815   C     0.84847   0.26479   0.74858   0.00000  Uiso   1.00
C816   C     0.81179   0.21339   0.90957   0.00000  Uiso   1.00
C817   C     0.83006   0.16367   0.61573   0.00000  Uiso   1.00
C818   C     0.83654   0.17250   0.88402   0.00000  Uiso   1.00
C819   C     0.81123   0.20743   0.59640   0.00000  Uiso   1.00
C820   C     0.86526   0.13484   0.90376   0.00000  Uiso   1.00
C821   C     0.81152   0.20980   0.55008   0.00000  Uiso   1.00
C822   C     0.86386   0.13295   0.94993   0.00000  Uiso   1.00
C823   C     0.83490   0.16941   0.52321   0.00000  Uiso   1.00
C824   C     0.83753   0.17217   0.97648   0.00000  Uiso   1.00
C825   C     0.85281   0.12478   0.54305   0.00000  Uiso   1.00
C826   C     0.81818   0.06852   0.75119   0.00000  Uiso   1.00
C827   C     0.81250   0.21322   0.95642   0.00000  Uiso   1.00
C828   C     0.78890   0.25160   0.53026   0.00000  Uiso   1.00
C829   C     0.88592   0.09104   0.96991   0.00000  Uiso   1.00
C830   C     0.87967   0.05368   0.62622   0.00000  Uiso   1.00
C831   C     0.87653   0.32811   0.62699   0.00000  Uiso   1.00
C832   C     0.82140   0.28618   0.86546   0.00000  Uiso   1.00
C833   C     0.85105   0.32505   0.89616   0.00000  Uiso   1.00
C834   C     0.98556   0.09012   0.68397   0.00000  Uiso   1.00
C835   C     0.69705   0.06187   0.65449   0.00000  Uiso   1.00
C836   C     0.68313   0.23118   0.82368   0.00000  Uiso   1.00
C837   C     0.78808   0.25266   0.98373   0.00000  Uiso   1.00
C838   C     0.98074   0.26740   0.85379   0.00000  Uiso   1.00
C839   C     0.87789   0.08562   0.51612   0.00000  Uiso   1.00
C840   C     0.85634   0.31930   0.74867   0.00000  Uiso   1.00
C841   C     0.81024   0.01399   0.75113   0.00000  Uiso   1.00
C842   C     0.83395   0.16817   0.83637   0.00000  Uiso   1.00
C843   C     0.83231   0.16435   0.66357   0.00000  Uiso   1.00
C844   C     0.84450   0.11970   0.58944   0.00000  Uiso   1.00
H845   H     0.79514   0.23890   0.61762   0.00000  Uiso   1.00
H846   H     0.92122   0.06710   0.60812   0.00000  Uiso   1.00
H847   H     0.87668   0.31184   0.59217   0.00000  Uiso   1.00
H848   H     0.91380   0.31460   0.64277   0.00000  Uiso   1.00
H849   H     0.83687   0.31414   0.64710   0.00000  Uiso   1.00
H850   H     0.79660   0.30853   0.84356   0.00000  Uiso   1.00
H851   H     0.85376   0.26680   0.84278   0.00000  Uiso   1.00
H852   H     0.87560   0.30498   0.91986   0.00000  Uiso   1.00
H853   H     0.88153   0.01737   0.87518   0.00000  Uiso   1.00
H854   H     0.81904   0.01546   0.91532   0.00000  Uiso   1.00
H855   H     0.96999   0.12060   0.66333   0.00000  Uiso   1.00
H856   H     0.88585   0.10521   0.88298   0.00000  Uiso   1.00
H857   H     0.95176   0.06085   0.69560   0.00000  Uiso   1.00
H858   H     0.71708   0.03345   0.67457   0.00000  Uiso   1.00
H859   H     0.67738   0.04075   0.62636   0.00000  Uiso   1.00
H860   H     0.73043   0.09044   0.64025   0.00000  Uiso   1.00
H861   H     0.72518   0.25145   0.81513   0.00000  Uiso   1.00
H862   H     0.68728   0.19551   0.84306   0.00000  Uiso   1.00
H863   H     0.94088   0.24604   0.86740   0.00000  Uiso   1.00
H864   H     0.67146   0.28162   0.88250   0.00000  Uiso   1.00
H865   H     0.97012   0.30125   0.83453   0.00000  Uiso   1.00
H866   H     0.77068   0.28274   0.55077   0.00000  Uiso   1.00
H867   H     0.90754   0.06152   0.94978   0.00000  Uiso   1.00
H868   H     0.76858   0.28453   0.96932   0.00000  Uiso   1.00
H869   H     0.89288   0.05156   0.53070   0.00000  Uiso   1.00
H870   H     0.89990   0.00283   0.74721   0.00000  Uiso   1.00
H871   H     0.76664   0.33038   0.75295   0.00000  Uiso   1.00
H872   H     0.87629   0.06775   0.66138   0.00000  Uiso   1.00
N873   N     0.98344   0.15265   0.73783   0.00000  Uiso   1.00
N874   N     0.68322   0.18068   0.76217   0.00000  Uiso   1.00
O875   O     0.79642   0.24619   0.75298   0.00000  Uiso   1.00
O876   O     0.78273   0.25086   0.88993   0.00000  Uiso   1.00
O877   O     0.67731   0.11083   0.72153   0.00000  Uiso   1.00
O878   O     0.98932   0.21928   0.78444   0.00000  Uiso   1.00
O879   O     0.87025   0.08714   0.74701   0.00000  Uiso   1.00
O880   O     0.89280   0.23721   0.74518   0.00000  Uiso   1.00
O881   O     0.77387   0.09613   0.75481   0.00000  Uiso   1.00
O882   O     0.78514   0.17117   0.81997   0.00000  Uiso   1.00
O883   O     0.88153   0.16216   0.68002   0.00000  Uiso   1.00
O884   O     0.88152   0.16219   0.81217   0.00000  Uiso   1.00
O885   O     0.78515   0.17115   0.68782   0.00000  Uiso   1.00
O886   O     0.83261   0.07024   0.60612   0.00000  Uiso   1.00
Zn887  Zn    0.76898   0.17266   0.75521   0.00000  Uiso   1.00
Zn888  Zn    0.89769   0.16067   0.74479   0.00000  Uiso   1.00
C889   C     0.18180   0.59812   0.74858   0.00000  Uiso   1.00
C890   C     0.14513   0.54673   0.90957   0.00000  Uiso   1.00
C891   C     0.16340   0.49700   0.61573   0.00000  Uiso   1.00
C892   C     0.16988   0.50584   0.88402   0.00000  Uiso   1.00
C893   C     0.14457   0.54076   0.59640   0.00000  Uiso   1.00
C894   C     0.19859   0.46817   0.90376   0.00000  Uiso   1.00
C895   C     0.14485   0.54314   0.55008   0.00000  Uiso   1.00
C896   C     0.19719   0.46628   0.94993   0.00000  Uiso   1.00
C897   C     0.16823   0.50274   0.52321   0.00000  Uiso   1.00
C898   C     0.17087   0.50550   0.97648   0.00000  Uiso   1.00
C899   C     0.18615   0.45811   0.54305   0.00000  Uiso   1.00
C900   C     0.15151   0.40186   0.75119   0.00000  Uiso   1.00
C901   C     0.14584   0.54655   0.95642   0.00000  Uiso   1.00
C902   C     0.12223   0.58493   0.53026   0.00000  Uiso   1.00
C903   C     0.21925   0.42438   0.96991   0.00000  Uiso   1.00
C904   C     0.21300   0.38701   0.62622   0.00000  Uiso   1.00
C905   C     0.20986   0.66144   0.62699   0.00000  Uiso   1.00
C906   C     0.15474   0.61951   0.86546   0.00000  Uiso   1.00
C907   C     0.18438   0.65838   0.89616   0.00000  Uiso   1.00
C908   C     0.31889   0.42346   0.68397   0.00000  Uiso   1.00
C909   C     0.03038   0.39520   0.65449   0.00000  Uiso   1.00
C910   C     0.01646   0.56452   0.82368   0.00000  Uiso   1.00
C911   C     0.12142   0.58600   0.98373   0.00000  Uiso   1.00
C912   C     0.31407   0.60074   0.85379   0.00000  Uiso   1.00
C913   C     0.21123   0.41896   0.51612   0.00000  Uiso   1.00
C914   C     0.18968   0.65264   0.74867   0.00000  Uiso   1.00
C915   C     0.14358   0.34732   0.75113   0.00000  Uiso   1.00
C916   C     0.16728   0.50150   0.83637   0.00000  Uiso   1.00
C917   C     0.16564   0.49768   0.66357   0.00000  Uiso   1.00
C918   C     0.17783   0.45303   0.58944   0.00000  Uiso   1.00
H919   H     0.12847   0.57223   0.61762   0.00000  Uiso   1.00
H920   H     0.25455   0.40044   0.60812   0.00000  Uiso   1.00
H921   H     0.21002   0.64517   0.59217   0.00000  Uiso   1.00
H922   H     0.24713   0.64793   0.64277   0.00000  Uiso   1.00
H923   H     0.17021   0.64748   0.64710   0.00000  Uiso   1.00
H924   H     0.12993   0.64187   0.84356   0.00000  Uiso   1.00
H925   H     0.18710   0.60013   0.84278   0.00000  Uiso   1.00
H926   H     0.20893   0.63831   0.91986   0.00000  Uiso   1.00
H927   H     0.21487   0.35070   0.87518   0.00000  Uiso   1.00
H928   H     0.15238   0.34879   0.91532   0.00000  Uiso   1.00
H929   H     0.30333   0.45394   0.66333   0.00000  Uiso   1.00
H930   H     0.21918   0.43854   0.88298   0.00000  Uiso   1.00
H931   H     0.28509   0.39418   0.69560   0.00000  Uiso   1.00
H932   H     0.05042   0.36678   0.67457   0.00000  Uiso   1.00
H933   H     0.01072   0.37408   0.62636   0.00000  Uiso   1.00
H934   H     0.06376   0.42377   0.64025   0.00000  Uiso   1.00
H935   H     0.05852   0.58479   0.81513   0.00000  Uiso   1.00
H936   H     0.02061   0.52884   0.84306   0.00000  Uiso   1.00
H937   H     0.27422   0.57937   0.86740   0.00000  Uiso   1.00
H938   H     0.00480   0.61495   0.88250   0.00000  Uiso   1.00
H939   H     0.30345   0.63458   0.83453   0.00000  Uiso   1.00
H940   H     0.10402   0.61608   0.55077   0.00000  Uiso   1.00
H941   H     0.24087   0.39486   0.94978   0.00000  Uiso   1.00
H942   H     0.10192   0.61786   0.96932   0.00000  Uiso   1.00
H943   H     0.22621   0.38489   0.53070   0.00000  Uiso   1.00
H944   H     0.23323   0.33616   0.74721   0.00000  Uiso   1.00
H945   H     0.09998   0.66371   0.75295   0.00000  Uiso   1.00
H946   H     0.20963   0.40109   0.66138   0.00000  Uiso   1.00
N947   N     0.31678   0.48598   0.73783   0.00000  Uiso   1.00
N948   N     0.01656   0.51402   0.76217   0.00000  Uiso   1.00
O949   O     0.12975   0.57952   0.75298   0.00000  Uiso   1.00
O950   O     0.11607   0.58419   0.88993   0.00000  Uiso   1.00
O951   O     0.01064   0.44416   0.72153   0.00000  Uiso   1.00
O952   O     0.32265   0.55261   0.78444   0.00000  Uiso   1.00
O953   O     0.20358   0.42048   0.74701   0.00000  Uiso   1.00
O954   O     0.22613   0.57054   0.74518   0.00000  Uiso   1.00
O955   O     0.10720   0.42946   0.75481   0.00000  Uiso   1.00
O956   O     0.11847   0.50450   0.81997   0.00000  Uiso   1.00
O957   O     0.21486   0.49550   0.68002   0.00000  Uiso   1.00
O958   O     0.21485   0.49552   0.81217   0.00000  Uiso   1.00
O959   O     0.11848   0.50448   0.68782   0.00000  Uiso   1.00
O960   O     0.16595   0.40357   0.60612   0.00000  Uiso   1.00
Zn961  Zn    0.10231   0.50600   0.75521   0.00000  Uiso   1.00
Zn962  Zn    0.23102   0.49400   0.74479   0.00000  Uiso   1.00
C963   C     0.51513   0.59812   0.74858   0.00000  Uiso   1.00
C964   C     0.47846   0.54673   0.90957   0.00000  Uiso   1.00
C965   C     0.49673   0.49700   0.61573   0.00000  Uiso   1.00
C966   C     0.50321   0.50584   0.88402   0.00000  Uiso   1.00
C967   C     0.47790   0.54076   0.59640   0.00000  Uiso   1.00
C968   C     0.53193   0.46817   0.90376   0.00000  Uiso   1.00
C969   C     0.47818   0.54314   0.55008   0.00000  Uiso   1.00
C970   C     0.53053   0.46628   0.94993   0.00000  Uiso   1.00
C971   C     0.50157   0.50274   0.52321   0.00000  Uiso   1.00
C972   C     0.50420   0.50550   0.97648   0.00000  Uiso   1.00
C973   C     0.51948   0.45811   0.54305   0.00000  Uiso   1.00
C974   C     0.48484   0.40186   0.75119   0.00000  Uiso   1.00
C975   C     0.47917   0.54655   0.95642   0.00000  Uiso   1.00
C976   C     0.45557   0.58493   0.53026   0.00000  Uiso   1.00
C977   C     0.55259   0.42438   0.96991   0.00000  Uiso   1.00
C978   C     0.54634   0.38701   0.62622   0.00000  Uiso   1.00
C979   C     0.54319   0.66144   0.62699   0.00000  Uiso   1.00
C980   C     0.48807   0.61951   0.86546   0.00000  Uiso   1.00
C981   C     0.51772   0.65838   0.89616   0.00000  Uiso   1.00
C982   C     0.65222   0.42346   0.68397   0.00000  Uiso   1.00
C983   C     0.36371   0.39520   0.65449   0.00000  Uiso   1.00
C984   C     0.34979   0.56452   0.82368   0.00000  Uiso   1.00
C985   C     0.45475   0.58600   0.98373   0.00000  Uiso   1.00
C986   C     0.64741   0.60074   0.85379   0.00000  Uiso   1.00
C987   C     0.54456   0.41896   0.51612   0.00000  Uiso   1.00
C988   C     0.52301   0.65264   0.74867   0.00000  Uiso   1.00
C989   C     0.47691   0.34732   0.75113   0.00000  Uiso   1.00
C990   C     0.50061   0.50150   0.83637   0.00000  Uiso   1.00
C991   C     0.49897   0.49768   0.66357   0.00000  Uiso   1.00
C992   C     0.51117   0.45303   0.58944   0.00000  Uiso   1.00
H993   H     0.46181   0.57223   0.61762   0.00000  Uiso   1.00
H994   H     0.58788   0.40044   0.60812   0.00000  Uiso   1.00
H995   H     0.54335   0.64517   0.59217   0.00000  Uiso   1.00
H996   H     0.58047   0.64793   0.64277   0.00000  Uiso   1.00
H997   H     0.50354   0.64748   0.64710   0.00000  Uiso   1.00
H998   H     0.46326   0.64187   0.84356   0.00000  Uiso   1.00
H999   H     0.52043   0.60013   0.84278   0.00000  Uiso   1.00
H1000  H     0.54226   0.63831   0.91986   0.00000  Uiso   1.00
H1001  H     0.54820   0.35070   0.87518   0.00000  Uiso   1.00
H1002  H     0.48571   0.34879   0.91532   0.00000  Uiso   1.00
H1003  H     0.63666   0.45394   0.66333   0.00000  Uiso   1.00
H1004  H     0.55252   0.43854   0.88298   0.00000  Uiso   1.00
H1005  H     0.61842   0.39418   0.69560   0.00000  Uiso   1.00
H1006  H     0.38375   0.36678   0.67457   0.00000  Uiso   1.00
H1007  H     0.34405   0.37408   0.62636   0.00000  Uiso   1.00
H1008  H     0.39710   0.42377   0.64025   0.00000  Uiso   1.00
H1009  H     0.39185   0.58479   0.81513   0.00000  Uiso   1.00
H1010  H     0.35395   0.52884   0.84306   0.00000  Uiso   1.00
H1011  H     0.60755   0.57937   0.86740   0.00000  Uiso   1.00
H1012  H     0.33813   0.61495   0.88250   0.00000  Uiso   1.00
H1013  H     0.63678   0.63458   0.83453   0.00000  Uiso   1.00
H1014  H     0.43735   0.61608   0.55077   0.00000  Uiso   1.00
H1015  H     0.57420   0.39486   0.94978   0.00000  Uiso   1.00
H1016  H     0.43525   0.61786   0.96932   0.00000  Uiso   1.00
H1017  H     0.55955   0.38489   0.53070   0.00000  Uiso   1.00
H1018  H     0.56656   0.33616   0.74721   0.00000  Uiso   1.00
H1019  H     0.43331   0.66371   0.75295   0.00000  Uiso   1.00
H1020  H     0.54296   0.40109   0.66138   0.00000  Uiso   1.00
N1021  N     0.65011   0.48598   0.73783   0.00000  Uiso   1.00
N1022  N     0.34989   0.51402   0.76217   0.00000  Uiso   1.00
O1023  O     0.46308   0.57952   0.75298   0.00000  Uiso   1.00
O1024  O     0.44940   0.58419   0.88993   0.00000  Uiso   1.00
O1025  O     0.34397   0.44416   0.72153   0.00000  Uiso   1.00
O1026  O     0.65598   0.55261   0.78444   0.00000  Uiso   1.00
O1027  O     0.53692   0.42048   0.74701   0.00000  Uiso   1.00
O1028  O     0.55946   0.57054   0.74518   0.00000  Uiso   1.00
O1029  O     0.44054   0.42946   0.75481   0.00000  Uiso   1.00
O1030  O     0.45181   0.50450   0.81997   0.00000  Uiso   1.00
O1031  O     0.54819   0.49550   0.68002   0.00000  Uiso   1.00
O1032  O     0.54819   0.49552   0.81217   0.00000  Uiso   1.00
O1033  O     0.45181   0.50448   0.68782   0.00000  Uiso   1.00
O1034  O     0.49928   0.40357   0.60612   0.00000  Uiso   1.00
Zn1035 Zn    0.43565   0.50600   0.75521   0.00000  Uiso   1.00
Zn1036 Zn    0.56435   0.49400   0.74479   0.00000  Uiso   1.00
C1037  C     0.84847   0.59812   0.74858   0.00000  Uiso   1.00
C1038  C     0.81179   0.54673   0.90957   0.00000  Uiso   1.00
C1039  C     0.83006   0.49700   0.61573   0.00000  Uiso   1.00
C1040  C     0.83654   0.50584   0.88402   0.00000  Uiso   1.00
C1041  C     0.81123   0.54076   0.59640   0.00000  Uiso   1.00
C1042  C     0.86526   0.46817   0.90376   0.00000  Uiso   1.00
C1043  C     0.81152   0.54314   0.55008   0.00000  Uiso   1.00
C1044  C     0.86386   0.46628   0.94993   0.00000  Uiso   1.00
C1045  C     0.83490   0.50274   0.52321   0.00000  Uiso   1.00
C1046  C     0.83753   0.50550   0.97648   0.00000  Uiso   1.00
C1047  C     0.85281   0.45811   0.54305   0.00000  Uiso   1.00
C1048  C     0.81818   0.40186   0.75119   0.00000  Uiso   1.00
C1049  C     0.81250   0.54655   0.95642   0.00000  Uiso   1.00
C1050  C     0.78890   0.58493   0.53026   0.00000  Uiso   1.00
C1051  C     0.88592   0.42438   0.96991   0.00000  Uiso   1.00
C1052  C     0.87967   0.38701   0.62622   0.00000  Uiso   1.00
C1053  C     0.87653   0.66144   0.62699   0.00000  Uiso   1.00
C1054  C     0.82140   0.61951   0.86546   0.00000  Uiso   1.00
C1055  C     0.85105   0.65838   0.89616   0.00000  Uiso   1.00
C1056  C     0.98556   0.42346   0.68397   0.00000  Uiso   1.00
C1057  C     0.69705   0.39520   0.65449   0.00000  Uiso   1.00
C1058  C     0.68313   0.56452   0.82368   0.00000  Uiso   1.00
C1059  C     0.78808   0.58600   0.98373   0.00000  Uiso   1.00
C1060  C     0.98074   0.60074   0.85379   0.00000  Uiso   1.00
C1061  C     0.87789   0.41896   0.51612   0.00000  Uiso   1.00
C1062  C     0.85634   0.65264   0.74867   0.00000  Uiso   1.00
C1063  C     0.81024   0.34732   0.75113   0.00000  Uiso   1.00
C1064  C     0.83395   0.50150   0.83637   0.00000  Uiso   1.00
C1065  C     0.83231   0.49768   0.66357   0.00000  Uiso   1.00
C1066  C     0.84450   0.45303   0.58944   0.00000  Uiso   1.00
H1067  H     0.79514   0.57223   0.61762   0.00000  Uiso   1.00
H1068  H     0.92122   0.40044   0.60812   0.00000  Uiso   1.00
H1069  H     0.87668   0.64517   0.59217   0.00000  Uiso   1.00
H1070  H     0.91380   0.64793   0.64277   0.00000  Uiso   1.00
H1071  H     0.83687   0.64748   0.64710   0.00000  Uiso   1.00
H1072  H     0.79660   0.64187   0.84356   0.00000  Uiso   1.00
H1073  H     0.85376   0.60013   0.84278   0.00000  Uiso   1.00
H1074  H     0.87560   0.63831   0.91986   0.00000  Uiso   1.00
H1075  H     0.88153   0.35070   0.87518   0.00000  Uiso   1.00
H1076  H     0.81904   0.34879   0.91532   0.00000  Uiso   1.00
H1077  H     0.96999   0.45394   0.66333   0.00000  Uiso   1.00
H1078  H     0.88585   0.43854   0.88298   0.00000  Uiso   1.00
H1079  H     0.95176   0.39418   0.69560   0.00000  Uiso   1.00
H1080  H     0.71708   0.36678   0.67457   0.00000  Uiso   1.00
H1081  H     0.67738   0.37408   0.62636   0.00000  Uiso   1.00
H1082  H     0.73043   0.42377   0.64025   0.00000  Uiso   1.00
H1083  H     0.72518   0.58479   0.81513   0.00000  Uiso   1.00
H1084  H     0.68728   0.52884   0.84306   0.00000  Uiso   1.00
H1085  H     0.94088   0.57937   0.86740   0.00000  Uiso   1.00
H1086  H     0.67146   0.61495   0.88250   0.00000  Uiso   1.00
H1087  H     0.97012   0.63458   0.83453   0.00000  Uiso   1.00
H1088  H     0.77068   0.61608   0.55077   0.00000  Uiso   1.00
H1089  H     0.90754   0.39486   0.94978   0.00000  Uiso   1.00
H1090  H     0.76858   0.61786   0.96932   0.00000  Uiso   1.00
H1091  H     0.89288   0.38489   0.53070   0.00000  Uiso   1.00
H1092  H     0.89990   0.33616   0.74721   0.00000  Uiso   1.00
H1093  H     0.76664   0.66371   0.75295   0.00000  Uiso   1.00
H1094  H     0.87629   0.40109   0.66138   0.00000  Uiso   1.00
N1095  N     0.98344   0.48598   0.73783   0.00000  Uiso   1.00
N1096  N     0.68322   0.51402   0.76217   0.00000  Uiso   1.00
O1097  O     0.79642   0.57952   0.75298   0.00000  Uiso   1.00
O1098  O     0.78273   0.58419   0.88993   0.00000  Uiso   1.00
O1099  O     0.67731   0.44416   0.72153   0.00000  Uiso   1.00
O1100  O     0.98932   0.55261   0.78444   0.00000  Uiso   1.00
O1101  O     0.87025   0.42048   0.74701   0.00000  Uiso   1.00
O1102  O     0.89280   0.57054   0.74518   0.00000  Uiso   1.00
O1103  O     0.77387   0.42946   0.75481   0.00000  Uiso   1.00
O1104  O     0.78514   0.50450   0.81997   0.00000  Uiso   1.00
O1105  O     0.88153   0.49550   0.68002   0.00000  Uiso   1.00
O1106  O     0.88152   0.49552   0.81217   0.00000  Uiso   1.00
O1107  O     0.78515   0.50448   0.68782   0.00000  Uiso   1.00
O1108  O     0.83261   0.40357   0.60612   0.00000  Uiso   1.00
Zn1109 Zn    0.76898   0.50600   0.75521   0.00000  Uiso   1.00
Zn1110 Zn    0.89769   0.49400   0.74479   0.00000  Uiso   1.00
C1111  C     0.18180   0.93145   0.74858   0.00000  Uiso   1.00
C1112  C     0.14513   0.88006   0.90957   0.00000  Uiso   1.00
C1113  C     0.16340   0.83033   0.61573   0.00000  Uiso   1.00
C1114  C     0.16988   0.83917   0.88402   0.00000  Uiso   1.00
C1115  C     0.14457   0.87410   0.59640   0.00000  Uiso   1.00
C1116  C     0.19859   0.80151   0.90376   0.00000  Uiso   1.00
C1117  C     0.14485   0.87647   0.55008   0.00000  Uiso   1.00
C1118  C     0.19719   0.79961   0.94993   0.00000  Uiso   1.00
C1119  C     0.16823   0.83608   0.52321   0.00000  Uiso   1.00
C1120  C     0.17087   0.83883   0.97648   0.00000  Uiso   1.00
C1121  C     0.18615   0.79145   0.54305   0.00000  Uiso   1.00
C1122  C     0.15151   0.73519   0.75119   0.00000  Uiso   1.00
C1123  C     0.14584   0.87989   0.95642   0.00000  Uiso   1.00
C1124  C     0.12223   0.91826   0.53026   0.00000  Uiso   1.00
C1125  C     0.21925   0.75771   0.96991   0.00000  Uiso   1.00
C1126  C     0.21300   0.72035   0.62622   0.00000  Uiso   1.00
C1127  C     0.20986   0.99478   0.62699   0.00000  Uiso   1.00
C1128  C     0.15474   0.95284   0.86546   0.00000  Uiso   1.00
C1129  C     0.18438   0.99171   0.89616   0.00000  Uiso   1.00
C1130  C     0.31889   0.75679   0.68397   0.00000  Uiso   1.00
C1131  C     0.03038   0.72853   0.65449   0.00000  Uiso   1.00
C1132  C     0.01646   0.89785   0.82368   0.00000  Uiso   1.00
C1133  C     0.12142   0.91933   0.98373   0.00000  Uiso   1.00
C1134  C     0.31407   0.93407   0.85379   0.00000  Uiso   1.00
C1135  C     0.21123   0.75229   0.51612   0.00000  Uiso   1.00
C1136  C     0.18968   0.98597   0.74867   0.00000  Uiso   1.00
C1137  C     0.14358   0.68066   0.75113   0.00000  Uiso   1.00
C1138  C     0.16728   0.83483   0.83637   0.00000  Uiso   1.00
C1139  C     0.16564   0.83102   0.66357   0.00000  Uiso   1.00
C1140  C     0.17783   0.78636   0.58944   0.00000  Uiso   1.00
H1141  H     0.12847   0.90557   0.61762   0.00000  Uiso   1.00
H1142  H     0.25455   0.73377   0.60812   0.00000  Uiso   1.00
H1143  H     0.21002   0.97851   0.59217   0.00000  Uiso   1.00
H1144  H     0.24713   0.98127   0.64277   0.00000  Uiso   1.00
H1145  H     0.17021   0.98081   0.64710   0.00000  Uiso   1.00
H1146  H     0.12993   0.97520   0.84356   0.00000  Uiso   1.00
H1147  H     0.18710   0.93346   0.84278   0.00000  Uiso   1.00
H1148  H     0.20893   0.97164   0.91986   0.00000  Uiso   1.00
H1149  H     0.21487   0.68404   0.87518   0.00000  Uiso   1.00
H1150  H     0.15238   0.68213   0.91532   0.00000  Uiso   1.00
H1151  H     0.30333   0.78727   0.66333   0.00000  Uiso   1.00
H1152  H     0.21918   0.77187   0.88298   0.00000  Uiso   1.00
H1153  H     0.28509   0.72751   0.69560   0.00000  Uiso   1.00
H1154  H     0.05042   0.70011   0.67457   0.00000  Uiso   1.00
H1155  H     0.01072   0.70741   0.62636   0.00000  Uiso   1.00
H1156  H     0.06376   0.75711   0.64025   0.00000  Uiso   1.00
H1157  H     0.05852   0.91812   0.81513   0.00000  Uiso   1.00
H1158  H     0.02061   0.86218   0.84306   0.00000  Uiso   1.00
H1159  H     0.27422   0.91271   0.86740   0.00000  Uiso   1.00
H1160  H     0.00480   0.94829   0.88250   0.00000  Uiso   1.00
H1161  H     0.30345   0.96792   0.83453   0.00000  Uiso   1.00
H1162  H     0.10402   0.94941   0.55077   0.00000  Uiso   1.00
H1163  H     0.24087   0.72819   0.94978   0.00000  Uiso   1.00
H1164  H     0.10192   0.95119   0.96932   0.00000  Uiso   1.00
H1165  H     0.22621   0.71823   0.53070   0.00000  Uiso   1.00
H1166  H     0.23323   0.66950   0.74721   0.00000  Uiso   1.00
H1167  H     0.09998   0.99704   0.75295   0.00000  Uiso   1.00
H1168  H     0.20963   0.73442   0.66138   0.00000  Uiso   1.00
N1169  N     0.31678   0.81932   0.73783   0.00000  Uiso   1.00
N1170  N     0.01656   0.84735   0.76217   0.00000  Uiso   1.00
O1171  O     0.12975   0.91286   0.75298   0.00000  Uiso   1.00
O1172  O     0.11607   0.91753   0.88993   0.00000  Uiso   1.00
O1173  O     0.01064   0.77750   0.72153   0.00000  Uiso   1.00
O1174  O     0.32265   0.88595   0.78444   0.00000  Uiso   1.00
O1175  O     0.20358   0.75381   0.74701   0.00000  Uiso   1.00
O1176  O     0.22613   0.90387   0.74518   0.00000  Uiso   1.00
O1177  O     0.10720   0.76279   0.75481   0.00000  Uiso   1.00
O1178  O     0.11847   0.83784   0.81997   0.00000  Uiso   1.00
O1179  O     0.21486   0.82883   0.68002   0.00000  Uiso   1.00
O1180  O     0.21485   0.82885   0.81217   0.00000  Uiso   1.00
O1181  O     0.11848   0.83781   0.68782   0.00000  Uiso   1.00
O1182  O     0.16595   0.73690   0.60612   0.00000  Uiso   1.00
Zn1183 Zn    0.10231   0.83933   0.75521   0.00000  Uiso   1.00
Zn1184 Zn    0.23102   0.82734   0.74479   0.00000  Uiso   1.00
C1185  C     0.51513   0.93145   0.74858   0.00000  Uiso   1.00
C1186  C     0.47846   0.88006   0.90957   0.00000  Uiso   1.00
C1187  C     0.49673   0.83033   0.61573   0.00000  Uiso   1.00
C1188  C     0.50321   0.83917   0.88402   0.00000  Uiso   1.00
C1189  C     0.47790   0.87410   0.59640   0.00000  Uiso   1.00
C1190  C     0.53193   0.80151   0.90376   0.00000  Uiso   1.00
C1191  C     0.47818   0.87647   0.55008   0.00000  Uiso   1.00
C1192  C     0.53053   0.79961   0.94993   0.00000  Uiso   1.00
C1193  C     0.50157   0.83608   0.52321   0.00000  Uiso   1.00
C1194  C     0.50420   0.83883   0.97648   0.00000  Uiso   1.00
C1195  C     0.51948   0.79145   0.54305   0.00000  Uiso   1.00
C1196  C     0.48484   0.73519   0.75119   0.00000  Uiso   1.00
C1197  C     0.47917   0.87989   0.95642   0.00000  Uiso   1.00
C1198  C     0.45557   0.91826   0.53026   0.00000  Uiso   1.00
C1199  C     0.55259   0.75771   0.96991   0.00000  Uiso   1.00
C1200  C     0.54634   0.72035   0.62622   0.00000  Uiso   1.00
C1201  C     0.54319   0.99478   0.62699   0.00000  Uiso   1.00
C1202  C     0.48807   0.95284   0.86546   0.00000  Uiso   1.00
C1203  C     0.51772   0.99171   0.89616   0.00000  Uiso   1.00
C1204  C     0.65222   0.75679   0.68397   0.00000  Uiso   1.00
C1205  C     0.36371   0.72853   0.65449   0.00000  Uiso   1.00
C1206  C     0.34979   0.89785   0.82368   0.00000  Uiso   1.00
C1207  C     0.45475   0.91933   0.98373   0.00000  Uiso   1.00
C1208  C     0.64741   0.93407   0.85379   0.00000  Uiso   1.00
C1209  C     0.54456   0.75229   0.51612   0.00000  Uiso   1.00
C1210  C     0.52301   0.98597   0.74867   0.00000  Uiso   1.00
C1211  C     0.47691   0.68066   0.75113   0.00000  Uiso   1.00
C1212  C     0.50061   0.83483   0.83637   0.00000  Uiso   1.00
C1213  C     0.49897   0.83102   0.66357   0.00000  Uiso   1.00
C1214  C     0.51117   0.78636   0.58944   0.00000  Uiso   1.00
H1215  H     0.46181   0.90557   0.61762   0.00000  Uiso   1.00
H1216  H     0.58788   0.73377   0.60812   0.00000  Uiso   1.00
H1217  H     0.54335   0.97851   0.59217   0.00000  Uiso   1.00
H1218  H     0.58047   0.98127   0.64277   0.00000  Uiso   1.00
H1219  H     0.50354   0.98081   0.64710   0.00000  Uiso   1.00
H1220  H     0.46326   0.97520   0.84356   0.00000  Uiso   1.00
H1221  H     0.52043   0.93346   0.84278   0.00000  Uiso   1.00
H1222  H     0.54226   0.97164   0.91986   0.00000  Uiso   1.00
H1223  H     0.54820   0.68404   0.87518   0.00000  Uiso   1.00
H1224  H     0.48571   0.68213   0.91532   0.00000  Uiso   1.00
H1225  H     0.63666   0.78727   0.66333   0.00000  Uiso   1.00
H1226  H     0.55252   0.77187   0.88298   0.00000  Uiso   1.00
H1227  H     0.61842   0.72751   0.69560   0.00000  Uiso   1.00
H1228  H     0.38375   0.70011   0.67457   0.00000  Uiso   1.00
H1229  H     0.34405   0.70741   0.62636   0.00000  Uiso   1.00
H1230  H     0.39710   0.75711   0.64025   0.00000  Uiso   1.00
H1231  H     0.39185   0.91812   0.81513   0.00000  Uiso   1.00
H1232  H     0.35395   0.86218   0.84306   0.00000  Uiso   1.00
H1233  H     0.60755   0.91271   0.86740   0.00000  Uiso   1.00
H1234  H     0.33813   0.94829   0.88250   0.00000  Uiso   1.00
H1235  H     0.63678   0.96792   0.83453   0.00000  Uiso   1.00
H1236  H     0.43735   0.94941   0.55077   0.00000  Uiso   1.00
H1237  H     0.57420   0.72819   0.94978   0.00000  Uiso   1.00
H1238  H     0.43525   0.95119   0.96932   0.00000  Uiso   1.00
H1239  H     0.55955   0.71823   0.53070   0.00000  Uiso   1.00
H1240  H     0.56656   0.66950   0.74721   0.00000  Uiso   1.00
H1241  H     0.43331   0.99704   0.75295   0.00000  Uiso   1.00
H1242  H     0.54296   0.73442   0.66138   0.00000  Uiso   1.00
N1243  N     0.65011   0.81932   0.73783   0.00000  Uiso   1.00
N1244  N     0.34989   0.84735   0.76217   0.00000  Uiso   1.00
O1245  O     0.46308   0.91286   0.75298   0.00000  Uiso   1.00
O1246  O     0.44940   0.91753   0.88993   0.00000  Uiso   1.00
O1247  O     0.34397   0.77750   0.72153   0.00000  Uiso   1.00
O1248  O     0.65598   0.88595   0.78444   0.00000  Uiso   1.00
O1249  O     0.53692   0.75381   0.74701   0.00000  Uiso   1.00
O1250  O     0.55946   0.90387   0.74518   0.00000  Uiso   1.00
O1251  O     0.44054   0.76279   0.75481   0.00000  Uiso   1.00
O1252  O     0.45181   0.83784   0.81997   0.00000  Uiso   1.00
O1253  O     0.54819   0.82883   0.68002   0.00000  Uiso   1.00
O1254  O     0.54819   0.82885   0.81217   0.00000  Uiso   1.00
O1255  O     0.45181   0.83781   0.68782   0.00000  Uiso   1.00
O1256  O     0.49928   0.73690   0.60612   0.00000  Uiso   1.00
Zn1257 Zn    0.43565   0.83933   0.75521   0.00000  Uiso   1.00
Zn1258 Zn    0.56435   0.82734   0.74479   0.00000  Uiso   1.00
C1259  C     0.84847   0.93145   0.74858   0.00000  Uiso   1.00
C1260  C     0.81179   0.88006   0.90957   0.00000  Uiso   1.00
C1261  C     0.83006   0.83033   0.61573   0.00000  Uiso   1.00
C1262  C     0.83654   0.83917   0.88402   0.00000  Uiso   1.00
C1263  C     0.81123   0.87410   0.59640   0.00000  Uiso   1.00
C1264  C     0.86526   0.80151   0.90376   0.00000  Uiso   1.00
C1265  C     0.81152   0.87647   0.55008   0.00000  Uiso   1.00
C1266  C     0.86386   0.79961   0.94993   0.00000  Uiso   1.00
C1267  C     0.83490   0.83608   0.52321   0.00000  Uiso   1.00
C1268  C     0.83753   0.83883   0.97648   0.00000  Uiso   1.00
C1269  C     0.85281   0.79145   0.54305   0.00000  Uiso   1.00
C1270  C     0.81818   0.73519   0.75119   0.00000  Uiso   1.00
C1271  C     0.81250   0.87989   0.95642   0.00000  Uiso   1.00
C1272  C     0.78890   0.91826   0.53026   0.00000  Uiso   1.00
C1273  C     0.88592   0.75771   0.96991   0.00000  Uiso   1.00
C1274  C     0.87967   0.72035   0.62622   0.00000  Uiso   1.00
C1275  C     0.87653   0.99478   0.62699   0.00000  Uiso   1.00
C1276  C     0.82140   0.95284   0.86546   0.00000  Uiso   1.00
C1277  C     0.85105   0.99171   0.89616   0.00000  Uiso   1.00
C1278  C     0.98556   0.75679   0.68397   0.00000  Uiso   1.00
C1279  C     0.69705   0.72853   0.65449   0.00000  Uiso   1.00
C1280  C     0.68313   0.89785   0.82368   0.00000  Uiso   1.00
C1281  C     0.78808   0.91933   0.98373   0.00000  Uiso   1.00
C1282  C     0.98074   0.93407   0.85379   0.00000  Uiso   1.00
C1283  C     0.87789   0.75229   0.51612   0.00000  Uiso   1.00
C1284  C     0.85634   0.98597   0.74867   0.00000  Uiso   1.00
C1285  C     0.81024   0.68066   0.75113   0.00000  Uiso   1.00
C1286  C     0.83395   0.83483   0.83637   0.00000  Uiso   1.00
C1287  C     0.83231   0.83102   0.66357   0.00000  Uiso   1.00
C1288  C     0.84450   0.78636   0.58944   0.00000  Uiso   1.00
H1289  H     0.79514   0.90557   0.61762   0.00000  Uiso   1.00
H1290  H     0.92122   0.73377   0.60812   0.00000  Uiso   1.00
H1291  H     0.87668   0.97851   0.59217   0.00000  Uiso   1.00
H1292  H     0.91380   0.98127   0.64277   0.00000  Uiso   1.00
H1293  H     0.83687   0.98081   0.64710   0.00000  Uiso   1.00
H1294  H     0.79660   0.97520   0.84356   0.00000  Uiso   1.00
H1295  H     0.85376   0.93346   0.84278   0.00000  Uiso   1.00
H1296  H     0.87560   0.97164   0.91986   0.00000  Uiso   1.00
H1297  H     0.88153   0.68404   0.87518   0.00000  Uiso   1.00
H1298  H     0.81904   0.68213   0.91532   0.00000  Uiso   1.00
H1299  H     0.96999   0.78727   0.66333   0.00000  Uiso   1.00
H1300  H     0.88585   0.77187   0.88298   0.00000  Uiso   1.00
H1301  H     0.95176   0.72751   0.69560   0.00000  Uiso   1.00
H1302  H     0.71708   0.70011   0.67457   0.00000  Uiso   1.00
H1303  H     0.67738   0.70741   0.62636   0.00000  Uiso   1.00
H1304  H     0.73043   0.75711   0.64025   0.00000  Uiso   1.00
H1305  H     0.72518   0.91812   0.81513   0.00000  Uiso   1.00
H1306  H     0.68728   0.86218   0.84306   0.00000  Uiso   1.00
H1307  H     0.94088   0.91271   0.86740   0.00000  Uiso   1.00
H1308  H     0.67146   0.94829   0.88250   0.00000  Uiso   1.00
H1309  H     0.97012   0.96792   0.83453   0.00000  Uiso   1.00
H1310  H     0.77068   0.94941   0.55077   0.00000  Uiso   1.00
H1311  H     0.90754   0.72819   0.94978   0.00000  Uiso   1.00
H1312  H     0.76858   0.95119   0.96932   0.00000  Uiso   1.00
H1313  H     0.89288   0.71823   0.53070   0.00000  Uiso   1.00
H1314  H     0.89990   0.66950   0.74721   0.00000  Uiso   1.00
H1315  H     0.76664   0.99704   0.75295   0.00000  Uiso   1.00
H1316  H     0.87629   0.73442   0.66138   0.00000  Uiso   1.00
N1317  N     0.98344   0.81932   0.73783   0.00000  Uiso   1.00
N1318  N     0.68322   0.84735   0.76217   0.00000  Uiso   1.00
O1319  O     0.79642   0.91286   0.75298   0.00000  Uiso   1.00
O1320  O     0.78273   0.91753   0.88993   0.00000  Uiso   1.00
O1321  O     0.67731   0.77750   0.72153   0.00000  Uiso   1.00
O1322  O     0.98932   0.88595   0.78444   0.00000  Uiso   1.00
O1323  O     0.87025   0.75381   0.74701   0.00000  Uiso   1.00
O1324  O     0.89280   0.90387   0.74518   0.00000  Uiso   1.00
O1325  O     0.77387   0.76279   0.75481   0.00000  Uiso   1.00
O1326  O     0.78514   0.83784   0.81997   0.00000  Uiso   1.00
O1327  O     0.88153   0.82883   0.68002   0.00000  Uiso   1.00
O1328  O     0.88152   0.82885   0.81217   0.00000  Uiso   1.00
O1329  O     0.78515   0.83781   0.68782   0.00000  Uiso   1.00
O1330  O     0.83261   0.73690   0.60612   0.00000  Uiso   1.00
Zn1331 Zn    0.76898   0.83933   0.75521   0.00000  Uiso   1.00
Zn1332 Zn    0.89769   0.82734   0.74479   0.00000  Uiso   1.00
loop_
_geom_bond_atom_site_label_1
_geom_bond_atom_site_label_2
_geom_bond_distance
_geom_bond_site_symmetry_2
_ccdc_geom_bond_type
C1     O66     1.294   .     A
C1     C26     1.407   .     S
C1     O61     1.285   .     A
C2     C4      1.410   .     A
C2     C13     1.400   .     A
C2     O62     1.389   .     S
C3     C30     1.404   .     A
C3     C29     1.433   .     S
C3     C5      1.395   .     A
C4     C6      1.389   .     A
C4     C28     1.430   .     S
C5     C7      1.385   .     A
C5     H31     1.083   .     S
C6     C8      1.377   .     A
C6     H42     1.083   .     S
C7     C9      1.408   .     A
C7     C14     1.399   .     A
C8     C15     1.397   .     A
C8     C10     1.409   .     A
C9     C11     1.412   .     A
C9     C676    1.394   1_554 S
C10    C13     1.414   .     A
C10    C675    1.394   .     S
C11    C25     1.401   .     A
C11    C30     1.389   .     A
C12    O65     1.285   .     A
C12    O67     1.294   .     A
C12    C27     1.408   .     S
C13    C23     1.406   .     A
C14    H52     1.084   .     S
C14    C689    1.391   1_554 S
C15    H53     1.082   .     S
C15    C691    1.385   .     S
C16    H32     1.115   .     S
C16    O72     1.400   .     S
C16    H58     1.099   .     S
C16    C461    1.518   1_545 S
C17    H33     1.110   .     S
C17    H34     1.110   .     S
C17    H35     1.110   .     S
C17    C238    1.518   .     S
C18    H36     1.109   .     S
C18    H37     1.107   .     S
C18    C19     1.520   .     S
C18    O62     1.416   .     S
C19    H38     1.109   .     S
C19    H261    1.108   .     S
C19    H262    1.110   .     S
C20    H41     1.110   .     S
C20    H43     1.102   .     S
C20    C95     1.522   .     S
C20    O137    1.392   .     S
C21    H44     1.111   .     S
C21    H46     1.107   .     S
C21    H45     1.109   .     S
C21    C168    1.522   1_455 S
C22    H48     1.113   .     S
C22    H47     1.103   .     S
C22    C172    1.519   1_455 S
C22    O212    1.401   1_455 S
C23    H54     1.082   .     S
C23    C680    1.391   .     S
C24    H51     1.111   .     S
C24    H49     1.108   .     S
C24    C96     1.519   .     S
C24    H124    1.110   .     S
C25    H55     1.082   .     S
C25    C681    1.385   1_554 S
C26    C249    1.337   .     S
C26    H278    1.086   .     S
C27    C470    1.337   1_545 S
C27    H501    1.088   1_545 S
C28    O68     1.295   .     A
C28    O70     1.293   .     A
C29    O71     1.289   .     A
C29    O69     1.303   .     A
C30    O72     1.385   .     S
H39    C463    1.108   1_545 S
H40    C463    1.110   1_545 S
H50    C172    1.110   1_455 S
H56    C470    1.086   1_545 S
H57    C249    1.088   .     S
N59    Zn74    2.034   .     S
N59    N134    1.289   .     S
N59    O137    1.347   .     S
N60    Zn73    2.034   .     S
N60    N207    1.289   1_455 S
N60    O212    1.347   1_455 S
O61    Zn73    1.966   .     S
O63    N207    1.347   1_455 S
O63    C168    1.392   1_455 S
O64    C96     1.401   .     S
O64    N134    1.347   .     S
O65    Zn74    1.966   .     S
O66    Zn74    1.985   .     S
O67    Zn73    1.985   .     S
O68    Zn73    2.004   .     S
O69    Zn74    2.004   .     S
O70    Zn74    2.013   .     S
O71    Zn73    2.013   .     S
C75    O140    1.294   .     A
C75    C100    1.407   .     S
C75    O135    1.285   .     A
C76    C78     1.410   .     A
C76    C87     1.400   .     A
C76    O136    1.389   .     S
C77    C104    1.404   .     A
C77    C103    1.433   .     S
C77    C79     1.395   .     A
C78    C80     1.389   .     A
C78    C102    1.430   .     S
C79    C81     1.385   .     A
C79    H105    1.083   .     S
C80    C82     1.377   .     A
C80    H116    1.083   .     S
C81    C83     1.408   .     A
C81    C88     1.399   .     A
C82    C89     1.397   .     A
C82    C84     1.409   .     A
C83    C85     1.412   .     A
C83    C750    1.394   1_554 S
C84    C87     1.414   .     A
C84    C749    1.394   .     S
C85    C99     1.401   .     A
C85    C104    1.389   .     A
C86    O139    1.285   .     A
C86    O141    1.294   .     A
C86    C101    1.408   .     S
C87    C97     1.406   .     A
C88    H126    1.084   .     S
C88    C763    1.391   1_554 S
C89    H127    1.082   .     S
C89    C765    1.385   .     S
C90    H106    1.115   .     S
C90    O146    1.400   .     S
C90    H132    1.099   .     S
C90    C535    1.518   1_545 S
C91    H107    1.110   .     S
C91    H108    1.110   .     S
C91    H109    1.110   .     S
C91    C312    1.518   .     S
C92    H110    1.109   .     S
C92    H111    1.107   .     S
C92    C93     1.520   .     S
C92    O136    1.416   .     S
C93    H112    1.109   .     S
C93    H335    1.108   .     S
C93    H336    1.110   .     S
C94    H115    1.110   .     S
C94    H117    1.102   .     S
C94    C169    1.522   .     S
C94    O211    1.392   .     S
C95    H118    1.111   .     S
C95    H120    1.107   .     S
C95    H119    1.109   .     S
C96    H122    1.113   .     S
C96    H121    1.103   .     S
C97    H128    1.082   .     S
C97    C754    1.391   .     S
C98    H125    1.111   .     S
C98    H123    1.108   .     S
C98    C170    1.519   .     S
C98    H198    1.110   .     S
C99    H129    1.082   .     S
C99    C755    1.385   1_554 S
C100   C323    1.337   .     S
C100   H352    1.086   .     S
C101   C544    1.337   1_545 S
C101   H575    1.088   1_545 S
C102   O142    1.295   .     A
C102   O144    1.293   .     A
C103   O145    1.289   .     A
C103   O143    1.303   .     A
C104   O146    1.385   .     S
H113   C537    1.108   1_545 S
H114   C537    1.110   1_545 S
H130   C544    1.086   1_545 S
H131   C323    1.088   .     S
N133   Zn148   2.034   .     S
N133   N208    1.289   .     S
N133   O211    1.347   .     S
N134   Zn147   2.034   .     S
O135   Zn147   1.966   .     S
O138   C170    1.401   .     S
O138   N208    1.347   .     S
O139   Zn148   1.966   .     S
O140   Zn148   1.985   .     S
O141   Zn147   1.985   .     S
O142   Zn147   2.004   .     S
O143   Zn148   2.004   .     S
O144   Zn148   2.013   .     S
O145   Zn147   2.013   .     S
C149   O214    1.294   .     A
C149   C174    1.407   .     S
C149   O209    1.285   .     A
C150   C152    1.410   .     A
C150   C161    1.400   .     A
C150   O210    1.389   .     S
C151   C178    1.404   .     A
C151   C177    1.433   .     S
C151   C153    1.395   .     A
C152   C154    1.389   .     A
C152   C176    1.430   .     S
C153   C155    1.385   .     A
C153   H179    1.083   .     S
C154   C156    1.377   .     A
C154   H190    1.083   .     S
C155   C157    1.408   .     A
C155   C162    1.399   .     A
C156   C163    1.397   .     A
C156   C158    1.409   .     A
C157   C159    1.412   .     A
C157   C824    1.394   1_554 S
C158   C161    1.414   .     A
C158   C823    1.394   .     S
C159   C173    1.401   .     A
C159   C178    1.389   .     A
C160   O213    1.285   .     A
C160   O215    1.294   .     A
C160   C175    1.408   .     S
C161   C171    1.406   .     A
C162   H200    1.084   .     S
C162   C837    1.391   1_554 S
C163   H201    1.082   .     S
C163   C839    1.385   .     S
C164   H180    1.115   .     S
C164   O220    1.400   .     S
C164   H206    1.099   .     S
C164   C609    1.518   1_545 S
C165   H181    1.110   .     S
C165   H182    1.110   .     S
C165   H183    1.110   .     S
C165   C386    1.518   .     S
C166   H184    1.109   .     S
C166   H185    1.107   .     S
C166   C167    1.520   .     S
C166   O210    1.416   .     S
C167   H186    1.109   .     S
C167   H409    1.108   .     S
C167   H410    1.110   .     S
C168   H189    1.110   .     S
C168   H191    1.102   .     S
C168   C21     1.522   1_655 S
C168   O63     1.392   1_655 S
C169   H192    1.111   .     S
C169   H194    1.107   .     S
C169   H193    1.109   .     S
C170   H196    1.113   .     S
C170   H195    1.103   .     S
C171   H202    1.082   .     S
C171   C828    1.391   .     S
C172   H199    1.111   .     S
C172   H197    1.108   .     S
C172   C22     1.519   1_655 S
C172   H50     1.110   1_655 S
C173   H203    1.082   .     S
C173   C829    1.385   1_554 S
C174   C397    1.337   .     S
C174   H426    1.086   .     S
C175   C618    1.337   1_545 S
C175   H649    1.088   1_545 S
C176   O216    1.295   .     A
C176   O218    1.293   .     A
C177   O219    1.289   .     A
C177   O217    1.303   .     A
C178   O220    1.385   .     S
H187   C611    1.108   1_545 S
H188   C611    1.110   1_545 S
H204   C618    1.086   1_545 S
H205   C397    1.088   .     S
N207   Zn222   2.034   .     S
N207   N60     1.289   1_655 S
N207   O63     1.347   1_655 S
N208   Zn221   2.034   .     S
O209   Zn221   1.966   .     S
O212   C22     1.401   1_655 S
O212   N60     1.347   1_655 S
O213   Zn222   1.966   .     S
O214   Zn222   1.985   .     S
O215   Zn221   1.985   .     S
O216   Zn221   2.004   .     S
O217   Zn222   2.004   .     S
O218   Zn222   2.013   .     S
O219   Zn221   2.013   .     S
C223   O288    1.294   .     A
C223   C248    1.407   .     S
C223   O283    1.285   .     A
C224   C226    1.410   .     A
C224   C235    1.400   .     A
C224   O284    1.389   .     S
C225   C252    1.404   .     A
C225   C251    1.433   .     S
C225   C227    1.395   .     A
C226   C228    1.389   .     A
C226   C250    1.430   .     S
C227   C229    1.385   .     A
C227   H253    1.083   .     S
C228   C230    1.377   .     A
C228   H264    1.083   .     S
C229   C231    1.408   .     A
C229   C236    1.399   .     A
C230   C237    1.397   .     A
C230   C232    1.409   .     A
C231   C233    1.412   .     A
C231   C898    1.394   1_554 S
C232   C235    1.414   .     A
C232   C897    1.394   .     S
C233   C247    1.401   .     A
C233   C252    1.389   .     A
C234   O287    1.285   .     A
C234   O289    1.294   .     A
C234   C249    1.408   .     S
C235   C245    1.406   .     A
C236   H274    1.084   .     S
C236   C911    1.391   1_554 S
C237   H275    1.082   .     S
C237   C913    1.385   .     S
C238   H254    1.115   .     S
C238   O294    1.400   .     S
C238   H280    1.099   .     S
C239   H255    1.110   .     S
C239   H256    1.110   .     S
C239   H257    1.110   .     S
C239   C460    1.518   .     S
C240   H258    1.109   .     S
C240   H259    1.107   .     S
C240   C241    1.520   .     S
C240   O284    1.416   .     S
C241   H260    1.109   .     S
C241   H483    1.108   .     S
C241   H484    1.110   .     S
C242   H263    1.110   .     S
C242   H265    1.102   .     S
C242   C317    1.522   .     S
C242   O359    1.392   .     S
C243   H266    1.111   .     S
C243   H268    1.107   .     S
C243   H267    1.109   .     S
C243   C390    1.522   1_455 S
C244   H270    1.113   .     S
C244   H269    1.103   .     S
C244   C394    1.519   1_455 S
C244   O434    1.401   1_455 S
C245   H276    1.082   .     S
C245   C902    1.391   .     S
C246   H273    1.111   .     S
C246   H271    1.108   .     S
C246   C318    1.519   .     S
C246   H346    1.110   .     S
C247   H277    1.082   .     S
C247   C903    1.385   1_554 S
C248   C471    1.337   .     S
C248   H500    1.086   .     S
C250   O290    1.295   .     A
C250   O292    1.293   .     A
C251   O293    1.289   .     A
C251   O291    1.303   .     A
C252   O294    1.385   .     S
H272   C394    1.110   1_455 S
H279   C471    1.088   .     S
N281   Zn296   2.034   .     S
N281   N356    1.289   .     S
N281   O359    1.347   .     S
N282   Zn295   2.034   .     S
N282   N429    1.289   1_455 S
N282   O434    1.347   1_455 S
O283   Zn295   1.966   .     S
O285   N429    1.347   1_455 S
O285   C390    1.392   1_455 S
O286   C318    1.401   .     S
O286   N356    1.347   .     S
O287   Zn296   1.966   .     S
O288   Zn296   1.985   .     S
O289   Zn295   1.985   .     S
O290   Zn295   2.004   .     S
O291   Zn296   2.004   .     S
O292   Zn296   2.013   .     S
O293   Zn295   2.013   .     S
C297   O362    1.294   .     A
C297   C322    1.407   .     S
C297   O357    1.285   .     A
C298   C300    1.410   .     A
C298   C309    1.400   .     A
C298   O358    1.389   .     S
C299   C326    1.404   .     A
C299   C325    1.433   .     S
C299   C301    1.395   .     A
C300   C302    1.389   .     A
C300   C324    1.430   .     S
C301   C303    1.385   .     A
C301   H327    1.083   .     S
C302   C304    1.377   .     A
C302   H338    1.083   .     S
C303   C305    1.408   .     A
C303   C310    1.399   .     A
C304   C311    1.397   .     A
C304   C306    1.409   .     A
C305   C307    1.412   .     A
C305   C972    1.394   1_554 S
C306   C309    1.414   .     A
C306   C971    1.394   .     S
C307   C321    1.401   .     A
C307   C326    1.389   .     A
C308   O361    1.285   .     A
C308   O363    1.294   .     A
C308   C323    1.408   .     S
C309   C319    1.406   .     A
C310   H348    1.084   .     S
C310   C985    1.391   1_554 S
C311   H349    1.082   .     S
C311   C987    1.385   .     S
C312   H328    1.115   .     S
C312   O368    1.400   .     S
C312   H354    1.099   .     S
C313   H329    1.110   .     S
C313   H330    1.110   .     S
C313   H331    1.110   .     S
C313   C534    1.518   .     S
C314   H332    1.109   .     S
C314   H333    1.107   .     S
C314   C315    1.520   .     S
C314   O358    1.416   .     S
C315   H334    1.109   .     S
C315   H557    1.108   .     S
C315   H558    1.110   .     S
C316   H337    1.110   .     S
C316   H339    1.102   .     S
C316   C391    1.522   .     S
C316   O433    1.392   .     S
C317   H340    1.111   .     S
C317   H342    1.107   .     S
C317   H341    1.109   .     S
C318   H344    1.113   .     S
C318   H343    1.103   .     S
C319   H350    1.082   .     S
C319   C976    1.391   .     S
C320   H347    1.111   .     S
C320   H345    1.108   .     S
C320   C392    1.519   .     S
C320   H420    1.110   .     S
C321   H351    1.082   .     S
C321   C977    1.385   1_554 S
C322   C545    1.337   .     S
C322   H574    1.086   .     S
C324   O364    1.295   .     A
C324   O366    1.293   .     A
C325   O367    1.289   .     A
C325   O365    1.303   .     A
C326   O368    1.385   .     S
H353   C545    1.088   .     S
N355   Zn370   2.034   .     S
N355   N430    1.289   .     S
N355   O433    1.347   .     S
N356   Zn369   2.034   .     S
O357   Zn369   1.966   .     S
O360   C392    1.401   .     S
O360   N430    1.347   .     S
O361   Zn370   1.966   .     S
O362   Zn370   1.985   .     S
O363   Zn369   1.985   .     S
O364   Zn369   2.004   .     S
O365   Zn370   2.004   .     S
O366   Zn370   2.013   .     S
O367   Zn369   2.013   .     S
C371   O436    1.294   .     A
C371   C396    1.407   .     S
C371   O431    1.285   .     A
C372   C374    1.410   .     A
C372   C383    1.400   .     A
C372   O432    1.389   .     S
C373   C400    1.404   .     A
C373   C399    1.433   .     S
C373   C375    1.395   .     A
C374   C376    1.389   .     A
C374   C398    1.430   .     S
C375   C377    1.385   .     A
C375   H401    1.083   .     S
C376   C378    1.377   .     A
C376   H412    1.083   .     S
C377   C379    1.408   .     A
C377   C384    1.399   .     A
C378   C385    1.397   .     A
C378   C380    1.409   .     A
C379   C381    1.412   .     A
C379   C1046   1.394   1_554 S
C380   C383    1.414   .     A
C380   C1045   1.394   .     S
C381   C395    1.401   .     A
C381   C400    1.389   .     A
C382   O435    1.285   .     A
C382   O437    1.294   .     A
C382   C397    1.408   .     S
C383   C393    1.406   .     A
C384   H422    1.084   .     S
C384   C1059   1.391   1_554 S
C385   H423    1.082   .     S
C385   C1061   1.385   .     S
C386   H402    1.115   .     S
C386   O442    1.400   .     S
C386   H428    1.099   .     S
C387   H403    1.110   .     S
C387   H404    1.110   .     S
C387   H405    1.110   .     S
C387   C608    1.518   .     S
C388   H406    1.109   .     S
C388   H407    1.107   .     S
C388   C389    1.520   .     S
C388   O432    1.416   .     S
C389   H408    1.109   .     S
C389   H631    1.108   .     S
C389   H632    1.110   .     S
C390   H411    1.110   .     S
C390   H413    1.102   .     S
C390   C243    1.522   1_655 S
C390   O285    1.392   1_655 S
C391   H414    1.111   .     S
C391   H416    1.107   .     S
C391   H415    1.109   .     S
C392   H418    1.113   .     S
C392   H417    1.103   .     S
C393   H424    1.082   .     S
C393   C1050   1.391   .     S
C394   H421    1.111   .     S
C394   H419    1.108   .     S
C394   C244    1.519   1_655 S
C394   H272    1.110   1_655 S
C395   H425    1.082   .     S
C395   C1051   1.385   1_554 S
C396   C619    1.337   .     S
C396   H648    1.086   .     S
C398   O438    1.295   .     A
C398   O440    1.293   .     A
C399   O441    1.289   .     A
C399   O439    1.303   .     A
C400   O442    1.385   .     S
H427   C619    1.088   .     S
N429   Zn444   2.034   .     S
N429   N282    1.289   1_655 S
N429   O285    1.347   1_655 S
N430   Zn443   2.034   .     S
O431   Zn443   1.966   .     S
O434   C244    1.401   1_655 S
O434   N282    1.347   1_655 S
O435   Zn444   1.966   .     S
O436   Zn444   1.985   .     S
O437   Zn443   1.985   .     S
O438   Zn443   2.004   .     S
O439   Zn444   2.004   .     S
O440   Zn444   2.013   .     S
O441   Zn443   2.013   .     S
C445   O510    1.294   .     A
C445   C470    1.407   .     S
C445   O505    1.285   .     A
C446   C448    1.410   .     A
C446   C457    1.400   .     A
C446   O506    1.389   .     S
C447   C474    1.404   .     A
C447   C473    1.433   .     S
C447   C449    1.395   .     A
C448   C450    1.389   .     A
C448   C472    1.430   .     S
C449   C451    1.385   .     A
C449   H475    1.083   .     S
C450   C452    1.377   .     A
C450   H486    1.083   .     S
C451   C453    1.408   .     A
C451   C458    1.399   .     A
C452   C459    1.397   .     A
C452   C454    1.409   .     A
C453   C455    1.412   .     A
C453   C1120   1.394   1_554 S
C454   C457    1.414   .     A
C454   C1119   1.394   .     S
C455   C469    1.401   .     A
C455   C474    1.389   .     A
C456   O509    1.285   .     A
C456   O511    1.294   .     A
C456   C471    1.408   .     S
C457   C467    1.406   .     A
C458   H496    1.084   .     S
C458   C1133   1.391   1_554 S
C459   H497    1.082   .     S
C459   C1135   1.385   .     S
C460   H476    1.115   .     S
C460   O516    1.400   .     S
C460   H502    1.099   .     S
C461   H477    1.110   .     S
C461   H478    1.110   .     S
C461   H479    1.110   .     S
C461   C16     1.518   1_565 S
C462   H480    1.109   .     S
C462   H481    1.107   .     S
C462   C463    1.520   .     S
C462   O506    1.416   .     S
C463   H482    1.109   .     S
C463   H39     1.108   1_565 S
C463   H40     1.110   1_565 S
C464   H485    1.110   .     S
C464   H487    1.102   .     S
C464   C539    1.522   .     S
C464   O581    1.392   .     S
C465   H488    1.111   .     S
C465   H490    1.107   .     S
C465   H489    1.109   .     S
C465   C612    1.522   1_455 S
C466   H492    1.113   .     S
C466   H491    1.103   .     S
C466   C616    1.519   1_455 S
C466   O656    1.401   1_455 S
C467   H498    1.082   .     S
C467   C1124   1.391   .     S
C468   H495    1.111   .     S
C468   H493    1.108   .     S
C468   C540    1.519   .     S
C468   H568    1.110   .     S
C469   H499    1.082   .     S
C469   C1125   1.385   1_554 S
C470   C27     1.337   1_565 S
C470   H56     1.086   1_565 S
C472   O512    1.295   .     A
C472   O514    1.293   .     A
C473   O515    1.289   .     A
C473   O513    1.303   .     A
C474   O516    1.385   .     S
H494   C616    1.110   1_455 S
H501   C27     1.088   1_565 S
N503   Zn518   2.034   .     S
N503   N578    1.289   .     S
N503   O581    1.347   .     S
N504   Zn517   2.034   .     S
N504   N651    1.289   1_455 S
N504   O656    1.347   1_455 S
O505   Zn517   1.966   .     S
O507   N651    1.347   1_455 S
O507   C612    1.392   1_455 S
O508   C540    1.401   .     S
O508   N578    1.347   .     S
O509   Zn518   1.966   .     S
O510   Zn518   1.985   .     S
O511   Zn517   1.985   .     S
O512   Zn517   2.004   .     S
O513   Zn518   2.004   .     S
O514   Zn518   2.013   .     S
O515   Zn517   2.013   .     S
C519   O584    1.294   .     A
C519   C544    1.407   .     S
C519   O579    1.285   .     A
C520   C522    1.410   .     A
C520   C531    1.400   .     A
C520   O580    1.389   .     S
C521   C548    1.404   .     A
C521   C547    1.433   .     S
C521   C523    1.395   .     A
C522   C524    1.389   .     A
C522   C546    1.430   .     S
C523   C525    1.385   .     A
C523   H549    1.083   .     S
C524   C526    1.377   .     A
C524   H560    1.083   .     S
C525   C527    1.408   .     A
C525   C532    1.399   .     A
C526   C533    1.397   .     A
C526   C528    1.409   .     A
C527   C529    1.412   .     A
C527   C1194   1.394   1_554 S
C528   C531    1.414   .     A
C528   C1193   1.394   .     S
C529   C543    1.401   .     A
C529   C548    1.389   .     A
C530   O583    1.285   .     A
C530   O585    1.294   .     A
C530   C545    1.408   .     S
C531   C541    1.406   .     A
C532   H570    1.084   .     S
C532   C1207   1.391   1_554 S
C533   H571    1.082   .     S
C533   C1209   1.385   .     S
C534   H550    1.115   .     S
C534   O590    1.400   .     S
C534   H576    1.099   .     S
C535   H551    1.110   .     S
C535   H552    1.110   .     S
C535   H553    1.110   .     S
C535   C90     1.518   1_565 S
C536   H554    1.109   .     S
C536   H555    1.107   .     S
C536   C537    1.520   .     S
C536   O580    1.416   .     S
C537   H556    1.109   .     S
C537   H113    1.108   1_565 S
C537   H114    1.110   1_565 S
C538   H559    1.110   .     S
C538   H561    1.102   .     S
C538   C613    1.522   .     S
C538   O655    1.392   .     S
C539   H562    1.111   .     S
C539   H564    1.107   .     S
C539   H563    1.109   .     S
C540   H566    1.113   .     S
C540   H565    1.103   .     S
C541   H572    1.082   .     S
C541   C1198   1.391   .     S
C542   H569    1.111   .     S
C542   H567    1.108   .     S
C542   C614    1.519   .     S
C542   H642    1.110   .     S
C543   H573    1.082   .     S
C543   C1199   1.385   1_554 S
C544   C101    1.337   1_565 S
C544   H130    1.086   1_565 S
C546   O586    1.295   .     A
C546   O588    1.293   .     A
C547   O589    1.289   .     A
C547   O587    1.303   .     A
C548   O590    1.385   .     S
H575   C101    1.088   1_565 S
N577   Zn592   2.034   .     S
N577   N652    1.289   .     S
N577   O655    1.347   .     S
N578   Zn591   2.034   .     S
O579   Zn591   1.966   .     S
O582   C614    1.401   .     S
O582   N652    1.347   .     S
O583   Zn592   1.966   .     S
O584   Zn592   1.985   .     S
O585   Zn591   1.985   .     S
O586   Zn591   2.004   .     S
O587   Zn592   2.004   .     S
O588   Zn592   2.013   .     S
O589   Zn591   2.013   .     S
C593   O658    1.294   .     A
C593   C618    1.407   .     S
C593   O653    1.285   .     A
C594   C596    1.410   .     A
C594   C605    1.400   .     A
C594   O654    1.389   .     S
C595   C622    1.404   .     A
C595   C621    1.433   .     S
C595   C597    1.395   .     A
C596   C598    1.389   .     A
C596   C620    1.430   .     S
C597   C599    1.385   .     A
C597   H623    1.083   .     S
C598   C600    1.377   .     A
C598   H634    1.083   .     S
C599   C601    1.408   .     A
C599   C606    1.399   .     A
C600   C607    1.397   .     A
C600   C602    1.409   .     A
C601   C603    1.412   .     A
C601   C1268   1.394   1_554 S
C602   C605    1.414   .     A
C602   C1267   1.394   .     S
C603   C617    1.401   .     A
C603   C622    1.389   .     A
C604   O657    1.285   .     A
C604   O659    1.294   .     A
C604   C619    1.408   .     S
C605   C615    1.406   .     A
C606   H644    1.084   .     S
C606   C1281   1.391   1_554 S
C607   H645    1.082   .     S
C607   C1283   1.385   .     S
C608   H624    1.115   .     S
C608   O664    1.400   .     S
C608   H650    1.099   .     S
C609   H625    1.110   .     S
C609   H626    1.110   .     S
C609   H627    1.110   .     S
C609   C164    1.518   1_565 S
C610   H628    1.109   .     S
C610   H629    1.107   .     S
C610   C611    1.520   .     S
C610   O654    1.416   .     S
C611   H630    1.109   .     S
C611   H187    1.108   1_565 S
C611   H188    1.110   1_565 S
C612   H633    1.110   .     S
C612   H635    1.102   .     S
C612   C465    1.522   1_655 S
C612   O507    1.392   1_655 S
C613   H636    1.111   .     S
C613   H638    1.107   .     S
C613   H637    1.109   .     S
C614   H640    1.113   .     S
C614   H639    1.103   .     S
C615   H646    1.082   .     S
C615   C1272   1.391   .     S
C616   H643    1.111   .     S
C616   H641    1.108   .     S
C616   C466    1.519   1_655 S
C616   H494    1.110   1_655 S
C617   H647    1.082   .     S
C617   C1273   1.385   1_554 S
C618   C175    1.337   1_565 S
C618   H204    1.086   1_565 S
C620   O660    1.295   .     A
C620   O662    1.293   .     A
C621   O663    1.289   .     A
C621   O661    1.303   .     A
C622   O664    1.385   .     S
H649   C175    1.088   1_565 S
N651   Zn666   2.034   .     S
N651   N504    1.289   1_655 S
N651   O507    1.347   1_655 S
N652   Zn665   2.034   .     S
O653   Zn665   1.966   .     S
O656   C466    1.401   1_655 S
O656   N504    1.347   1_655 S
O657   Zn666   1.966   .     S
O658   Zn666   1.985   .     S
O659   Zn665   1.985   .     S
O660   Zn665   2.004   .     S
O661   Zn666   2.004   .     S
O662   Zn666   2.013   .     S
O663   Zn665   2.013   .     S
C667   O732    1.294   .     A
C667   C692    1.407   .     S
C667   O727    1.285   .     A
C668   C670    1.410   .     A
C668   C679    1.400   .     A
C668   O728    1.389   .     S
C669   C696    1.404   .     A
C669   C695    1.433   .     S
C669   C671    1.395   .     A
C670   C672    1.389   .     A
C670   C694    1.430   .     S
C671   C673    1.385   .     A
C671   H697    1.083   .     S
C672   C674    1.377   .     A
C672   H708    1.083   .     S
C673   C675    1.408   .     A
C673   C680    1.399   .     A
C674   C681    1.397   .     A
C674   C676    1.409   .     A
C675   C677    1.412   .     A
C676   C679    1.414   .     A
C676   C9      1.394   1_556 S
C677   C691    1.401   .     A
C677   C696    1.389   .     A
C678   O731    1.285   .     A
C678   O733    1.294   .     A
C678   C693    1.408   .     S
C679   C689    1.406   .     A
C680   H718    1.084   .     S
C681   H719    1.082   .     S
C681   C25     1.385   1_556 S
C682   H698    1.115   .     S
C682   O738    1.400   .     S
C682   H724    1.099   .     S
C682   C1127   1.518   1_545 S
C683   H699    1.110   .     S
C683   H700    1.110   .     S
C683   H701    1.110   .     S
C683   C904    1.518   .     S
C684   H702    1.109   .     S
C684   H703    1.107   .     S
C684   C685    1.520   .     S
C684   O728    1.416   .     S
C685   H704    1.109   .     S
C685   H927    1.108   .     S
C685   H928    1.110   .     S
C686   H707    1.110   .     S
C686   H709    1.102   .     S
C686   C761    1.522   .     S
C686   O803    1.392   .     S
C687   H710    1.111   .     S
C687   H712    1.107   .     S
C687   H711    1.109   .     S
C687   C834    1.522   1_455 S
C688   H714    1.113   .     S
C688   H713    1.103   .     S
C688   C838    1.519   1_455 S
C688   O878    1.401   1_455 S
C689   H720    1.082   .     S
C689   C14     1.391   1_556 S
C690   H717    1.111   .     S
C690   H715    1.108   .     S
C690   C762    1.519   .     S
C690   H790    1.110   .     S
C691   H721    1.082   .     S
C692   C915    1.337   .     S
C692   H944    1.086   .     S
C693   C1136   1.337   1_545 S
C693   H1167   1.088   1_545 S
C694   O734    1.295   .     A
C694   O736    1.293   .     A
C695   O737    1.289   .     A
C695   O735    1.303   .     A
C696   O738    1.385   .     S
H705   C1129   1.108   1_545 S
H706   C1129   1.110   1_545 S
H716   C838    1.110   1_455 S
H722   C1136   1.086   1_545 S
H723   C915    1.088   .     S
N725   Zn740   2.034   .     S
N725   N800    1.289   .     S
N725   O803    1.347   .     S
N726   Zn739   2.034   .     S
N726   N873    1.289   1_455 S
N726   O878    1.347   1_455 S
O727   Zn739   1.966   .     S
O729   N873    1.347   1_455 S
O729   C834    1.392   1_455 S
O730   C762    1.401   .     S
O730   N800    1.347   .     S
O731   Zn740   1.966   .     S
O732   Zn740   1.985   .     S
O733   Zn739   1.985   .     S
O734   Zn739   2.004   .     S
O735   Zn740   2.004   .     S
O736   Zn740   2.013   .     S
O737   Zn739   2.013   .     S
C741   O806    1.294   .     A
C741   C766    1.407   .     S
C741   O801    1.285   .     A
C742   C744    1.410   .     A
C742   C753    1.400   .     A
C742   O802    1.389   .     S
C743   C770    1.404   .     A
C743   C769    1.433   .     S
C743   C745    1.395   .     A
C744   C746    1.389   .     A
C744   C768    1.430   .     S
C745   C747    1.385   .     A
C745   H771    1.083   .     S
C746   C748    1.377   .     A
C746   H782    1.083   .     S
C747   C749    1.408   .     A
C747   C754    1.399   .     A
C748   C755    1.397   .     A
C748   C750    1.409   .     A
C749   C751    1.412   .     A
C750   C753    1.414   .     A
C750   C83     1.394   1_556 S
C751   C765    1.401   .     A
C751   C770    1.389   .     A
C752   O805    1.285   .     A
C752   O807    1.294   .     A
C752   C767    1.408   .     S
C753   C763    1.406   .     A
C754   H792    1.084   .     S
C755   H793    1.082   .     S
C755   C99     1.385   1_556 S
C756   H772    1.115   .     S
C756   O812    1.400   .     S
C756   H798    1.099   .     S
C756   C1201   1.518   1_545 S
C757   H773    1.110   .     S
C757   H774    1.110   .     S
C757   H775    1.110   .     S
C757   C978    1.518   .     S
C758   H776    1.109   .     S
C758   H777    1.107   .     S
C758   C759    1.520   .     S
C758   O802    1.416   .     S
C759   H778    1.109   .     S
C759   H1001   1.108   .     S
C759   H1002   1.110   .     S
C760   H781    1.110   .     S
C760   H783    1.102   .     S
C760   C835    1.522   .     S
C760   O877    1.392   .     S
C761   H784    1.111   .     S
C761   H786    1.107   .     S
C761   H785    1.109   .     S
C762   H788    1.113   .     S
C762   H787    1.103   .     S
C763   H794    1.082   .     S
C763   C88     1.391   1_556 S
C764   H791    1.111   .     S
C764   H789    1.108   .     S
C764   C836    1.519   .     S
C764   H864    1.110   .     S
C765   H795    1.082   .     S
C766   C989    1.337   .     S
C766   H1018   1.086   .     S
C767   C1210   1.337   1_545 S
C767   H1241   1.088   1_545 S
C768   O808    1.295   .     A
C768   O810    1.293   .     A
C769   O811    1.289   .     A
C769   O809    1.303   .     A
C770   O812    1.385   .     S
H779   C1203   1.108   1_545 S
H780   C1203   1.110   1_545 S
H796   C1210   1.086   1_545 S
H797   C989    1.088   .     S
N799   Zn814   2.034   .     S
N799   N874    1.289   .     S
N799   O877    1.347   .     S
N800   Zn813   2.034   .     S
O801   Zn813   1.966   .     S
O804   C836    1.401   .     S
O804   N874    1.347   .     S
O805   Zn814   1.966   .     S
O806   Zn814   1.985   .     S
O807   Zn813   1.985   .     S
O808   Zn813   2.004   .     S
O809   Zn814   2.004   .     S
O810   Zn814   2.013   .     S
O811   Zn813   2.013   .     S
C815   O880    1.294   .     A
C815   C840    1.407   .     S
C815   O875    1.285   .     A
C816   C818    1.410   .     A
C816   C827    1.400   .     A
C816   O876    1.389   .     S
C817   C844    1.404   .     A
C817   C843    1.433   .     S
C817   C819    1.395   .     A
C818   C820    1.389   .     A
C818   C842    1.430   .     S
C819   C821    1.385   .     A
C819   H845    1.083   .     S
C820   C822    1.377   .     A
C820   H856    1.083   .     S
C821   C823    1.408   .     A
C821   C828    1.399   .     A
C822   C829    1.397   .     A
C822   C824    1.409   .     A
C823   C825    1.412   .     A
C824   C827    1.414   .     A
C824   C157    1.394   1_556 S
C825   C839    1.401   .     A
C825   C844    1.389   .     A
C826   O879    1.285   .     A
C826   O881    1.294   .     A
C826   C841    1.408   .     S
C827   C837    1.406   .     A
C828   H866    1.084   .     S
C829   H867    1.082   .     S
C829   C173    1.385   1_556 S
C830   H846    1.115   .     S
C830   O886    1.400   .     S
C830   H872    1.099   .     S
C830   C1275   1.518   1_545 S
C831   H847    1.110   .     S
C831   H848    1.110   .     S
C831   H849    1.110   .     S
C831   C1052   1.518   .     S
C832   H850    1.109   .     S
C832   H851    1.107   .     S
C832   C833    1.520   .     S
C832   O876    1.416   .     S
C833   H852    1.109   .     S
C833   H1075   1.108   .     S
C833   H1076   1.110   .     S
C834   H855    1.110   .     S
C834   H857    1.102   .     S
C834   C687    1.522   1_655 S
C834   O729    1.392   1_655 S
C835   H858    1.111   .     S
C835   H860    1.107   .     S
C835   H859    1.109   .     S
C836   H862    1.113   .     S
C836   H861    1.103   .     S
C837   H868    1.082   .     S
C837   C162    1.391   1_556 S
C838   H865    1.111   .     S
C838   H863    1.108   .     S
C838   C688    1.519   1_655 S
C838   H716    1.110   1_655 S
C839   H869    1.082   .     S
C840   C1063   1.337   .     S
C840   H1092   1.086   .     S
C841   C1284   1.337   1_545 S
C841   H1315   1.088   1_545 S
C842   O882    1.295   .     A
C842   O884    1.293   .     A
C843   O885    1.289   .     A
C843   O883    1.303   .     A
C844   O886    1.385   .     S
H853   C1277   1.108   1_545 S
H854   C1277   1.110   1_545 S
H870   C1284   1.086   1_545 S
H871   C1063   1.088   .     S
N873   Zn888   2.034   .     S
N873   N726    1.289   1_655 S
N873   O729    1.347   1_655 S
N874   Zn887   2.034   .     S
O875   Zn887   1.966   .     S
O878   C688    1.401   1_655 S
O878   N726    1.347   1_655 S
O879   Zn888   1.966   .     S
O880   Zn888   1.985   .     S
O881   Zn887   1.985   .     S
O882   Zn887   2.004   .     S
O883   Zn888   2.004   .     S
O884   Zn888   2.013   .     S
O885   Zn887   2.013   .     S
C889   O954    1.294   .     A
C889   C914    1.407   .     S
C889   O949    1.285   .     A
C890   C892    1.410   .     A
C890   C901    1.400   .     A
C890   O950    1.389   .     S
C891   C918    1.404   .     A
C891   C917    1.433   .     S
C891   C893    1.395   .     A
C892   C894    1.389   .     A
C892   C916    1.430   .     S
C893   C895    1.385   .     A
C893   H919    1.083   .     S
C894   C896    1.377   .     A
C894   H930    1.083   .     S
C895   C897    1.408   .     A
C895   C902    1.399   .     A
C896   C903    1.397   .     A
C896   C898    1.409   .     A
C897   C899    1.412   .     A
C898   C901    1.414   .     A
C898   C231    1.394   1_556 S
C899   C913    1.401   .     A
C899   C918    1.389   .     A
C900   O953    1.285   .     A
C900   O955    1.294   .     A
C900   C915    1.408   .     S
C901   C911    1.406   .     A
C902   H940    1.084   .     S
C903   H941    1.082   .     S
C903   C247    1.385   1_556 S
C904   H920    1.115   .     S
C904   O960    1.400   .     S
C904   H946    1.099   .     S
C905   H921    1.110   .     S
C905   H922    1.110   .     S
C905   H923    1.110   .     S
C905   C1126   1.518   .     S
C906   H924    1.109   .     S
C906   H925    1.107   .     S
C906   C907    1.520   .     S
C906   O950    1.416   .     S
C907   H926    1.109   .     S
C907   H1149   1.108   .     S
C907   H1150   1.110   .     S
C908   H929    1.110   .     S
C908   H931    1.102   .     S
C908   C983    1.522   .     S
C908   O1025   1.392   .     S
C909   H932    1.111   .     S
C909   H934    1.107   .     S
C909   H933    1.109   .     S
C909   C1056   1.522   1_455 S
C910   H936    1.113   .     S
C910   H935    1.103   .     S
C910   C1060   1.519   1_455 S
C910   O1100   1.401   1_455 S
C911   H942    1.082   .     S
C911   C236    1.391   1_556 S
C912   H939    1.111   .     S
C912   H937    1.108   .     S
C912   C984    1.519   .     S
C912   H1012   1.110   .     S
C913   H943    1.082   .     S
C914   C1137   1.337   .     S
C914   H1166   1.086   .     S
C916   O956    1.295   .     A
C916   O958    1.293   .     A
C917   O959    1.289   .     A
C917   O957    1.303   .     A
C918   O960    1.385   .     S
H938   C1060   1.110   1_455 S
H945   C1137   1.088   .     S
N947   Zn962   2.034   .     S
N947   N1022   1.289   .     S
N947   O1025   1.347   .     S
N948   Zn961   2.034   .     S
N948   N1095   1.289   1_455 S
N948   O1100   1.347   1_455 S
O949   Zn961   1.966   .     S
O951   N1095   1.347   1_455 S
O951   C1056   1.392   1_455 S
O952   C984    1.401   .     S
O952   N1022   1.347   .     S
O953   Zn962   1.966   .     S
O954   Zn962   1.985   .     S
O955   Zn961   1.985   .     S
O956   Zn961   2.004   .     S
O957   Zn962   2.004   .     S
O958   Zn962   2.013   .     S
O959   Zn961   2.013   .     S
C963   O1028   1.294   .     A
C963   C988    1.407   .     S
C963   O1023   1.285   .     A
C964   C966    1.410   .     A
C964   C975    1.400   .     A
C964   O1024   1.389   .     S
C965   C992    1.404   .     A
C965   C991    1.433   .     S
C965   C967    1.395   .     A
C966   C968    1.389   .     A
C966   C990    1.430   .     S
C967   C969    1.385   .     A
C967   H993    1.083   .     S
C968   C970    1.377   .     A
C968   H1004   1.083   .     S
C969   C971    1.408   .     A
C969   C976    1.399   .     A
C970   C977    1.397   .     A
C970   C972    1.409   .     A
C971   C973    1.412   .     A
C972   C975    1.414   .     A
C972   C305    1.394   1_556 S
C973   C987    1.401   .     A
C973   C992    1.389   .     A
C974   O1027   1.285   .     A
C974   O1029   1.294   .     A
C974   C989    1.408   .     S
C975   C985    1.406   .     A
C976   H1014   1.084   .     S
C977   H1015   1.082   .     S
C977   C321    1.385   1_556 S
C978   H994    1.115   .     S
C978   O1034   1.400   .     S
C978   H1020   1.099   .     S
C979   H995    1.110   .     S
C979   H996    1.110   .     S
C979   H997    1.110   .     S
C979   C1200   1.518   .     S
C980   H998    1.109   .     S
C980   H999    1.107   .     S
C980   C981    1.520   .     S
C980   O1024   1.416   .     S
C981   H1000   1.109   .     S
C981   H1223   1.108   .     S
C981   H1224   1.110   .     S
C982   H1003   1.110   .     S
C982   H1005   1.102   .     S
C982   C1057   1.522   .     S
C982   O1099   1.392   .     S
C983   H1006   1.111   .     S
C983   H1008   1.107   .     S
C983   H1007   1.109   .     S
C984   H1010   1.113   .     S
C984   H1009   1.103   .     S
C985   H1016   1.082   .     S
C985   C310    1.391   1_556 S
C986   H1013   1.111   .     S
C986   H1011   1.108   .     S
C986   C1058   1.519   .     S
C986   H1086   1.110   .     S
C987   H1017   1.082   .     S
C988   C1211   1.337   .     S
C988   H1240   1.086   .     S
C990   O1030   1.295   .     A
C990   O1032   1.293   .     A
C991   O1033   1.289   .     A
C991   O1031   1.303   .     A
C992   O1034   1.385   .     S
H1019  C1211   1.088   .     S
N1021  Zn1036  2.034   .     S
N1021  N1096   1.289   .     S
N1021  O1099   1.347   .     S
N1022  Zn1035  2.034   .     S
O1023  Zn1035  1.966   .     S
O1026  C1058   1.401   .     S
O1026  N1096   1.347   .     S
O1027  Zn1036  1.966   .     S
O1028  Zn1036  1.985   .     S
O1029  Zn1035  1.985   .     S
O1030  Zn1035  2.004   .     S
O1031  Zn1036  2.004   .     S
O1032  Zn1036  2.013   .     S
O1033  Zn1035  2.013   .     S
C1037  O1102   1.294   .     A
C1037  C1062   1.407   .     S
C1037  O1097   1.285   .     A
C1038  C1040   1.410   .     A
C1038  C1049   1.400   .     A
C1038  O1098   1.389   .     S
C1039  C1066   1.404   .     A
C1039  C1065   1.433   .     S
C1039  C1041   1.395   .     A
C1040  C1042   1.389   .     A
C1040  C1064   1.430   .     S
C1041  C1043   1.385   .     A
C1041  H1067   1.083   .     S
C1042  C1044   1.377   .     A
C1042  H1078   1.083   .     S
C1043  C1045   1.408   .     A
C1043  C1050   1.399   .     A
C1044  C1051   1.397   .     A
C1044  C1046   1.409   .     A
C1045  C1047   1.412   .     A
C1046  C1049   1.414   .     A
C1046  C379    1.394   1_556 S
C1047  C1061   1.401   .     A
C1047  C1066   1.389   .     A
C1048  O1101   1.285   .     A
C1048  O1103   1.294   .     A
C1048  C1063   1.408   .     S
C1049  C1059   1.406   .     A
C1050  H1088   1.084   .     S
C1051  H1089   1.082   .     S
C1051  C395    1.385   1_556 S
C1052  H1068   1.115   .     S
C1052  O1108   1.400   .     S
C1052  H1094   1.099   .     S
C1053  H1069   1.110   .     S
C1053  H1070   1.110   .     S
C1053  H1071   1.110   .     S
C1053  C1274   1.518   .     S
C1054  H1072   1.109   .     S
C1054  H1073   1.107   .     S
C1054  C1055   1.520   .     S
C1054  O1098   1.416   .     S
C1055  H1074   1.109   .     S
C1055  H1297   1.108   .     S
C1055  H1298   1.110   .     S
C1056  H1077   1.110   .     S
C1056  H1079   1.102   .     S
C1056  C909    1.522   1_655 S
C1056  O951    1.392   1_655 S
C1057  H1080   1.111   .     S
C1057  H1082   1.107   .     S
C1057  H1081   1.109   .     S
C1058  H1084   1.113   .     S
C1058  H1083   1.103   .     S
C1059  H1090   1.082   .     S
C1059  C384    1.391   1_556 S
C1060  H1087   1.111   .     S
C1060  H1085   1.108   .     S
C1060  C910    1.519   1_655 S
C1060  H938    1.110   1_655 S
C1061  H1091   1.082   .     S
C1062  C1285   1.337   .     S
C1062  H1314   1.086   .     S
C1064  O1104   1.295   .     A
C1064  O1106   1.293   .     A
C1065  O1107   1.289   .     A
C1065  O1105   1.303   .     A
C1066  O1108   1.385   .     S
H1093  C1285   1.088   .     S
N1095  Zn1110  2.034   .     S
N1095  N948    1.289   1_655 S
N1095  O951    1.347   1_655 S
N1096  Zn1109  2.034   .     S
O1097  Zn1109  1.966   .     S
O1100  C910    1.401   1_655 S
O1100  N948    1.347   1_655 S
O1101  Zn1110  1.966   .     S
O1102  Zn1110  1.985   .     S
O1103  Zn1109  1.985   .     S
O1104  Zn1109  2.004   .     S
O1105  Zn1110  2.004   .     S
O1106  Zn1110  2.013   .     S
O1107  Zn1109  2.013   .     S
C1111  O1176   1.294   .     A
C1111  C1136   1.407   .     S
C1111  O1171   1.285   .     A
C1112  C1114   1.410   .     A
C1112  C1123   1.400   .     A
C1112  O1172   1.389   .     S
C1113  C1140   1.404   .     A
C1113  C1139   1.433   .     S
C1113  C1115   1.395   .     A
C1114  C1116   1.389   .     A
C1114  C1138   1.430   .     S
C1115  C1117   1.385   .     A
C1115  H1141   1.083   .     S
C1116  C1118   1.377   .     A
C1116  H1152   1.083   .     S
C1117  C1119   1.408   .     A
C1117  C1124   1.399   .     A
C1118  C1125   1.397   .     A
C1118  C1120   1.409   .     A
C1119  C1121   1.412   .     A
C1120  C1123   1.414   .     A
C1120  C453    1.394   1_556 S
C1121  C1135   1.401   .     A
C1121  C1140   1.389   .     A
C1122  O1175   1.285   .     A
C1122  O1177   1.294   .     A
C1122  C1137   1.408   .     S
C1123  C1133   1.406   .     A
C1124  H1162   1.084   .     S
C1125  H1163   1.082   .     S
C1125  C469    1.385   1_556 S
C1126  H1142   1.115   .     S
C1126  O1182   1.400   .     S
C1126  H1168   1.099   .     S
C1127  H1143   1.110   .     S
C1127  H1144   1.110   .     S
C1127  H1145   1.110   .     S
C1127  C682    1.518   1_565 S
C1128  H1146   1.109   .     S
C1128  H1147   1.107   .     S
C1128  C1129   1.520   .     S
C1128  O1172   1.416   .     S
C1129  H1148   1.109   .     S
C1129  H705    1.108   1_565 S
C1129  H706    1.110   1_565 S
C1130  H1151   1.110   .     S
C1130  H1153   1.102   .     S
C1130  C1205   1.522   .     S
C1130  O1247   1.392   .     S
C1131  H1154   1.111   .     S
C1131  H1156   1.107   .     S
C1131  H1155   1.109   .     S
C1131  C1278   1.522   1_455 S
C1132  H1158   1.113   .     S
C1132  H1157   1.103   .     S
C1132  C1282   1.519   1_455 S
C1132  O1322   1.401   1_455 S
C1133  H1164   1.082   .     S
C1133  C458    1.391   1_556 S
C1134  H1161   1.111   .     S
C1134  H1159   1.108   .     S
C1134  C1206   1.519   .     S
C1134  H1234   1.110   .     S
C1135  H1165   1.082   .     S
C1136  C693    1.337   1_565 S
C1136  H722    1.086   1_565 S
C1138  O1178   1.295   .     A
C1138  O1180   1.293   .     A
C1139  O1181   1.289   .     A
C1139  O1179   1.303   .     A
C1140  O1182   1.385   .     S
H1160  C1282   1.110   1_455 S
H1167  C693    1.088   1_565 S
N1169  Zn1184  2.034   .     S
N1169  N1244   1.289   .     S
N1169  O1247   1.347   .     S
N1170  Zn1183  2.034   .     S
N1170  N1317   1.289   1_455 S
N1170  O1322   1.347   1_455 S
O1171  Zn1183  1.966   .     S
O1173  N1317   1.347   1_455 S
O1173  C1278   1.392   1_455 S
O1174  C1206   1.401   .     S
O1174  N1244   1.347   .     S
O1175  Zn1184  1.966   .     S
O1176  Zn1184  1.985   .     S
O1177  Zn1183  1.985   .     S
O1178  Zn1183  2.004   .     S
O1179  Zn1184  2.004   .     S
O1180  Zn1184  2.013   .     S
O1181  Zn1183  2.013   .     S
C1185  O1250   1.294   .     A
C1185  C1210   1.407   .     S
C1185  O1245   1.285   .     A
C1186  C1188   1.410   .     A
C1186  C1197   1.400   .     A
C1186  O1246   1.389   .     S
C1187  C1214   1.404   .     A
C1187  C1213   1.433   .     S
C1187  C1189   1.395   .     A
C1188  C1190   1.389   .     A
C1188  C1212   1.430   .     S
C1189  C1191   1.385   .     A
C1189  H1215   1.083   .     S
C1190  C1192   1.377   .     A
C1190  H1226   1.083   .     S
C1191  C1193   1.408   .     A
C1191  C1198   1.399   .     A
C1192  C1199   1.397   .     A
C1192  C1194   1.409   .     A
C1193  C1195   1.412   .     A
C1194  C1197   1.414   .     A
C1194  C527    1.394   1_556 S
C1195  C1209   1.401   .     A
C1195  C1214   1.389   .     A
C1196  O1249   1.285   .     A
C1196  O1251   1.294   .     A
C1196  C1211   1.408   .     S
C1197  C1207   1.406   .     A
C1198  H1236   1.084   .     S
C1199  H1237   1.082   .     S
C1199  C543    1.385   1_556 S
C1200  H1216   1.115   .     S
C1200  O1256   1.400   .     S
C1200  H1242   1.099   .     S
C1201  H1217   1.110   .     S
C1201  H1218   1.110   .     S
C1201  H1219   1.110   .     S
C1201  C756    1.518   1_565 S
C1202  H1220   1.109   .     S
C1202  H1221   1.107   .     S
C1202  C1203   1.520   .     S
C1202  O1246   1.416   .     S
C1203  H1222   1.109   .     S
C1203  H779    1.108   1_565 S
C1203  H780    1.110   1_565 S
C1204  H1225   1.110   .     S
C1204  H1227   1.102   .     S
C1204  C1279   1.522   .     S
C1204  O1321   1.392   .     S
C1205  H1228   1.111   .     S
C1205  H1230   1.107   .     S
C1205  H1229   1.109   .     S
C1206  H1232   1.113   .     S
C1206  H1231   1.103   .     S
C1207  H1238   1.082   .     S
C1207  C532    1.391   1_556 S
C1208  H1235   1.111   .     S
C1208  H1233   1.108   .     S
C1208  C1280   1.519   .     S
C1208  H1308   1.110   .     S
C1209  H1239   1.082   .     S
C1210  C767    1.337   1_565 S
C1210  H796    1.086   1_565 S
C1212  O1252   1.295   .     A
C1212  O1254   1.293   .     A
C1213  O1255   1.289   .     A
C1213  O1253   1.303   .     A
C1214  O1256   1.385   .     S
H1241  C767    1.088   1_565 S
N1243  Zn1258  2.034   .     S
N1243  N1318   1.289   .     S
N1243  O1321   1.347   .     S
N1244  Zn1257  2.034   .     S
O1245  Zn1257  1.966   .     S
O1248  C1280   1.401   .     S
O1248  N1318   1.347   .     S
O1249  Zn1258  1.966   .     S
O1250  Zn1258  1.985   .     S
O1251  Zn1257  1.985   .     S
O1252  Zn1257  2.004   .     S
O1253  Zn1258  2.004   .     S
O1254  Zn1258  2.013   .     S
O1255  Zn1257  2.013   .     S
C1259  O1324   1.294   .     A
C1259  C1284   1.407   .     S
C1259  O1319   1.285   .     A
C1260  C1262   1.410   .     A
C1260  C1271   1.400   .     A
C1260  O1320   1.389   .     S
C1261  C1288   1.404   .     A
C1261  C1287   1.433   .     S
C1261  C1263   1.395   .     A
C1262  C1264   1.389   .     A
C1262  C1286   1.430   .     S
C1263  C1265   1.385   .     A
C1263  H1289   1.083   .     S
C1264  C1266   1.377   .     A
C1264  H1300   1.083   .     S
C1265  C1267   1.408   .     A
C1265  C1272   1.399   .     A
C1266  C1273   1.397   .     A
C1266  C1268   1.409   .     A
C1267  C1269   1.412   .     A
C1268  C1271   1.414   .     A
C1268  C601    1.394   1_556 S
C1269  C1283   1.401   .     A
C1269  C1288   1.389   .     A
C1270  O1323   1.285   .     A
C1270  O1325   1.294   .     A
C1270  C1285   1.408   .     S
C1271  C1281   1.406   .     A
C1272  H1310   1.084   .     S
C1273  H1311   1.082   .     S
C1273  C617    1.385   1_556 S
C1274  H1290   1.115   .     S
C1274  O1330   1.400   .     S
C1274  H1316   1.099   .     S
C1275  H1291   1.110   .     S
C1275  H1292   1.110   .     S
C1275  H1293   1.110   .     S
C1275  C830    1.518   1_565 S
C1276  H1294   1.109   .     S
C1276  H1295   1.107   .     S
C1276  C1277   1.520   .     S
C1276  O1320   1.416   .     S
C1277  H1296   1.109   .     S
C1277  H853    1.108   1_565 S
C1277  H854    1.110   1_565 S
C1278  H1299   1.110   .     S
C1278  H1301   1.102   .     S
C1278  C1131   1.522   1_655 S
C1278  O1173   1.392   1_655 S
C1279  H1302   1.111   .     S
C1279  H1304   1.107   .     S
C1279  H1303   1.109   .     S
C1280  H1306   1.113   .     S
C1280  H1305   1.103   .     S
C1281  H1312   1.082   .     S
C1281  C606    1.391   1_556 S
C1282  H1309   1.111   .     S
C1282  H1307   1.108   .     S
C1282  C1132   1.519   1_655 S
C1282  H1160   1.110   1_655 S
C1283  H1313   1.082   .     S
C1284  C841    1.337   1_565 S
C1284  H870    1.086   1_565 S
C1286  O1326   1.295   .     A
C1286  O1328   1.293   .     A
C1287  O1329   1.289   .     A
C1287  O1327   1.303   .     A
C1288  O1330   1.385   .     S
H1315  C841    1.088   1_565 S
N1317  Zn1332  2.034   .     S
N1317  N1170   1.289   1_655 S
N1317  O1173   1.347   1_655 S
N1318  Zn1331  2.034   .     S
O1319  Zn1331  1.966   .     S
O1322  C1132   1.401   1_655 S
O1322  N1170   1.347   1_655 S
O1323  Zn1332  1.966   .     S
O1324  Zn1332  1.985   .     S
O1325  Zn1331  1.985   .     S
O1326  Zn1331  2.004   .     S
O1327  Zn1332  2.004   .     S
O1328  Zn1332  2.013   .     S
O1329  Zn1331  2.013   .     S
