data_str_m3_o10_o18_pcu_sym.100
_audit_creation_date              2020-01-03
_audit_creation_method            'Materials Studio'
_symmetry_space_group_name_H-M    'P1'
_symmetry_Int_Tables_number       1
_symmetry_cell_setting            triclinic
loop_
_symmetry_equiv_pos_as_xyz
  x,y,z
_cell_length_a                    23.9958
_cell_length_b                    25.6485
_cell_length_c                    27.9196
_cell_angle_alpha                 94.6297
_cell_angle_beta                  95.0707
_cell_angle_gamma                 93.3044
loop_
_atom_site_label
_atom_site_type_symbol
_atom_site_fract_x
_atom_site_fract_y
_atom_site_fract_z
_atom_site_U_iso_or_equiv
_atom_site_adp_type
_atom_site_occupancy
C1     C     0.01459   0.26452   0.24855   0.00000  Uiso   1.00
C2     C     0.31129   0.16177   0.15969   0.00000  Uiso   1.00
C3     C     0.03450   0.17940   0.39359   0.00000  Uiso   1.00
C4     C     0.29673   0.15096   0.10833   0.00000  Uiso   1.00
C5     C     0.00355   0.19320   0.47388   0.00000  Uiso   1.00
C6     C     0.29629   0.08942   0.03823   0.00000  Uiso   1.00
C7     C     0.32453   0.18727   0.42380   0.00000  Uiso   1.00
C8     C     0.31945   0.10848   0.08398   0.00000  Uiso   1.00
C9     C     0.08976   0.17711   0.41479   0.00000  Uiso   1.00
C10    C     0.25078   0.17512   0.08704   0.00000  Uiso   1.00
C11    C     0.09670   0.16587   0.46298   0.00000  Uiso   1.00
C12    C     0.31860   0.06873   0.25015   0.00000  Uiso   1.00
C13    C     0.21970   0.14755   0.04647   0.00000  Uiso   1.00
C14    C     0.05697   0.18290   0.49385   0.00000  Uiso   1.00
C15    C     0.24639   0.10849   0.01921   0.00000  Uiso   1.00
C16    C     0.14547   0.14474   0.48197   0.00000  Uiso   1.00
C17    C     0.16429   0.15808   0.03066   0.00000  Uiso   1.00
C18    C     0.24114   0.23179   0.10541   0.00000  Uiso   1.00
C19    C     0.23851   0.26954   0.06570   0.00000  Uiso   1.00
C20    C     0.13978   0.20163   0.39230   0.00000  Uiso   1.00
C21    C     0.17560   0.24273   0.42677   0.00000  Uiso   1.00
C22    C     0.16176   0.10204   0.21575   0.00000  Uiso   1.00
C23    C     0.12602   0.17881   0.06166   0.00000  Uiso   1.00
C24    C     0.12343   0.08321   0.17034   0.00000  Uiso   1.00
C25    C     0.18000   0.23556   0.25214   0.00000  Uiso   1.00
C26    C     0.18480   0.27384   0.29702   0.00000  Uiso   1.00
C27    C     0.17462   0.10970   0.45358   0.00000  Uiso   1.00
C28    C     0.07230   0.18995   0.04346   0.00000  Uiso   1.00
C29    C     0.22319   0.08958   0.47306   0.00000  Uiso   1.00
C30    C     0.02247   0.31914   0.24840   0.00000  Uiso   1.00
C31    C     0.31083   0.01394   0.24744   0.00000  Uiso   1.00
C32    C     0.02229   0.17281   0.34080   0.00000  Uiso   1.00
H33    H     0.04362   0.20549   0.06790   0.00000  Uiso   1.00
H34    H     0.26823   0.33019   0.24403   0.00000  Uiso   1.00
H35    H     0.27809   0.27052   0.04801   0.00000  Uiso   1.00
H36    H     0.20258   0.25874   0.03835   0.00000  Uiso   1.00
H37    H     0.23322   0.30974   0.08194   0.00000  Uiso   1.00
H38    H     0.20406   0.23443   0.12599   0.00000  Uiso   1.00
H39    H     0.27666   0.24802   0.13163   0.00000  Uiso   1.00
H40    H     0.20332   0.26682   0.40628   0.00000  Uiso   1.00
H41    H     0.20311   0.22394   0.45332   0.00000  Uiso   1.00
H42    H     0.14846   0.26935   0.44608   0.00000  Uiso   1.00
H43    H     0.16629   0.17138   0.37744   0.00000  Uiso   1.00
H44    H     0.24361   0.06068   0.45147   0.00000  Uiso   1.00
H45    H     0.12401   0.22387   0.36268   0.00000  Uiso   1.00
H46    H     0.08195   0.06744   0.17837   0.00000  Uiso   1.00
H47    H     0.11832   0.11544   0.14659   0.00000  Uiso   1.00
H48    H     0.14264   0.05090   0.15002   0.00000  Uiso   1.00
H49    H     0.20262   0.10606   0.20179   0.00000  Uiso   1.00
H50    H     0.16130   0.07217   0.24242   0.00000  Uiso   1.00
H51    H     0.19674   0.31386   0.28770   0.00000  Uiso   1.00
H52    H     0.14342   0.27646   0.31115   0.00000  Uiso   1.00
H53    H     0.21687   0.26218   0.32450   0.00000  Uiso   1.00
H54    H     0.20973   0.24696   0.22675   0.00000  Uiso   1.00
H55    H     0.02138   0.08984   0.10053   0.00000  Uiso   1.00
H56    H     0.14354   0.24140   0.22734   0.00000  Uiso   1.00
H57    H     0.28199   0.19117   0.40881   0.00000  Uiso   1.00
H58    H     0.30447   0.20361   0.49664   0.00000  Uiso   1.00
H59    H     0.31589   0.05830   0.01867   0.00000  Uiso   1.00
H60    H     0.13543   0.18296   0.10018   0.00000  Uiso   1.00
H61    H     0.15815   0.09558   0.41719   0.00000  Uiso   1.00
H62    H     0.06532   0.00279   0.25049   0.00000  Uiso   1.00
N63    N     0.14695   0.15216   0.23739   0.00000  Uiso   1.00
N64    N     0.18638   0.18117   0.26260   0.00000  Uiso   1.00
O65    O     0.29719   0.24631   0.25309   0.00000  Uiso   1.00
O66    O     0.03614   0.08702   0.24691   0.00000  Uiso   1.00
O67    O     0.05822   0.23702   0.24501   0.00000  Uiso   1.00
O68    O     0.27512   0.09632   0.25498   0.00000  Uiso   1.00
O69    O     0.30328   0.17397   0.32247   0.00000  Uiso   1.00
O70    O     0.03005   0.15937   0.17753   0.00000  Uiso   1.00
O71    O     0.06431   0.16467   0.31439   0.00000  Uiso   1.00
O72    O     0.26902   0.16866   0.18561   0.00000  Uiso   1.00
Zn73   Zn    0.27033   0.17287   0.25539   0.00000  Uiso   1.00
Zn74   Zn    0.06300   0.16046   0.24460   0.00000  Uiso   1.00
C75    C     0.34792   0.26452   0.24855   0.00000  Uiso   1.00
C76    C     0.64462   0.16177   0.15969   0.00000  Uiso   1.00
C77    C     0.36784   0.17940   0.39359   0.00000  Uiso   1.00
C78    C     0.63007   0.15096   0.10833   0.00000  Uiso   1.00
C79    C     0.33689   0.19320   0.47388   0.00000  Uiso   1.00
C80    C     0.62962   0.08942   0.03823   0.00000  Uiso   1.00
C81    C     0.65787   0.18727   0.42380   0.00000  Uiso   1.00
C82    C     0.65278   0.10848   0.08398   0.00000  Uiso   1.00
C83    C     0.42309   0.17711   0.41479   0.00000  Uiso   1.00
C84    C     0.58411   0.17512   0.08704   0.00000  Uiso   1.00
C85    C     0.43003   0.16587   0.46298   0.00000  Uiso   1.00
C86    C     0.65194   0.06873   0.25015   0.00000  Uiso   1.00
C87    C     0.55303   0.14755   0.04647   0.00000  Uiso   1.00
C88    C     0.39031   0.18290   0.49385   0.00000  Uiso   1.00
C89    C     0.57972   0.10849   0.01921   0.00000  Uiso   1.00
C90    C     0.47880   0.14474   0.48197   0.00000  Uiso   1.00
C91    C     0.49762   0.15808   0.03066   0.00000  Uiso   1.00
C92    C     0.57448   0.23179   0.10541   0.00000  Uiso   1.00
C93    C     0.57184   0.26954   0.06570   0.00000  Uiso   1.00
C94    C     0.47312   0.20163   0.39230   0.00000  Uiso   1.00
C95    C     0.50893   0.24273   0.42677   0.00000  Uiso   1.00
C96    C     0.49510   0.10204   0.21575   0.00000  Uiso   1.00
C97    C     0.45936   0.17881   0.06166   0.00000  Uiso   1.00
C98    C     0.45677   0.08321   0.17034   0.00000  Uiso   1.00
C99    C     0.51333   0.23556   0.25214   0.00000  Uiso   1.00
C100   C     0.51813   0.27384   0.29702   0.00000  Uiso   1.00
C101   C     0.50796   0.10970   0.45358   0.00000  Uiso   1.00
C102   C     0.40564   0.18995   0.04346   0.00000  Uiso   1.00
C103   C     0.55652   0.08958   0.47306   0.00000  Uiso   1.00
C104   C     0.35581   0.31914   0.24840   0.00000  Uiso   1.00
C105   C     0.64416   0.01394   0.24744   0.00000  Uiso   1.00
C106   C     0.35562   0.17281   0.34080   0.00000  Uiso   1.00
H107   H     0.37695   0.20549   0.06790   0.00000  Uiso   1.00
H108   H     0.60156   0.33019   0.24403   0.00000  Uiso   1.00
H109   H     0.61143   0.27052   0.04801   0.00000  Uiso   1.00
H110   H     0.53592   0.25874   0.03835   0.00000  Uiso   1.00
H111   H     0.56655   0.30974   0.08194   0.00000  Uiso   1.00
H112   H     0.53740   0.23443   0.12599   0.00000  Uiso   1.00
H113   H     0.60999   0.24802   0.13163   0.00000  Uiso   1.00
H114   H     0.53666   0.26682   0.40628   0.00000  Uiso   1.00
H115   H     0.53644   0.22394   0.45332   0.00000  Uiso   1.00
H116   H     0.48179   0.26935   0.44608   0.00000  Uiso   1.00
H117   H     0.49962   0.17138   0.37744   0.00000  Uiso   1.00
H118   H     0.57695   0.06068   0.45147   0.00000  Uiso   1.00
H119   H     0.45735   0.22387   0.36268   0.00000  Uiso   1.00
H120   H     0.41529   0.06744   0.17837   0.00000  Uiso   1.00
H121   H     0.45166   0.11544   0.14659   0.00000  Uiso   1.00
H122   H     0.47598   0.05090   0.15002   0.00000  Uiso   1.00
H123   H     0.53595   0.10606   0.20179   0.00000  Uiso   1.00
H124   H     0.49463   0.07217   0.24242   0.00000  Uiso   1.00
H125   H     0.53007   0.31386   0.28770   0.00000  Uiso   1.00
H126   H     0.47676   0.27646   0.31115   0.00000  Uiso   1.00
H127   H     0.55021   0.26218   0.32450   0.00000  Uiso   1.00
H128   H     0.54306   0.24696   0.22675   0.00000  Uiso   1.00
H129   H     0.35471   0.08984   0.10053   0.00000  Uiso   1.00
H130   H     0.47687   0.24140   0.22734   0.00000  Uiso   1.00
H131   H     0.61532   0.19117   0.40881   0.00000  Uiso   1.00
H132   H     0.63780   0.20361   0.49664   0.00000  Uiso   1.00
H133   H     0.64922   0.05830   0.01867   0.00000  Uiso   1.00
H134   H     0.46877   0.18296   0.10018   0.00000  Uiso   1.00
H135   H     0.49149   0.09558   0.41719   0.00000  Uiso   1.00
H136   H     0.39865   0.00279   0.25049   0.00000  Uiso   1.00
N137   N     0.48029   0.15216   0.23739   0.00000  Uiso   1.00
N138   N     0.51971   0.18117   0.26260   0.00000  Uiso   1.00
O139   O     0.63052   0.24631   0.25309   0.00000  Uiso   1.00
O140   O     0.36948   0.08702   0.24691   0.00000  Uiso   1.00
O141   O     0.39155   0.23702   0.24501   0.00000  Uiso   1.00
O142   O     0.60845   0.09632   0.25498   0.00000  Uiso   1.00
O143   O     0.63662   0.17397   0.32247   0.00000  Uiso   1.00
O144   O     0.36338   0.15937   0.17753   0.00000  Uiso   1.00
O145   O     0.39764   0.16467   0.31439   0.00000  Uiso   1.00
O146   O     0.60236   0.16866   0.18561   0.00000  Uiso   1.00
Zn147  Zn    0.60366   0.17287   0.25539   0.00000  Uiso   1.00
Zn148  Zn    0.39634   0.16046   0.24460   0.00000  Uiso   1.00
C149   C     0.68125   0.26452   0.24855   0.00000  Uiso   1.00
C150   C     0.97795   0.16177   0.15969   0.00000  Uiso   1.00
C151   C     0.70117   0.17940   0.39359   0.00000  Uiso   1.00
C152   C     0.96340   0.15096   0.10833   0.00000  Uiso   1.00
C153   C     0.67022   0.19320   0.47388   0.00000  Uiso   1.00
C154   C     0.96295   0.08942   0.03823   0.00000  Uiso   1.00
C155   C     0.99120   0.18727   0.42380   0.00000  Uiso   1.00
C156   C     0.98611   0.10848   0.08398   0.00000  Uiso   1.00
C157   C     0.75643   0.17711   0.41479   0.00000  Uiso   1.00
C158   C     0.91745   0.17512   0.08704   0.00000  Uiso   1.00
C159   C     0.76336   0.16587   0.46298   0.00000  Uiso   1.00
C160   C     0.98527   0.06873   0.25015   0.00000  Uiso   1.00
C161   C     0.88637   0.14755   0.04647   0.00000  Uiso   1.00
C162   C     0.72364   0.18290   0.49385   0.00000  Uiso   1.00
C163   C     0.91306   0.10849   0.01921   0.00000  Uiso   1.00
C164   C     0.81213   0.14474   0.48197   0.00000  Uiso   1.00
C165   C     0.83095   0.15808   0.03066   0.00000  Uiso   1.00
C166   C     0.90781   0.23179   0.10541   0.00000  Uiso   1.00
C167   C     0.90517   0.26954   0.06570   0.00000  Uiso   1.00
C168   C     0.80645   0.20163   0.39230   0.00000  Uiso   1.00
C169   C     0.84226   0.24273   0.42677   0.00000  Uiso   1.00
C170   C     0.82843   0.10204   0.21575   0.00000  Uiso   1.00
C171   C     0.79269   0.17881   0.06166   0.00000  Uiso   1.00
C172   C     0.79010   0.08321   0.17034   0.00000  Uiso   1.00
C173   C     0.84666   0.23556   0.25214   0.00000  Uiso   1.00
C174   C     0.85146   0.27384   0.29702   0.00000  Uiso   1.00
C175   C     0.84129   0.10970   0.45358   0.00000  Uiso   1.00
C176   C     0.73897   0.18995   0.04346   0.00000  Uiso   1.00
C177   C     0.88986   0.08958   0.47306   0.00000  Uiso   1.00
C178   C     0.68914   0.31914   0.24840   0.00000  Uiso   1.00
C179   C     0.97749   0.01394   0.24744   0.00000  Uiso   1.00
C180   C     0.68895   0.17281   0.34080   0.00000  Uiso   1.00
H181   H     0.71028   0.20549   0.06790   0.00000  Uiso   1.00
H182   H     0.93489   0.33019   0.24403   0.00000  Uiso   1.00
H183   H     0.94476   0.27052   0.04801   0.00000  Uiso   1.00
H184   H     0.86925   0.25874   0.03835   0.00000  Uiso   1.00
H185   H     0.89989   0.30974   0.08194   0.00000  Uiso   1.00
H186   H     0.87073   0.23443   0.12599   0.00000  Uiso   1.00
H187   H     0.94332   0.24802   0.13163   0.00000  Uiso   1.00
H188   H     0.86999   0.26682   0.40628   0.00000  Uiso   1.00
H189   H     0.86978   0.22394   0.45332   0.00000  Uiso   1.00
H190   H     0.81512   0.26935   0.44608   0.00000  Uiso   1.00
H191   H     0.83296   0.17138   0.37744   0.00000  Uiso   1.00
H192   H     0.91028   0.06068   0.45147   0.00000  Uiso   1.00
H193   H     0.79068   0.22387   0.36268   0.00000  Uiso   1.00
H194   H     0.74862   0.06744   0.17837   0.00000  Uiso   1.00
H195   H     0.78499   0.11544   0.14659   0.00000  Uiso   1.00
H196   H     0.80931   0.05090   0.15002   0.00000  Uiso   1.00
H197   H     0.86928   0.10606   0.20179   0.00000  Uiso   1.00
H198   H     0.82796   0.07217   0.24242   0.00000  Uiso   1.00
H199   H     0.86340   0.31386   0.28770   0.00000  Uiso   1.00
H200   H     0.81009   0.27646   0.31115   0.00000  Uiso   1.00
H201   H     0.88354   0.26218   0.32450   0.00000  Uiso   1.00
H202   H     0.87640   0.24696   0.22675   0.00000  Uiso   1.00
H203   H     0.68805   0.08984   0.10053   0.00000  Uiso   1.00
H204   H     0.81021   0.24140   0.22734   0.00000  Uiso   1.00
H205   H     0.94865   0.19117   0.40881   0.00000  Uiso   1.00
H206   H     0.97114   0.20361   0.49664   0.00000  Uiso   1.00
H207   H     0.98255   0.05830   0.01867   0.00000  Uiso   1.00
H208   H     0.80210   0.18296   0.10018   0.00000  Uiso   1.00
H209   H     0.82482   0.09558   0.41719   0.00000  Uiso   1.00
H210   H     0.73199   0.00279   0.25049   0.00000  Uiso   1.00
N211   N     0.81362   0.15216   0.23739   0.00000  Uiso   1.00
N212   N     0.85305   0.18117   0.26260   0.00000  Uiso   1.00
O213   O     0.96386   0.24631   0.25309   0.00000  Uiso   1.00
O214   O     0.70281   0.08702   0.24691   0.00000  Uiso   1.00
O215   O     0.72488   0.23702   0.24501   0.00000  Uiso   1.00
O216   O     0.94178   0.09632   0.25498   0.00000  Uiso   1.00
O217   O     0.96995   0.17397   0.32247   0.00000  Uiso   1.00
O218   O     0.69672   0.15937   0.17753   0.00000  Uiso   1.00
O219   O     0.73098   0.16467   0.31439   0.00000  Uiso   1.00
O220   O     0.93569   0.16866   0.18561   0.00000  Uiso   1.00
Zn221  Zn    0.93700   0.17287   0.25539   0.00000  Uiso   1.00
Zn222  Zn    0.72967   0.16046   0.24460   0.00000  Uiso   1.00
C223   C     0.01459   0.59785   0.24855   0.00000  Uiso   1.00
C224   C     0.31129   0.49510   0.15969   0.00000  Uiso   1.00
C225   C     0.03450   0.51274   0.39359   0.00000  Uiso   1.00
C226   C     0.29673   0.48429   0.10833   0.00000  Uiso   1.00
C227   C     0.00355   0.52653   0.47388   0.00000  Uiso   1.00
C228   C     0.29629   0.42275   0.03823   0.00000  Uiso   1.00
C229   C     0.32453   0.52061   0.42380   0.00000  Uiso   1.00
C230   C     0.31945   0.44182   0.08398   0.00000  Uiso   1.00
C231   C     0.08976   0.51044   0.41479   0.00000  Uiso   1.00
C232   C     0.25078   0.50845   0.08704   0.00000  Uiso   1.00
C233   C     0.09670   0.49920   0.46298   0.00000  Uiso   1.00
C234   C     0.31860   0.40207   0.25015   0.00000  Uiso   1.00
C235   C     0.21970   0.48088   0.04647   0.00000  Uiso   1.00
C236   C     0.05697   0.51624   0.49385   0.00000  Uiso   1.00
C237   C     0.24639   0.44183   0.01921   0.00000  Uiso   1.00
C238   C     0.14547   0.47807   0.48197   0.00000  Uiso   1.00
C239   C     0.16429   0.49141   0.03066   0.00000  Uiso   1.00
C240   C     0.24114   0.56512   0.10541   0.00000  Uiso   1.00
C241   C     0.23851   0.60288   0.06570   0.00000  Uiso   1.00
C242   C     0.13978   0.53496   0.39230   0.00000  Uiso   1.00
C243   C     0.17560   0.57607   0.42677   0.00000  Uiso   1.00
C244   C     0.16176   0.43537   0.21575   0.00000  Uiso   1.00
C245   C     0.12602   0.51214   0.06166   0.00000  Uiso   1.00
C246   C     0.12343   0.41654   0.17034   0.00000  Uiso   1.00
C247   C     0.18000   0.56890   0.25214   0.00000  Uiso   1.00
C248   C     0.18480   0.60717   0.29702   0.00000  Uiso   1.00
C249   C     0.17462   0.44303   0.45358   0.00000  Uiso   1.00
C250   C     0.07230   0.52328   0.04346   0.00000  Uiso   1.00
C251   C     0.22319   0.42291   0.47306   0.00000  Uiso   1.00
C252   C     0.02247   0.65247   0.24840   0.00000  Uiso   1.00
C253   C     0.31083   0.34727   0.24744   0.00000  Uiso   1.00
C254   C     0.02229   0.50614   0.34080   0.00000  Uiso   1.00
H255   H     0.04362   0.53882   0.06790   0.00000  Uiso   1.00
H256   H     0.26823   0.66352   0.24403   0.00000  Uiso   1.00
H257   H     0.27809   0.60386   0.04801   0.00000  Uiso   1.00
H258   H     0.20258   0.59207   0.03835   0.00000  Uiso   1.00
H259   H     0.23322   0.64307   0.08194   0.00000  Uiso   1.00
H260   H     0.20406   0.56777   0.12599   0.00000  Uiso   1.00
H261   H     0.27666   0.58135   0.13163   0.00000  Uiso   1.00
H262   H     0.20332   0.60015   0.40628   0.00000  Uiso   1.00
H263   H     0.20311   0.55727   0.45332   0.00000  Uiso   1.00
H264   H     0.14846   0.60268   0.44608   0.00000  Uiso   1.00
H265   H     0.16629   0.50472   0.37744   0.00000  Uiso   1.00
H266   H     0.24361   0.39401   0.45147   0.00000  Uiso   1.00
H267   H     0.12401   0.55720   0.36268   0.00000  Uiso   1.00
H268   H     0.08195   0.40077   0.17837   0.00000  Uiso   1.00
H269   H     0.11832   0.44877   0.14659   0.00000  Uiso   1.00
H270   H     0.14264   0.38424   0.15002   0.00000  Uiso   1.00
H271   H     0.20262   0.43940   0.20179   0.00000  Uiso   1.00
H272   H     0.16130   0.40550   0.24242   0.00000  Uiso   1.00
H273   H     0.19674   0.64719   0.28770   0.00000  Uiso   1.00
H274   H     0.14342   0.60980   0.31115   0.00000  Uiso   1.00
H275   H     0.21687   0.59551   0.32450   0.00000  Uiso   1.00
H276   H     0.20973   0.58030   0.22675   0.00000  Uiso   1.00
H277   H     0.02138   0.42318   0.10053   0.00000  Uiso   1.00
H278   H     0.14354   0.57474   0.22734   0.00000  Uiso   1.00
H279   H     0.28199   0.52450   0.40881   0.00000  Uiso   1.00
H280   H     0.30447   0.53694   0.49664   0.00000  Uiso   1.00
H281   H     0.31589   0.39164   0.01867   0.00000  Uiso   1.00
H282   H     0.13543   0.51629   0.10018   0.00000  Uiso   1.00
H283   H     0.15815   0.42892   0.41719   0.00000  Uiso   1.00
H284   H     0.06532   0.33612   0.25049   0.00000  Uiso   1.00
N285   N     0.14695   0.48550   0.23739   0.00000  Uiso   1.00
N286   N     0.18638   0.51450   0.26260   0.00000  Uiso   1.00
O287   O     0.29719   0.57964   0.25309   0.00000  Uiso   1.00
O288   O     0.03614   0.42036   0.24691   0.00000  Uiso   1.00
O289   O     0.05822   0.57035   0.24501   0.00000  Uiso   1.00
O290   O     0.27512   0.42965   0.25498   0.00000  Uiso   1.00
O291   O     0.30328   0.50730   0.32247   0.00000  Uiso   1.00
O292   O     0.03005   0.49270   0.17753   0.00000  Uiso   1.00
O293   O     0.06431   0.49801   0.31439   0.00000  Uiso   1.00
O294   O     0.26902   0.50199   0.18561   0.00000  Uiso   1.00
Zn295  Zn    0.27033   0.50621   0.25539   0.00000  Uiso   1.00
Zn296  Zn    0.06300   0.49379   0.24460   0.00000  Uiso   1.00
C297   C     0.34792   0.59785   0.24855   0.00000  Uiso   1.00
C298   C     0.64462   0.49510   0.15969   0.00000  Uiso   1.00
C299   C     0.36784   0.51274   0.39359   0.00000  Uiso   1.00
C300   C     0.63007   0.48429   0.10833   0.00000  Uiso   1.00
C301   C     0.33689   0.52653   0.47388   0.00000  Uiso   1.00
C302   C     0.62962   0.42275   0.03823   0.00000  Uiso   1.00
C303   C     0.65787   0.52061   0.42380   0.00000  Uiso   1.00
C304   C     0.65278   0.44182   0.08398   0.00000  Uiso   1.00
C305   C     0.42309   0.51044   0.41479   0.00000  Uiso   1.00
C306   C     0.58411   0.50845   0.08704   0.00000  Uiso   1.00
C307   C     0.43003   0.49920   0.46298   0.00000  Uiso   1.00
C308   C     0.65194   0.40207   0.25015   0.00000  Uiso   1.00
C309   C     0.55303   0.48088   0.04647   0.00000  Uiso   1.00
C310   C     0.39031   0.51624   0.49385   0.00000  Uiso   1.00
C311   C     0.57972   0.44183   0.01921   0.00000  Uiso   1.00
C312   C     0.47880   0.47807   0.48197   0.00000  Uiso   1.00
C313   C     0.49762   0.49141   0.03066   0.00000  Uiso   1.00
C314   C     0.57448   0.56512   0.10541   0.00000  Uiso   1.00
C315   C     0.57184   0.60288   0.06570   0.00000  Uiso   1.00
C316   C     0.47312   0.53496   0.39230   0.00000  Uiso   1.00
C317   C     0.50893   0.57607   0.42677   0.00000  Uiso   1.00
C318   C     0.49510   0.43537   0.21575   0.00000  Uiso   1.00
C319   C     0.45936   0.51214   0.06166   0.00000  Uiso   1.00
C320   C     0.45677   0.41654   0.17034   0.00000  Uiso   1.00
C321   C     0.51333   0.56890   0.25214   0.00000  Uiso   1.00
C322   C     0.51813   0.60717   0.29702   0.00000  Uiso   1.00
C323   C     0.50796   0.44303   0.45358   0.00000  Uiso   1.00
C324   C     0.40564   0.52328   0.04346   0.00000  Uiso   1.00
C325   C     0.55652   0.42291   0.47306   0.00000  Uiso   1.00
C326   C     0.35581   0.65247   0.24840   0.00000  Uiso   1.00
C327   C     0.64416   0.34727   0.24744   0.00000  Uiso   1.00
C328   C     0.35562   0.50614   0.34080   0.00000  Uiso   1.00
H329   H     0.37695   0.53882   0.06790   0.00000  Uiso   1.00
H330   H     0.60156   0.66352   0.24403   0.00000  Uiso   1.00
H331   H     0.61143   0.60386   0.04801   0.00000  Uiso   1.00
H332   H     0.53592   0.59207   0.03835   0.00000  Uiso   1.00
H333   H     0.56655   0.64307   0.08194   0.00000  Uiso   1.00
H334   H     0.53740   0.56777   0.12599   0.00000  Uiso   1.00
H335   H     0.60999   0.58135   0.13163   0.00000  Uiso   1.00
H336   H     0.53666   0.60015   0.40628   0.00000  Uiso   1.00
H337   H     0.53644   0.55727   0.45332   0.00000  Uiso   1.00
H338   H     0.48179   0.60268   0.44608   0.00000  Uiso   1.00
H339   H     0.49962   0.50472   0.37744   0.00000  Uiso   1.00
H340   H     0.57695   0.39401   0.45147   0.00000  Uiso   1.00
H341   H     0.45735   0.55720   0.36268   0.00000  Uiso   1.00
H342   H     0.41529   0.40077   0.17837   0.00000  Uiso   1.00
H343   H     0.45166   0.44877   0.14659   0.00000  Uiso   1.00
H344   H     0.47598   0.38424   0.15002   0.00000  Uiso   1.00
H345   H     0.53595   0.43940   0.20179   0.00000  Uiso   1.00
H346   H     0.49463   0.40550   0.24242   0.00000  Uiso   1.00
H347   H     0.53007   0.64719   0.28770   0.00000  Uiso   1.00
H348   H     0.47676   0.60980   0.31115   0.00000  Uiso   1.00
H349   H     0.55021   0.59551   0.32450   0.00000  Uiso   1.00
H350   H     0.54306   0.58030   0.22675   0.00000  Uiso   1.00
H351   H     0.35471   0.42318   0.10053   0.00000  Uiso   1.00
H352   H     0.47687   0.57474   0.22734   0.00000  Uiso   1.00
H353   H     0.61532   0.52450   0.40881   0.00000  Uiso   1.00
H354   H     0.63780   0.53694   0.49664   0.00000  Uiso   1.00
H355   H     0.64922   0.39164   0.01867   0.00000  Uiso   1.00
H356   H     0.46877   0.51629   0.10018   0.00000  Uiso   1.00
H357   H     0.49149   0.42892   0.41719   0.00000  Uiso   1.00
H358   H     0.39865   0.33612   0.25049   0.00000  Uiso   1.00
N359   N     0.48029   0.48550   0.23739   0.00000  Uiso   1.00
N360   N     0.51971   0.51450   0.26260   0.00000  Uiso   1.00
O361   O     0.63052   0.57964   0.25309   0.00000  Uiso   1.00
O362   O     0.36948   0.42036   0.24691   0.00000  Uiso   1.00
O363   O     0.39155   0.57035   0.24501   0.00000  Uiso   1.00
O364   O     0.60845   0.42965   0.25498   0.00000  Uiso   1.00
O365   O     0.63662   0.50730   0.32247   0.00000  Uiso   1.00
O366   O     0.36338   0.49270   0.17753   0.00000  Uiso   1.00
O367   O     0.39764   0.49801   0.31439   0.00000  Uiso   1.00
O368   O     0.60236   0.50199   0.18561   0.00000  Uiso   1.00
Zn369  Zn    0.60366   0.50621   0.25539   0.00000  Uiso   1.00
Zn370  Zn    0.39634   0.49379   0.24460   0.00000  Uiso   1.00
C371   C     0.68125   0.59785   0.24855   0.00000  Uiso   1.00
C372   C     0.97795   0.49510   0.15969   0.00000  Uiso   1.00
C373   C     0.70117   0.51274   0.39359   0.00000  Uiso   1.00
C374   C     0.96340   0.48429   0.10833   0.00000  Uiso   1.00
C375   C     0.67022   0.52653   0.47388   0.00000  Uiso   1.00
C376   C     0.96295   0.42275   0.03823   0.00000  Uiso   1.00
C377   C     0.99120   0.52061   0.42380   0.00000  Uiso   1.00
C378   C     0.98611   0.44182   0.08398   0.00000  Uiso   1.00
C379   C     0.75643   0.51044   0.41479   0.00000  Uiso   1.00
C380   C     0.91745   0.50845   0.08704   0.00000  Uiso   1.00
C381   C     0.76336   0.49920   0.46298   0.00000  Uiso   1.00
C382   C     0.98527   0.40207   0.25015   0.00000  Uiso   1.00
C383   C     0.88637   0.48088   0.04647   0.00000  Uiso   1.00
C384   C     0.72364   0.51624   0.49385   0.00000  Uiso   1.00
C385   C     0.91306   0.44183   0.01921   0.00000  Uiso   1.00
C386   C     0.81213   0.47807   0.48197   0.00000  Uiso   1.00
C387   C     0.83095   0.49141   0.03066   0.00000  Uiso   1.00
C388   C     0.90781   0.56512   0.10541   0.00000  Uiso   1.00
C389   C     0.90517   0.60288   0.06570   0.00000  Uiso   1.00
C390   C     0.80645   0.53496   0.39230   0.00000  Uiso   1.00
C391   C     0.84226   0.57607   0.42677   0.00000  Uiso   1.00
C392   C     0.82843   0.43537   0.21575   0.00000  Uiso   1.00
C393   C     0.79269   0.51214   0.06166   0.00000  Uiso   1.00
C394   C     0.79010   0.41654   0.17034   0.00000  Uiso   1.00
C395   C     0.84666   0.56890   0.25214   0.00000  Uiso   1.00
C396   C     0.85146   0.60717   0.29702   0.00000  Uiso   1.00
C397   C     0.84129   0.44303   0.45358   0.00000  Uiso   1.00
C398   C     0.73897   0.52328   0.04346   0.00000  Uiso   1.00
C399   C     0.88986   0.42291   0.47306   0.00000  Uiso   1.00
C400   C     0.68914   0.65247   0.24840   0.00000  Uiso   1.00
C401   C     0.97749   0.34727   0.24744   0.00000  Uiso   1.00
C402   C     0.68895   0.50614   0.34080   0.00000  Uiso   1.00
H403   H     0.71028   0.53882   0.06790   0.00000  Uiso   1.00
H404   H     0.93489   0.66352   0.24403   0.00000  Uiso   1.00
H405   H     0.94476   0.60386   0.04801   0.00000  Uiso   1.00
H406   H     0.86925   0.59207   0.03835   0.00000  Uiso   1.00
H407   H     0.89989   0.64307   0.08194   0.00000  Uiso   1.00
H408   H     0.87073   0.56777   0.12599   0.00000  Uiso   1.00
H409   H     0.94332   0.58135   0.13163   0.00000  Uiso   1.00
H410   H     0.86999   0.60015   0.40628   0.00000  Uiso   1.00
H411   H     0.86978   0.55727   0.45332   0.00000  Uiso   1.00
H412   H     0.81512   0.60268   0.44608   0.00000  Uiso   1.00
H413   H     0.83296   0.50472   0.37744   0.00000  Uiso   1.00
H414   H     0.91028   0.39401   0.45147   0.00000  Uiso   1.00
H415   H     0.79068   0.55720   0.36268   0.00000  Uiso   1.00
H416   H     0.74862   0.40077   0.17837   0.00000  Uiso   1.00
H417   H     0.78499   0.44877   0.14659   0.00000  Uiso   1.00
H418   H     0.80931   0.38424   0.15002   0.00000  Uiso   1.00
H419   H     0.86928   0.43940   0.20179   0.00000  Uiso   1.00
H420   H     0.82796   0.40550   0.24242   0.00000  Uiso   1.00
H421   H     0.86340   0.64719   0.28770   0.00000  Uiso   1.00
H422   H     0.81009   0.60980   0.31115   0.00000  Uiso   1.00
H423   H     0.88354   0.59551   0.32450   0.00000  Uiso   1.00
H424   H     0.87640   0.58030   0.22675   0.00000  Uiso   1.00
H425   H     0.68805   0.42318   0.10053   0.00000  Uiso   1.00
H426   H     0.81021   0.57474   0.22734   0.00000  Uiso   1.00
H427   H     0.94865   0.52450   0.40881   0.00000  Uiso   1.00
H428   H     0.97114   0.53694   0.49664   0.00000  Uiso   1.00
H429   H     0.98255   0.39164   0.01867   0.00000  Uiso   1.00
H430   H     0.80210   0.51629   0.10018   0.00000  Uiso   1.00
H431   H     0.82482   0.42892   0.41719   0.00000  Uiso   1.00
H432   H     0.73199   0.33612   0.25049   0.00000  Uiso   1.00
N433   N     0.81362   0.48550   0.23739   0.00000  Uiso   1.00
N434   N     0.85305   0.51450   0.26260   0.00000  Uiso   1.00
O435   O     0.96386   0.57964   0.25309   0.00000  Uiso   1.00
O436   O     0.70281   0.42036   0.24691   0.00000  Uiso   1.00
O437   O     0.72488   0.57035   0.24501   0.00000  Uiso   1.00
O438   O     0.94178   0.42965   0.25498   0.00000  Uiso   1.00
O439   O     0.96995   0.50730   0.32247   0.00000  Uiso   1.00
O440   O     0.69672   0.49270   0.17753   0.00000  Uiso   1.00
O441   O     0.73098   0.49801   0.31439   0.00000  Uiso   1.00
O442   O     0.93569   0.50199   0.18561   0.00000  Uiso   1.00
Zn443  Zn    0.93700   0.50621   0.25539   0.00000  Uiso   1.00
Zn444  Zn    0.72967   0.49379   0.24460   0.00000  Uiso   1.00
C445   C     0.01459   0.93118   0.24855   0.00000  Uiso   1.00
C446   C     0.31129   0.82844   0.15969   0.00000  Uiso   1.00
C447   C     0.03450   0.84607   0.39359   0.00000  Uiso   1.00
C448   C     0.29673   0.81763   0.10833   0.00000  Uiso   1.00
C449   C     0.00355   0.85987   0.47388   0.00000  Uiso   1.00
C450   C     0.29629   0.75608   0.03823   0.00000  Uiso   1.00
C451   C     0.32453   0.85394   0.42380   0.00000  Uiso   1.00
C452   C     0.31945   0.77515   0.08398   0.00000  Uiso   1.00
C453   C     0.08976   0.84378   0.41479   0.00000  Uiso   1.00
C454   C     0.25078   0.84178   0.08704   0.00000  Uiso   1.00
C455   C     0.09670   0.83254   0.46298   0.00000  Uiso   1.00
C456   C     0.31860   0.73540   0.25015   0.00000  Uiso   1.00
C457   C     0.21970   0.81421   0.04647   0.00000  Uiso   1.00
C458   C     0.05697   0.84957   0.49385   0.00000  Uiso   1.00
C459   C     0.24639   0.77516   0.01921   0.00000  Uiso   1.00
C460   C     0.14547   0.81141   0.48197   0.00000  Uiso   1.00
C461   C     0.16429   0.82474   0.03066   0.00000  Uiso   1.00
C462   C     0.24114   0.89846   0.10541   0.00000  Uiso   1.00
C463   C     0.23851   0.93621   0.06570   0.00000  Uiso   1.00
C464   C     0.13978   0.86829   0.39230   0.00000  Uiso   1.00
C465   C     0.17560   0.90940   0.42677   0.00000  Uiso   1.00
C466   C     0.16176   0.76871   0.21575   0.00000  Uiso   1.00
C467   C     0.12602   0.84548   0.06166   0.00000  Uiso   1.00
C468   C     0.12343   0.74988   0.17034   0.00000  Uiso   1.00
C469   C     0.18000   0.90223   0.25214   0.00000  Uiso   1.00
C470   C     0.18480   0.94051   0.29702   0.00000  Uiso   1.00
C471   C     0.17462   0.77637   0.45358   0.00000  Uiso   1.00
C472   C     0.07230   0.85661   0.04346   0.00000  Uiso   1.00
C473   C     0.22319   0.75625   0.47306   0.00000  Uiso   1.00
C474   C     0.02247   0.98580   0.24840   0.00000  Uiso   1.00
C475   C     0.31083   0.68060   0.24744   0.00000  Uiso   1.00
C476   C     0.02229   0.83948   0.34080   0.00000  Uiso   1.00
H477   H     0.04362   0.87216   0.06790   0.00000  Uiso   1.00
H478   H     0.26823   0.99686   0.24403   0.00000  Uiso   1.00
H479   H     0.27809   0.93719   0.04801   0.00000  Uiso   1.00
H480   H     0.20258   0.92540   0.03835   0.00000  Uiso   1.00
H481   H     0.23322   0.97640   0.08194   0.00000  Uiso   1.00
H482   H     0.20406   0.90110   0.12599   0.00000  Uiso   1.00
H483   H     0.27666   0.91469   0.13163   0.00000  Uiso   1.00
H484   H     0.20332   0.93348   0.40628   0.00000  Uiso   1.00
H485   H     0.20311   0.89061   0.45332   0.00000  Uiso   1.00
H486   H     0.14846   0.93602   0.44608   0.00000  Uiso   1.00
H487   H     0.16629   0.83805   0.37744   0.00000  Uiso   1.00
H488   H     0.24361   0.72734   0.45147   0.00000  Uiso   1.00
H489   H     0.12401   0.89054   0.36268   0.00000  Uiso   1.00
H490   H     0.08195   0.73410   0.17837   0.00000  Uiso   1.00
H491   H     0.11832   0.78210   0.14659   0.00000  Uiso   1.00
H492   H     0.14264   0.71757   0.15002   0.00000  Uiso   1.00
H493   H     0.20262   0.77273   0.20179   0.00000  Uiso   1.00
H494   H     0.16130   0.73884   0.24242   0.00000  Uiso   1.00
H495   H     0.19674   0.98053   0.28770   0.00000  Uiso   1.00
H496   H     0.14342   0.94313   0.31115   0.00000  Uiso   1.00
H497   H     0.21687   0.92884   0.32450   0.00000  Uiso   1.00
H498   H     0.20973   0.91363   0.22675   0.00000  Uiso   1.00
H499   H     0.02138   0.75651   0.10053   0.00000  Uiso   1.00
H500   H     0.14354   0.90807   0.22734   0.00000  Uiso   1.00
H501   H     0.28199   0.85783   0.40881   0.00000  Uiso   1.00
H502   H     0.30447   0.87027   0.49664   0.00000  Uiso   1.00
H503   H     0.31589   0.72497   0.01867   0.00000  Uiso   1.00
H504   H     0.13543   0.84963   0.10018   0.00000  Uiso   1.00
H505   H     0.15815   0.76225   0.41719   0.00000  Uiso   1.00
H506   H     0.06532   0.66945   0.25049   0.00000  Uiso   1.00
N507   N     0.14695   0.81883   0.23739   0.00000  Uiso   1.00
N508   N     0.18638   0.84784   0.26260   0.00000  Uiso   1.00
O509   O     0.29719   0.91298   0.25309   0.00000  Uiso   1.00
O510   O     0.03614   0.75369   0.24691   0.00000  Uiso   1.00
O511   O     0.05822   0.90368   0.24501   0.00000  Uiso   1.00
O512   O     0.27512   0.76298   0.25498   0.00000  Uiso   1.00
O513   O     0.30328   0.84063   0.32247   0.00000  Uiso   1.00
O514   O     0.03005   0.82603   0.17753   0.00000  Uiso   1.00
O515   O     0.06431   0.83134   0.31439   0.00000  Uiso   1.00
O516   O     0.26902   0.83533   0.18561   0.00000  Uiso   1.00
Zn517  Zn    0.27033   0.83954   0.25539   0.00000  Uiso   1.00
Zn518  Zn    0.06300   0.82713   0.24460   0.00000  Uiso   1.00
C519   C     0.34792   0.93118   0.24855   0.00000  Uiso   1.00
C520   C     0.64462   0.82844   0.15969   0.00000  Uiso   1.00
C521   C     0.36784   0.84607   0.39359   0.00000  Uiso   1.00
C522   C     0.63007   0.81763   0.10833   0.00000  Uiso   1.00
C523   C     0.33689   0.85987   0.47388   0.00000  Uiso   1.00
C524   C     0.62962   0.75608   0.03823   0.00000  Uiso   1.00
C525   C     0.65787   0.85394   0.42380   0.00000  Uiso   1.00
C526   C     0.65278   0.77515   0.08398   0.00000  Uiso   1.00
C527   C     0.42309   0.84378   0.41479   0.00000  Uiso   1.00
C528   C     0.58411   0.84178   0.08704   0.00000  Uiso   1.00
C529   C     0.43003   0.83254   0.46298   0.00000  Uiso   1.00
C530   C     0.65194   0.73540   0.25015   0.00000  Uiso   1.00
C531   C     0.55303   0.81421   0.04647   0.00000  Uiso   1.00
C532   C     0.39031   0.84957   0.49385   0.00000  Uiso   1.00
C533   C     0.57972   0.77516   0.01921   0.00000  Uiso   1.00
C534   C     0.47880   0.81141   0.48197   0.00000  Uiso   1.00
C535   C     0.49762   0.82474   0.03066   0.00000  Uiso   1.00
C536   C     0.57448   0.89846   0.10541   0.00000  Uiso   1.00
C537   C     0.57184   0.93621   0.06570   0.00000  Uiso   1.00
C538   C     0.47312   0.86829   0.39230   0.00000  Uiso   1.00
C539   C     0.50893   0.90940   0.42677   0.00000  Uiso   1.00
C540   C     0.49510   0.76871   0.21575   0.00000  Uiso   1.00
C541   C     0.45936   0.84548   0.06166   0.00000  Uiso   1.00
C542   C     0.45677   0.74988   0.17034   0.00000  Uiso   1.00
C543   C     0.51333   0.90223   0.25214   0.00000  Uiso   1.00
C544   C     0.51813   0.94051   0.29702   0.00000  Uiso   1.00
C545   C     0.50796   0.77637   0.45358   0.00000  Uiso   1.00
C546   C     0.40564   0.85661   0.04346   0.00000  Uiso   1.00
C547   C     0.55652   0.75625   0.47306   0.00000  Uiso   1.00
C548   C     0.35581   0.98580   0.24840   0.00000  Uiso   1.00
C549   C     0.64416   0.68060   0.24744   0.00000  Uiso   1.00
C550   C     0.35562   0.83948   0.34080   0.00000  Uiso   1.00
H551   H     0.37695   0.87216   0.06790   0.00000  Uiso   1.00
H552   H     0.60156   0.99686   0.24403   0.00000  Uiso   1.00
H553   H     0.61143   0.93719   0.04801   0.00000  Uiso   1.00
H554   H     0.53592   0.92540   0.03835   0.00000  Uiso   1.00
H555   H     0.56655   0.97640   0.08194   0.00000  Uiso   1.00
H556   H     0.53740   0.90110   0.12599   0.00000  Uiso   1.00
H557   H     0.60999   0.91469   0.13163   0.00000  Uiso   1.00
H558   H     0.53666   0.93348   0.40628   0.00000  Uiso   1.00
H559   H     0.53644   0.89061   0.45332   0.00000  Uiso   1.00
H560   H     0.48179   0.93602   0.44608   0.00000  Uiso   1.00
H561   H     0.49962   0.83805   0.37744   0.00000  Uiso   1.00
H562   H     0.57695   0.72734   0.45147   0.00000  Uiso   1.00
H563   H     0.45735   0.89054   0.36268   0.00000  Uiso   1.00
H564   H     0.41529   0.73410   0.17837   0.00000  Uiso   1.00
H565   H     0.45166   0.78210   0.14659   0.00000  Uiso   1.00
H566   H     0.47598   0.71757   0.15002   0.00000  Uiso   1.00
H567   H     0.53595   0.77273   0.20179   0.00000  Uiso   1.00
H568   H     0.49463   0.73884   0.24242   0.00000  Uiso   1.00
H569   H     0.53007   0.98053   0.28770   0.00000  Uiso   1.00
H570   H     0.47676   0.94313   0.31115   0.00000  Uiso   1.00
H571   H     0.55021   0.92884   0.32450   0.00000  Uiso   1.00
H572   H     0.54306   0.91363   0.22675   0.00000  Uiso   1.00
H573   H     0.35471   0.75651   0.10053   0.00000  Uiso   1.00
H574   H     0.47687   0.90807   0.22734   0.00000  Uiso   1.00
H575   H     0.61532   0.85783   0.40881   0.00000  Uiso   1.00
H576   H     0.63780   0.87027   0.49664   0.00000  Uiso   1.00
H577   H     0.64922   0.72497   0.01867   0.00000  Uiso   1.00
H578   H     0.46877   0.84963   0.10018   0.00000  Uiso   1.00
H579   H     0.49149   0.76225   0.41719   0.00000  Uiso   1.00
H580   H     0.39865   0.66945   0.25049   0.00000  Uiso   1.00
N581   N     0.48029   0.81883   0.23739   0.00000  Uiso   1.00
N582   N     0.51971   0.84784   0.26260   0.00000  Uiso   1.00
O583   O     0.63052   0.91298   0.25309   0.00000  Uiso   1.00
O584   O     0.36948   0.75369   0.24691   0.00000  Uiso   1.00
O585   O     0.39155   0.90368   0.24501   0.00000  Uiso   1.00
O586   O     0.60845   0.76298   0.25498   0.00000  Uiso   1.00
O587   O     0.63662   0.84063   0.32247   0.00000  Uiso   1.00
O588   O     0.36338   0.82603   0.17753   0.00000  Uiso   1.00
O589   O     0.39764   0.83134   0.31439   0.00000  Uiso   1.00
O590   O     0.60236   0.83533   0.18561   0.00000  Uiso   1.00
Zn591  Zn    0.60366   0.83954   0.25539   0.00000  Uiso   1.00
Zn592  Zn    0.39634   0.82713   0.24460   0.00000  Uiso   1.00
C593   C     0.68125   0.93118   0.24855   0.00000  Uiso   1.00
C594   C     0.97795   0.82844   0.15969   0.00000  Uiso   1.00
C595   C     0.70117   0.84607   0.39359   0.00000  Uiso   1.00
C596   C     0.96340   0.81763   0.10833   0.00000  Uiso   1.00
C597   C     0.67022   0.85987   0.47388   0.00000  Uiso   1.00
C598   C     0.96295   0.75608   0.03823   0.00000  Uiso   1.00
C599   C     0.99120   0.85394   0.42380   0.00000  Uiso   1.00
C600   C     0.98611   0.77515   0.08398   0.00000  Uiso   1.00
C601   C     0.75643   0.84378   0.41479   0.00000  Uiso   1.00
C602   C     0.91745   0.84178   0.08704   0.00000  Uiso   1.00
C603   C     0.76336   0.83254   0.46298   0.00000  Uiso   1.00
C604   C     0.98527   0.73540   0.25015   0.00000  Uiso   1.00
C605   C     0.88637   0.81421   0.04647   0.00000  Uiso   1.00
C606   C     0.72364   0.84957   0.49385   0.00000  Uiso   1.00
C607   C     0.91306   0.77516   0.01921   0.00000  Uiso   1.00
C608   C     0.81213   0.81141   0.48197   0.00000  Uiso   1.00
C609   C     0.83095   0.82474   0.03066   0.00000  Uiso   1.00
C610   C     0.90781   0.89846   0.10541   0.00000  Uiso   1.00
C611   C     0.90517   0.93621   0.06570   0.00000  Uiso   1.00
C612   C     0.80645   0.86829   0.39230   0.00000  Uiso   1.00
C613   C     0.84226   0.90940   0.42677   0.00000  Uiso   1.00
C614   C     0.82843   0.76871   0.21575   0.00000  Uiso   1.00
C615   C     0.79269   0.84548   0.06166   0.00000  Uiso   1.00
C616   C     0.79010   0.74988   0.17034   0.00000  Uiso   1.00
C617   C     0.84666   0.90223   0.25214   0.00000  Uiso   1.00
C618   C     0.85146   0.94051   0.29702   0.00000  Uiso   1.00
C619   C     0.84129   0.77637   0.45358   0.00000  Uiso   1.00
C620   C     0.73897   0.85661   0.04346   0.00000  Uiso   1.00
C621   C     0.88986   0.75625   0.47306   0.00000  Uiso   1.00
C622   C     0.68914   0.98580   0.24840   0.00000  Uiso   1.00
C623   C     0.97749   0.68060   0.24744   0.00000  Uiso   1.00
C624   C     0.68895   0.83948   0.34080   0.00000  Uiso   1.00
H625   H     0.71028   0.87216   0.06790   0.00000  Uiso   1.00
H626   H     0.93489   0.99686   0.24403   0.00000  Uiso   1.00
H627   H     0.94476   0.93719   0.04801   0.00000  Uiso   1.00
H628   H     0.86925   0.92540   0.03835   0.00000  Uiso   1.00
H629   H     0.89989   0.97640   0.08194   0.00000  Uiso   1.00
H630   H     0.87073   0.90110   0.12599   0.00000  Uiso   1.00
H631   H     0.94332   0.91469   0.13163   0.00000  Uiso   1.00
H632   H     0.86999   0.93348   0.40628   0.00000  Uiso   1.00
H633   H     0.86978   0.89061   0.45332   0.00000  Uiso   1.00
H634   H     0.81512   0.93602   0.44608   0.00000  Uiso   1.00
H635   H     0.83296   0.83805   0.37744   0.00000  Uiso   1.00
H636   H     0.91028   0.72734   0.45147   0.00000  Uiso   1.00
H637   H     0.79068   0.89054   0.36268   0.00000  Uiso   1.00
H638   H     0.74862   0.73410   0.17837   0.00000  Uiso   1.00
H639   H     0.78499   0.78210   0.14659   0.00000  Uiso   1.00
H640   H     0.80931   0.71757   0.15002   0.00000  Uiso   1.00
H641   H     0.86928   0.77273   0.20179   0.00000  Uiso   1.00
H642   H     0.82796   0.73884   0.24242   0.00000  Uiso   1.00
H643   H     0.86340   0.98053   0.28770   0.00000  Uiso   1.00
H644   H     0.81009   0.94313   0.31115   0.00000  Uiso   1.00
H645   H     0.88354   0.92884   0.32450   0.00000  Uiso   1.00
H646   H     0.87640   0.91363   0.22675   0.00000  Uiso   1.00
H647   H     0.68805   0.75651   0.10053   0.00000  Uiso   1.00
H648   H     0.81021   0.90807   0.22734   0.00000  Uiso   1.00
H649   H     0.94865   0.85783   0.40881   0.00000  Uiso   1.00
H650   H     0.97114   0.87027   0.49664   0.00000  Uiso   1.00
H651   H     0.98255   0.72497   0.01867   0.00000  Uiso   1.00
H652   H     0.80210   0.84963   0.10018   0.00000  Uiso   1.00
H653   H     0.82482   0.76225   0.41719   0.00000  Uiso   1.00
H654   H     0.73199   0.66945   0.25049   0.00000  Uiso   1.00
N655   N     0.81362   0.81883   0.23739   0.00000  Uiso   1.00
N656   N     0.85305   0.84784   0.26260   0.00000  Uiso   1.00
O657   O     0.96386   0.91298   0.25309   0.00000  Uiso   1.00
O658   O     0.70281   0.75369   0.24691   0.00000  Uiso   1.00
O659   O     0.72488   0.90368   0.24501   0.00000  Uiso   1.00
O660   O     0.94178   0.76298   0.25498   0.00000  Uiso   1.00
O661   O     0.96995   0.84063   0.32247   0.00000  Uiso   1.00
O662   O     0.69672   0.82603   0.17753   0.00000  Uiso   1.00
O663   O     0.73098   0.83134   0.31439   0.00000  Uiso   1.00
O664   O     0.93569   0.83533   0.18561   0.00000  Uiso   1.00
Zn665  Zn    0.93700   0.83954   0.25539   0.00000  Uiso   1.00
Zn666  Zn    0.72967   0.82713   0.24460   0.00000  Uiso   1.00
C667   C     0.01459   0.26452   0.74855   0.00000  Uiso   1.00
C668   C     0.31129   0.16177   0.65969   0.00000  Uiso   1.00
C669   C     0.03450   0.17940   0.89359   0.00000  Uiso   1.00
C670   C     0.29673   0.15096   0.60833   0.00000  Uiso   1.00
C671   C     0.00355   0.19320   0.97388   0.00000  Uiso   1.00
C672   C     0.29629   0.08942   0.53823   0.00000  Uiso   1.00
C673   C     0.32453   0.18727   0.92380   0.00000  Uiso   1.00
C674   C     0.31945   0.10848   0.58398   0.00000  Uiso   1.00
C675   C     0.08976   0.17711   0.91479   0.00000  Uiso   1.00
C676   C     0.25078   0.17512   0.58704   0.00000  Uiso   1.00
C677   C     0.09670   0.16587   0.96298   0.00000  Uiso   1.00
C678   C     0.31860   0.06873   0.75015   0.00000  Uiso   1.00
C679   C     0.21970   0.14755   0.54647   0.00000  Uiso   1.00
C680   C     0.05697   0.18290   0.99385   0.00000  Uiso   1.00
C681   C     0.24639   0.10849   0.51921   0.00000  Uiso   1.00
C682   C     0.14547   0.14474   0.98197   0.00000  Uiso   1.00
C683   C     0.16429   0.15808   0.53066   0.00000  Uiso   1.00
C684   C     0.24114   0.23179   0.60541   0.00000  Uiso   1.00
C685   C     0.23851   0.26954   0.56570   0.00000  Uiso   1.00
C686   C     0.13978   0.20163   0.89230   0.00000  Uiso   1.00
C687   C     0.17560   0.24273   0.92677   0.00000  Uiso   1.00
C688   C     0.16176   0.10204   0.71575   0.00000  Uiso   1.00
C689   C     0.12602   0.17881   0.56166   0.00000  Uiso   1.00
C690   C     0.12343   0.08321   0.67034   0.00000  Uiso   1.00
C691   C     0.18000   0.23556   0.75214   0.00000  Uiso   1.00
C692   C     0.18480   0.27384   0.79702   0.00000  Uiso   1.00
C693   C     0.17462   0.10970   0.95358   0.00000  Uiso   1.00
C694   C     0.07230   0.18995   0.54346   0.00000  Uiso   1.00
C695   C     0.22319   0.08958   0.97306   0.00000  Uiso   1.00
C696   C     0.02247   0.31914   0.74840   0.00000  Uiso   1.00
C697   C     0.31083   0.01394   0.74744   0.00000  Uiso   1.00
C698   C     0.02229   0.17281   0.84080   0.00000  Uiso   1.00
H699   H     0.04362   0.20549   0.56790   0.00000  Uiso   1.00
H700   H     0.26823   0.33019   0.74403   0.00000  Uiso   1.00
H701   H     0.27809   0.27052   0.54801   0.00000  Uiso   1.00
H702   H     0.20258   0.25874   0.53835   0.00000  Uiso   1.00
H703   H     0.23322   0.30974   0.58194   0.00000  Uiso   1.00
H704   H     0.20406   0.23443   0.62599   0.00000  Uiso   1.00
H705   H     0.27666   0.24802   0.63163   0.00000  Uiso   1.00
H706   H     0.20332   0.26682   0.90628   0.00000  Uiso   1.00
H707   H     0.20311   0.22394   0.95332   0.00000  Uiso   1.00
H708   H     0.14846   0.26935   0.94608   0.00000  Uiso   1.00
H709   H     0.16629   0.17138   0.87744   0.00000  Uiso   1.00
H710   H     0.24361   0.06068   0.95147   0.00000  Uiso   1.00
H711   H     0.12401   0.22387   0.86268   0.00000  Uiso   1.00
H712   H     0.08195   0.06744   0.67837   0.00000  Uiso   1.00
H713   H     0.11832   0.11544   0.64659   0.00000  Uiso   1.00
H714   H     0.14264   0.05090   0.65002   0.00000  Uiso   1.00
H715   H     0.20262   0.10606   0.70179   0.00000  Uiso   1.00
H716   H     0.16130   0.07217   0.74242   0.00000  Uiso   1.00
H717   H     0.19674   0.31386   0.78770   0.00000  Uiso   1.00
H718   H     0.14342   0.27646   0.81115   0.00000  Uiso   1.00
H719   H     0.21687   0.26218   0.82450   0.00000  Uiso   1.00
H720   H     0.20973   0.24696   0.72675   0.00000  Uiso   1.00
H721   H     0.02138   0.08984   0.60053   0.00000  Uiso   1.00
H722   H     0.14354   0.24140   0.72734   0.00000  Uiso   1.00
H723   H     0.28199   0.19117   0.90881   0.00000  Uiso   1.00
H724   H     0.30447   0.20361   0.99664   0.00000  Uiso   1.00
H725   H     0.31589   0.05830   0.51867   0.00000  Uiso   1.00
H726   H     0.13543   0.18296   0.60018   0.00000  Uiso   1.00
H727   H     0.15815   0.09558   0.91719   0.00000  Uiso   1.00
H728   H     0.06532   0.00279   0.75049   0.00000  Uiso   1.00
N729   N     0.14695   0.15216   0.73739   0.00000  Uiso   1.00
N730   N     0.18638   0.18117   0.76260   0.00000  Uiso   1.00
O731   O     0.29719   0.24631   0.75309   0.00000  Uiso   1.00
O732   O     0.03614   0.08702   0.74691   0.00000  Uiso   1.00
O733   O     0.05822   0.23702   0.74501   0.00000  Uiso   1.00
O734   O     0.27512   0.09632   0.75498   0.00000  Uiso   1.00
O735   O     0.30328   0.17397   0.82247   0.00000  Uiso   1.00
O736   O     0.03005   0.15937   0.67753   0.00000  Uiso   1.00
O737   O     0.06431   0.16467   0.81439   0.00000  Uiso   1.00
O738   O     0.26902   0.16866   0.68561   0.00000  Uiso   1.00
Zn739  Zn    0.27033   0.17287   0.75539   0.00000  Uiso   1.00
Zn740  Zn    0.06300   0.16046   0.74460   0.00000  Uiso   1.00
C741   C     0.34792   0.26452   0.74855   0.00000  Uiso   1.00
C742   C     0.64462   0.16177   0.65969   0.00000  Uiso   1.00
C743   C     0.36784   0.17940   0.89359   0.00000  Uiso   1.00
C744   C     0.63007   0.15096   0.60833   0.00000  Uiso   1.00
C745   C     0.33689   0.19320   0.97388   0.00000  Uiso   1.00
C746   C     0.62962   0.08942   0.53823   0.00000  Uiso   1.00
C747   C     0.65787   0.18727   0.92380   0.00000  Uiso   1.00
C748   C     0.65278   0.10848   0.58398   0.00000  Uiso   1.00
C749   C     0.42309   0.17711   0.91479   0.00000  Uiso   1.00
C750   C     0.58411   0.17512   0.58704   0.00000  Uiso   1.00
C751   C     0.43003   0.16587   0.96298   0.00000  Uiso   1.00
C752   C     0.65194   0.06873   0.75015   0.00000  Uiso   1.00
C753   C     0.55303   0.14755   0.54647   0.00000  Uiso   1.00
C754   C     0.39031   0.18290   0.99385   0.00000  Uiso   1.00
C755   C     0.57972   0.10849   0.51921   0.00000  Uiso   1.00
C756   C     0.47880   0.14474   0.98197   0.00000  Uiso   1.00
C757   C     0.49762   0.15808   0.53066   0.00000  Uiso   1.00
C758   C     0.57448   0.23179   0.60541   0.00000  Uiso   1.00
C759   C     0.57184   0.26954   0.56570   0.00000  Uiso   1.00
C760   C     0.47312   0.20163   0.89230   0.00000  Uiso   1.00
C761   C     0.50893   0.24273   0.92677   0.00000  Uiso   1.00
C762   C     0.49510   0.10204   0.71575   0.00000  Uiso   1.00
C763   C     0.45936   0.17881   0.56166   0.00000  Uiso   1.00
C764   C     0.45677   0.08321   0.67034   0.00000  Uiso   1.00
C765   C     0.51333   0.23556   0.75214   0.00000  Uiso   1.00
C766   C     0.51813   0.27384   0.79702   0.00000  Uiso   1.00
C767   C     0.50796   0.10970   0.95358   0.00000  Uiso   1.00
C768   C     0.40564   0.18995   0.54346   0.00000  Uiso   1.00
C769   C     0.55652   0.08958   0.97306   0.00000  Uiso   1.00
C770   C     0.35581   0.31914   0.74840   0.00000  Uiso   1.00
C771   C     0.64416   0.01394   0.74744   0.00000  Uiso   1.00
C772   C     0.35562   0.17281   0.84080   0.00000  Uiso   1.00
H773   H     0.37695   0.20549   0.56790   0.00000  Uiso   1.00
H774   H     0.60156   0.33019   0.74403   0.00000  Uiso   1.00
H775   H     0.61143   0.27052   0.54801   0.00000  Uiso   1.00
H776   H     0.53592   0.25874   0.53835   0.00000  Uiso   1.00
H777   H     0.56655   0.30974   0.58194   0.00000  Uiso   1.00
H778   H     0.53740   0.23443   0.62599   0.00000  Uiso   1.00
H779   H     0.60999   0.24802   0.63163   0.00000  Uiso   1.00
H780   H     0.53666   0.26682   0.90628   0.00000  Uiso   1.00
H781   H     0.53644   0.22394   0.95332   0.00000  Uiso   1.00
H782   H     0.48179   0.26935   0.94608   0.00000  Uiso   1.00
H783   H     0.49962   0.17138   0.87744   0.00000  Uiso   1.00
H784   H     0.57695   0.06068   0.95147   0.00000  Uiso   1.00
H785   H     0.45735   0.22387   0.86268   0.00000  Uiso   1.00
H786   H     0.41529   0.06744   0.67837   0.00000  Uiso   1.00
H787   H     0.45166   0.11544   0.64659   0.00000  Uiso   1.00
H788   H     0.47598   0.05090   0.65002   0.00000  Uiso   1.00
H789   H     0.53595   0.10606   0.70179   0.00000  Uiso   1.00
H790   H     0.49463   0.07217   0.74242   0.00000  Uiso   1.00
H791   H     0.53007   0.31386   0.78770   0.00000  Uiso   1.00
H792   H     0.47676   0.27646   0.81115   0.00000  Uiso   1.00
H793   H     0.55021   0.26218   0.82450   0.00000  Uiso   1.00
H794   H     0.54306   0.24696   0.72675   0.00000  Uiso   1.00
H795   H     0.35471   0.08984   0.60053   0.00000  Uiso   1.00
H796   H     0.47687   0.24140   0.72734   0.00000  Uiso   1.00
H797   H     0.61532   0.19117   0.90881   0.00000  Uiso   1.00
H798   H     0.63780   0.20361   0.99664   0.00000  Uiso   1.00
H799   H     0.64922   0.05830   0.51867   0.00000  Uiso   1.00
H800   H     0.46877   0.18296   0.60018   0.00000  Uiso   1.00
H801   H     0.49149   0.09558   0.91719   0.00000  Uiso   1.00
H802   H     0.39865   0.00279   0.75049   0.00000  Uiso   1.00
N803   N     0.48029   0.15216   0.73739   0.00000  Uiso   1.00
N804   N     0.51971   0.18117   0.76260   0.00000  Uiso   1.00
O805   O     0.63052   0.24631   0.75309   0.00000  Uiso   1.00
O806   O     0.36948   0.08702   0.74691   0.00000  Uiso   1.00
O807   O     0.39155   0.23702   0.74501   0.00000  Uiso   1.00
O808   O     0.60845   0.09632   0.75498   0.00000  Uiso   1.00
O809   O     0.63662   0.17397   0.82247   0.00000  Uiso   1.00
O810   O     0.36338   0.15937   0.67753   0.00000  Uiso   1.00
O811   O     0.39764   0.16467   0.81439   0.00000  Uiso   1.00
O812   O     0.60236   0.16866   0.68561   0.00000  Uiso   1.00
Zn813  Zn    0.60366   0.17287   0.75539   0.00000  Uiso   1.00
Zn814  Zn    0.39634   0.16046   0.74460   0.00000  Uiso   1.00
C815   C     0.68125   0.26452   0.74855   0.00000  Uiso   1.00
C816   C     0.97795   0.16177   0.65969   0.00000  Uiso   1.00
C817   C     0.70117   0.17940   0.89359   0.00000  Uiso   1.00
C818   C     0.96340   0.15096   0.60833   0.00000  Uiso   1.00
C819   C     0.67022   0.19320   0.97388   0.00000  Uiso   1.00
C820   C     0.96295   0.08942   0.53823   0.00000  Uiso   1.00
C821   C     0.99120   0.18727   0.92380   0.00000  Uiso   1.00
C822   C     0.98611   0.10848   0.58398   0.00000  Uiso   1.00
C823   C     0.75643   0.17711   0.91479   0.00000  Uiso   1.00
C824   C     0.91745   0.17512   0.58704   0.00000  Uiso   1.00
C825   C     0.76336   0.16587   0.96298   0.00000  Uiso   1.00
C826   C     0.98527   0.06873   0.75015   0.00000  Uiso   1.00
C827   C     0.88637   0.14755   0.54647   0.00000  Uiso   1.00
C828   C     0.72364   0.18290   0.99385   0.00000  Uiso   1.00
C829   C     0.91306   0.10849   0.51921   0.00000  Uiso   1.00
C830   C     0.81213   0.14474   0.98197   0.00000  Uiso   1.00
C831   C     0.83095   0.15808   0.53066   0.00000  Uiso   1.00
C832   C     0.90781   0.23179   0.60541   0.00000  Uiso   1.00
C833   C     0.90517   0.26954   0.56570   0.00000  Uiso   1.00
C834   C     0.80645   0.20163   0.89230   0.00000  Uiso   1.00
C835   C     0.84226   0.24273   0.92677   0.00000  Uiso   1.00
C836   C     0.82843   0.10204   0.71575   0.00000  Uiso   1.00
C837   C     0.79269   0.17881   0.56166   0.00000  Uiso   1.00
C838   C     0.79010   0.08321   0.67034   0.00000  Uiso   1.00
C839   C     0.84666   0.23556   0.75214   0.00000  Uiso   1.00
C840   C     0.85146   0.27384   0.79702   0.00000  Uiso   1.00
C841   C     0.84129   0.10970   0.95358   0.00000  Uiso   1.00
C842   C     0.73897   0.18995   0.54346   0.00000  Uiso   1.00
C843   C     0.88986   0.08958   0.97306   0.00000  Uiso   1.00
C844   C     0.68914   0.31914   0.74840   0.00000  Uiso   1.00
C845   C     0.97749   0.01394   0.74744   0.00000  Uiso   1.00
C846   C     0.68895   0.17281   0.84080   0.00000  Uiso   1.00
H847   H     0.71028   0.20549   0.56790   0.00000  Uiso   1.00
H848   H     0.93489   0.33019   0.74403   0.00000  Uiso   1.00
H849   H     0.94476   0.27052   0.54801   0.00000  Uiso   1.00
H850   H     0.86925   0.25874   0.53835   0.00000  Uiso   1.00
H851   H     0.89989   0.30974   0.58194   0.00000  Uiso   1.00
H852   H     0.87073   0.23443   0.62599   0.00000  Uiso   1.00
H853   H     0.94332   0.24802   0.63163   0.00000  Uiso   1.00
H854   H     0.86999   0.26682   0.90628   0.00000  Uiso   1.00
H855   H     0.86978   0.22394   0.95332   0.00000  Uiso   1.00
H856   H     0.81512   0.26935   0.94608   0.00000  Uiso   1.00
H857   H     0.83296   0.17138   0.87744   0.00000  Uiso   1.00
H858   H     0.91028   0.06068   0.95147   0.00000  Uiso   1.00
H859   H     0.79068   0.22387   0.86268   0.00000  Uiso   1.00
H860   H     0.74862   0.06744   0.67837   0.00000  Uiso   1.00
H861   H     0.78499   0.11544   0.64659   0.00000  Uiso   1.00
H862   H     0.80931   0.05090   0.65002   0.00000  Uiso   1.00
H863   H     0.86928   0.10606   0.70179   0.00000  Uiso   1.00
H864   H     0.82796   0.07217   0.74242   0.00000  Uiso   1.00
H865   H     0.86340   0.31386   0.78770   0.00000  Uiso   1.00
H866   H     0.81009   0.27646   0.81115   0.00000  Uiso   1.00
H867   H     0.88354   0.26218   0.82450   0.00000  Uiso   1.00
H868   H     0.87640   0.24696   0.72675   0.00000  Uiso   1.00
H869   H     0.68805   0.08984   0.60053   0.00000  Uiso   1.00
H870   H     0.81021   0.24140   0.72734   0.00000  Uiso   1.00
H871   H     0.94865   0.19117   0.90881   0.00000  Uiso   1.00
H872   H     0.97114   0.20361   0.99664   0.00000  Uiso   1.00
H873   H     0.98255   0.05830   0.51867   0.00000  Uiso   1.00
H874   H     0.80210   0.18296   0.60018   0.00000  Uiso   1.00
H875   H     0.82482   0.09558   0.91719   0.00000  Uiso   1.00
H876   H     0.73199   0.00279   0.75049   0.00000  Uiso   1.00
N877   N     0.81362   0.15216   0.73739   0.00000  Uiso   1.00
N878   N     0.85305   0.18117   0.76260   0.00000  Uiso   1.00
O879   O     0.96386   0.24631   0.75309   0.00000  Uiso   1.00
O880   O     0.70281   0.08702   0.74691   0.00000  Uiso   1.00
O881   O     0.72488   0.23702   0.74501   0.00000  Uiso   1.00
O882   O     0.94178   0.09632   0.75498   0.00000  Uiso   1.00
O883   O     0.96995   0.17397   0.82247   0.00000  Uiso   1.00
O884   O     0.69672   0.15937   0.67753   0.00000  Uiso   1.00
O885   O     0.73098   0.16467   0.81439   0.00000  Uiso   1.00
O886   O     0.93569   0.16866   0.68561   0.00000  Uiso   1.00
Zn887  Zn    0.93700   0.17287   0.75539   0.00000  Uiso   1.00
Zn888  Zn    0.72967   0.16046   0.74460   0.00000  Uiso   1.00
C889   C     0.01459   0.59785   0.74855   0.00000  Uiso   1.00
C890   C     0.31129   0.49510   0.65969   0.00000  Uiso   1.00
C891   C     0.03450   0.51274   0.89359   0.00000  Uiso   1.00
C892   C     0.29673   0.48429   0.60833   0.00000  Uiso   1.00
C893   C     0.00355   0.52653   0.97388   0.00000  Uiso   1.00
C894   C     0.29629   0.42275   0.53823   0.00000  Uiso   1.00
C895   C     0.32453   0.52061   0.92380   0.00000  Uiso   1.00
C896   C     0.31945   0.44182   0.58398   0.00000  Uiso   1.00
C897   C     0.08976   0.51044   0.91479   0.00000  Uiso   1.00
C898   C     0.25078   0.50845   0.58704   0.00000  Uiso   1.00
C899   C     0.09670   0.49920   0.96298   0.00000  Uiso   1.00
C900   C     0.31860   0.40207   0.75015   0.00000  Uiso   1.00
C901   C     0.21970   0.48088   0.54647   0.00000  Uiso   1.00
C902   C     0.05697   0.51624   0.99385   0.00000  Uiso   1.00
C903   C     0.24639   0.44183   0.51921   0.00000  Uiso   1.00
C904   C     0.14547   0.47807   0.98197   0.00000  Uiso   1.00
C905   C     0.16429   0.49141   0.53066   0.00000  Uiso   1.00
C906   C     0.24114   0.56512   0.60541   0.00000  Uiso   1.00
C907   C     0.23851   0.60288   0.56570   0.00000  Uiso   1.00
C908   C     0.13978   0.53496   0.89230   0.00000  Uiso   1.00
C909   C     0.17560   0.57607   0.92677   0.00000  Uiso   1.00
C910   C     0.16176   0.43537   0.71575   0.00000  Uiso   1.00
C911   C     0.12602   0.51214   0.56166   0.00000  Uiso   1.00
C912   C     0.12343   0.41654   0.67034   0.00000  Uiso   1.00
C913   C     0.18000   0.56890   0.75214   0.00000  Uiso   1.00
C914   C     0.18480   0.60717   0.79702   0.00000  Uiso   1.00
C915   C     0.17462   0.44303   0.95358   0.00000  Uiso   1.00
C916   C     0.07230   0.52328   0.54346   0.00000  Uiso   1.00
C917   C     0.22319   0.42291   0.97306   0.00000  Uiso   1.00
C918   C     0.02247   0.65247   0.74840   0.00000  Uiso   1.00
C919   C     0.31083   0.34727   0.74744   0.00000  Uiso   1.00
C920   C     0.02229   0.50614   0.84080   0.00000  Uiso   1.00
H921   H     0.04362   0.53882   0.56790   0.00000  Uiso   1.00
H922   H     0.26823   0.66352   0.74403   0.00000  Uiso   1.00
H923   H     0.27809   0.60386   0.54801   0.00000  Uiso   1.00
H924   H     0.20258   0.59207   0.53835   0.00000  Uiso   1.00
H925   H     0.23322   0.64307   0.58194   0.00000  Uiso   1.00
H926   H     0.20406   0.56777   0.62599   0.00000  Uiso   1.00
H927   H     0.27666   0.58135   0.63163   0.00000  Uiso   1.00
H928   H     0.20332   0.60015   0.90628   0.00000  Uiso   1.00
H929   H     0.20311   0.55727   0.95332   0.00000  Uiso   1.00
H930   H     0.14846   0.60268   0.94608   0.00000  Uiso   1.00
H931   H     0.16629   0.50472   0.87744   0.00000  Uiso   1.00
H932   H     0.24361   0.39401   0.95147   0.00000  Uiso   1.00
H933   H     0.12401   0.55720   0.86268   0.00000  Uiso   1.00
H934   H     0.08195   0.40077   0.67837   0.00000  Uiso   1.00
H935   H     0.11832   0.44877   0.64659   0.00000  Uiso   1.00
H936   H     0.14264   0.38424   0.65002   0.00000  Uiso   1.00
H937   H     0.20262   0.43940   0.70179   0.00000  Uiso   1.00
H938   H     0.16130   0.40550   0.74242   0.00000  Uiso   1.00
H939   H     0.19674   0.64719   0.78770   0.00000  Uiso   1.00
H940   H     0.14342   0.60980   0.81115   0.00000  Uiso   1.00
H941   H     0.21687   0.59551   0.82450   0.00000  Uiso   1.00
H942   H     0.20973   0.58030   0.72675   0.00000  Uiso   1.00
H943   H     0.02138   0.42318   0.60053   0.00000  Uiso   1.00
H944   H     0.14354   0.57474   0.72734   0.00000  Uiso   1.00
H945   H     0.28199   0.52450   0.90881   0.00000  Uiso   1.00
H946   H     0.30447   0.53694   0.99664   0.00000  Uiso   1.00
H947   H     0.31589   0.39164   0.51867   0.00000  Uiso   1.00
H948   H     0.13543   0.51629   0.60018   0.00000  Uiso   1.00
H949   H     0.15815   0.42892   0.91719   0.00000  Uiso   1.00
H950   H     0.06532   0.33612   0.75049   0.00000  Uiso   1.00
N951   N     0.14695   0.48550   0.73739   0.00000  Uiso   1.00
N952   N     0.18638   0.51450   0.76260   0.00000  Uiso   1.00
O953   O     0.29719   0.57964   0.75309   0.00000  Uiso   1.00
O954   O     0.03614   0.42036   0.74691   0.00000  Uiso   1.00
O955   O     0.05822   0.57035   0.74501   0.00000  Uiso   1.00
O956   O     0.27512   0.42965   0.75498   0.00000  Uiso   1.00
O957   O     0.30328   0.50730   0.82247   0.00000  Uiso   1.00
O958   O     0.03005   0.49270   0.67753   0.00000  Uiso   1.00
O959   O     0.06431   0.49801   0.81439   0.00000  Uiso   1.00
O960   O     0.26902   0.50199   0.68561   0.00000  Uiso   1.00
Zn961  Zn    0.27033   0.50621   0.75539   0.00000  Uiso   1.00
Zn962  Zn    0.06300   0.49379   0.74460   0.00000  Uiso   1.00
C963   C     0.34792   0.59785   0.74855   0.00000  Uiso   1.00
C964   C     0.64462   0.49510   0.65969   0.00000  Uiso   1.00
C965   C     0.36784   0.51274   0.89359   0.00000  Uiso   1.00
C966   C     0.63007   0.48429   0.60833   0.00000  Uiso   1.00
C967   C     0.33689   0.52653   0.97388   0.00000  Uiso   1.00
C968   C     0.62962   0.42275   0.53823   0.00000  Uiso   1.00
C969   C     0.65787   0.52061   0.92380   0.00000  Uiso   1.00
C970   C     0.65278   0.44182   0.58398   0.00000  Uiso   1.00
C971   C     0.42309   0.51044   0.91479   0.00000  Uiso   1.00
C972   C     0.58411   0.50845   0.58704   0.00000  Uiso   1.00
C973   C     0.43003   0.49920   0.96298   0.00000  Uiso   1.00
C974   C     0.65194   0.40207   0.75015   0.00000  Uiso   1.00
C975   C     0.55303   0.48088   0.54647   0.00000  Uiso   1.00
C976   C     0.39031   0.51624   0.99385   0.00000  Uiso   1.00
C977   C     0.57972   0.44183   0.51921   0.00000  Uiso   1.00
C978   C     0.47880   0.47807   0.98197   0.00000  Uiso   1.00
C979   C     0.49762   0.49141   0.53066   0.00000  Uiso   1.00
C980   C     0.57448   0.56512   0.60541   0.00000  Uiso   1.00
C981   C     0.57184   0.60288   0.56570   0.00000  Uiso   1.00
C982   C     0.47312   0.53496   0.89230   0.00000  Uiso   1.00
C983   C     0.50893   0.57607   0.92677   0.00000  Uiso   1.00
C984   C     0.49510   0.43537   0.71575   0.00000  Uiso   1.00
C985   C     0.45936   0.51214   0.56166   0.00000  Uiso   1.00
C986   C     0.45677   0.41654   0.67034   0.00000  Uiso   1.00
C987   C     0.51333   0.56890   0.75214   0.00000  Uiso   1.00
C988   C     0.51813   0.60717   0.79702   0.00000  Uiso   1.00
C989   C     0.50796   0.44303   0.95358   0.00000  Uiso   1.00
C990   C     0.40564   0.52328   0.54346   0.00000  Uiso   1.00
C991   C     0.55652   0.42291   0.97306   0.00000  Uiso   1.00
C992   C     0.35581   0.65247   0.74840   0.00000  Uiso   1.00
C993   C     0.64416   0.34727   0.74744   0.00000  Uiso   1.00
C994   C     0.35562   0.50614   0.84080   0.00000  Uiso   1.00
H995   H     0.37695   0.53882   0.56790   0.00000  Uiso   1.00
H996   H     0.60156   0.66352   0.74403   0.00000  Uiso   1.00
H997   H     0.61143   0.60386   0.54801   0.00000  Uiso   1.00
H998   H     0.53592   0.59207   0.53835   0.00000  Uiso   1.00
H999   H     0.56655   0.64307   0.58194   0.00000  Uiso   1.00
H1000  H     0.53740   0.56777   0.62599   0.00000  Uiso   1.00
H1001  H     0.60999   0.58135   0.63163   0.00000  Uiso   1.00
H1002  H     0.53666   0.60015   0.90628   0.00000  Uiso   1.00
H1003  H     0.53644   0.55727   0.95332   0.00000  Uiso   1.00
H1004  H     0.48179   0.60268   0.94608   0.00000  Uiso   1.00
H1005  H     0.49962   0.50472   0.87744   0.00000  Uiso   1.00
H1006  H     0.57695   0.39401   0.95147   0.00000  Uiso   1.00
H1007  H     0.45735   0.55720   0.86268   0.00000  Uiso   1.00
H1008  H     0.41529   0.40077   0.67837   0.00000  Uiso   1.00
H1009  H     0.45166   0.44877   0.64659   0.00000  Uiso   1.00
H1010  H     0.47598   0.38424   0.65002   0.00000  Uiso   1.00
H1011  H     0.53595   0.43940   0.70179   0.00000  Uiso   1.00
H1012  H     0.49463   0.40550   0.74242   0.00000  Uiso   1.00
H1013  H     0.53007   0.64719   0.78770   0.00000  Uiso   1.00
H1014  H     0.47676   0.60980   0.81115   0.00000  Uiso   1.00
H1015  H     0.55021   0.59551   0.82450   0.00000  Uiso   1.00
H1016  H     0.54306   0.58030   0.72675   0.00000  Uiso   1.00
H1017  H     0.35471   0.42318   0.60053   0.00000  Uiso   1.00
H1018  H     0.47687   0.57474   0.72734   0.00000  Uiso   1.00
H1019  H     0.61532   0.52450   0.90881   0.00000  Uiso   1.00
H1020  H     0.63780   0.53694   0.99664   0.00000  Uiso   1.00
H1021  H     0.64922   0.39164   0.51867   0.00000  Uiso   1.00
H1022  H     0.46877   0.51629   0.60018   0.00000  Uiso   1.00
H1023  H     0.49149   0.42892   0.91719   0.00000  Uiso   1.00
H1024  H     0.39865   0.33612   0.75049   0.00000  Uiso   1.00
N1025  N     0.48029   0.48550   0.73739   0.00000  Uiso   1.00
N1026  N     0.51971   0.51450   0.76260   0.00000  Uiso   1.00
O1027  O     0.63052   0.57964   0.75309   0.00000  Uiso   1.00
O1028  O     0.36948   0.42036   0.74691   0.00000  Uiso   1.00
O1029  O     0.39155   0.57035   0.74501   0.00000  Uiso   1.00
O1030  O     0.60845   0.42965   0.75498   0.00000  Uiso   1.00
O1031  O     0.63662   0.50730   0.82247   0.00000  Uiso   1.00
O1032  O     0.36338   0.49270   0.67753   0.00000  Uiso   1.00
O1033  O     0.39764   0.49801   0.81439   0.00000  Uiso   1.00
O1034  O     0.60236   0.50199   0.68561   0.00000  Uiso   1.00
Zn1035 Zn    0.60366   0.50621   0.75539   0.00000  Uiso   1.00
Zn1036 Zn    0.39634   0.49379   0.74460   0.00000  Uiso   1.00
C1037  C     0.68125   0.59785   0.74855   0.00000  Uiso   1.00
C1038  C     0.97795   0.49510   0.65969   0.00000  Uiso   1.00
C1039  C     0.70117   0.51274   0.89359   0.00000  Uiso   1.00
C1040  C     0.96340   0.48429   0.60833   0.00000  Uiso   1.00
C1041  C     0.67022   0.52653   0.97388   0.00000  Uiso   1.00
C1042  C     0.96295   0.42275   0.53823   0.00000  Uiso   1.00
C1043  C     0.99120   0.52061   0.92380   0.00000  Uiso   1.00
C1044  C     0.98611   0.44182   0.58398   0.00000  Uiso   1.00
C1045  C     0.75643   0.51044   0.91479   0.00000  Uiso   1.00
C1046  C     0.91745   0.50845   0.58704   0.00000  Uiso   1.00
C1047  C     0.76336   0.49920   0.96298   0.00000  Uiso   1.00
C1048  C     0.98527   0.40207   0.75015   0.00000  Uiso   1.00
C1049  C     0.88637   0.48088   0.54647   0.00000  Uiso   1.00
C1050  C     0.72364   0.51624   0.99385   0.00000  Uiso   1.00
C1051  C     0.91306   0.44183   0.51921   0.00000  Uiso   1.00
C1052  C     0.81213   0.47807   0.98197   0.00000  Uiso   1.00
C1053  C     0.83095   0.49141   0.53066   0.00000  Uiso   1.00
C1054  C     0.90781   0.56512   0.60541   0.00000  Uiso   1.00
C1055  C     0.90517   0.60288   0.56570   0.00000  Uiso   1.00
C1056  C     0.80645   0.53496   0.89230   0.00000  Uiso   1.00
C1057  C     0.84226   0.57607   0.92677   0.00000  Uiso   1.00
C1058  C     0.82843   0.43537   0.71575   0.00000  Uiso   1.00
C1059  C     0.79269   0.51214   0.56166   0.00000  Uiso   1.00
C1060  C     0.79010   0.41654   0.67034   0.00000  Uiso   1.00
C1061  C     0.84666   0.56890   0.75214   0.00000  Uiso   1.00
C1062  C     0.85146   0.60717   0.79702   0.00000  Uiso   1.00
C1063  C     0.84129   0.44303   0.95358   0.00000  Uiso   1.00
C1064  C     0.73897   0.52328   0.54346   0.00000  Uiso   1.00
C1065  C     0.88986   0.42291   0.97306   0.00000  Uiso   1.00
C1066  C     0.68914   0.65247   0.74840   0.00000  Uiso   1.00
C1067  C     0.97749   0.34727   0.74744   0.00000  Uiso   1.00
C1068  C     0.68895   0.50614   0.84080   0.00000  Uiso   1.00
H1069  H     0.71028   0.53882   0.56790   0.00000  Uiso   1.00
H1070  H     0.93489   0.66352   0.74403   0.00000  Uiso   1.00
H1071  H     0.94476   0.60386   0.54801   0.00000  Uiso   1.00
H1072  H     0.86925   0.59207   0.53835   0.00000  Uiso   1.00
H1073  H     0.89989   0.64307   0.58194   0.00000  Uiso   1.00
H1074  H     0.87073   0.56777   0.62599   0.00000  Uiso   1.00
H1075  H     0.94332   0.58135   0.63163   0.00000  Uiso   1.00
H1076  H     0.86999   0.60015   0.90628   0.00000  Uiso   1.00
H1077  H     0.86978   0.55727   0.95332   0.00000  Uiso   1.00
H1078  H     0.81512   0.60268   0.94608   0.00000  Uiso   1.00
H1079  H     0.83296   0.50472   0.87744   0.00000  Uiso   1.00
H1080  H     0.91028   0.39401   0.95147   0.00000  Uiso   1.00
H1081  H     0.79068   0.55720   0.86268   0.00000  Uiso   1.00
H1082  H     0.74862   0.40077   0.67837   0.00000  Uiso   1.00
H1083  H     0.78499   0.44877   0.64659   0.00000  Uiso   1.00
H1084  H     0.80931   0.38424   0.65002   0.00000  Uiso   1.00
H1085  H     0.86928   0.43940   0.70179   0.00000  Uiso   1.00
H1086  H     0.82796   0.40550   0.74242   0.00000  Uiso   1.00
H1087  H     0.86340   0.64719   0.78770   0.00000  Uiso   1.00
H1088  H     0.81009   0.60980   0.81115   0.00000  Uiso   1.00
H1089  H     0.88354   0.59551   0.82450   0.00000  Uiso   1.00
H1090  H     0.87640   0.58030   0.72675   0.00000  Uiso   1.00
H1091  H     0.68805   0.42318   0.60053   0.00000  Uiso   1.00
H1092  H     0.81021   0.57474   0.72734   0.00000  Uiso   1.00
H1093  H     0.94865   0.52450   0.90881   0.00000  Uiso   1.00
H1094  H     0.97114   0.53694   0.99664   0.00000  Uiso   1.00
H1095  H     0.98255   0.39164   0.51867   0.00000  Uiso   1.00
H1096  H     0.80210   0.51629   0.60018   0.00000  Uiso   1.00
H1097  H     0.82482   0.42892   0.91719   0.00000  Uiso   1.00
H1098  H     0.73199   0.33612   0.75049   0.00000  Uiso   1.00
N1099  N     0.81362   0.48550   0.73739   0.00000  Uiso   1.00
N1100  N     0.85305   0.51450   0.76260   0.00000  Uiso   1.00
O1101  O     0.96386   0.57964   0.75309   0.00000  Uiso   1.00
O1102  O     0.70281   0.42036   0.74691   0.00000  Uiso   1.00
O1103  O     0.72488   0.57035   0.74501   0.00000  Uiso   1.00
O1104  O     0.94178   0.42965   0.75498   0.00000  Uiso   1.00
O1105  O     0.96995   0.50730   0.82247   0.00000  Uiso   1.00
O1106  O     0.69672   0.49270   0.67753   0.00000  Uiso   1.00
O1107  O     0.73098   0.49801   0.81439   0.00000  Uiso   1.00
O1108  O     0.93569   0.50199   0.68561   0.00000  Uiso   1.00
Zn1109 Zn    0.93700   0.50621   0.75539   0.00000  Uiso   1.00
Zn1110 Zn    0.72967   0.49379   0.74460   0.00000  Uiso   1.00
C1111  C     0.01459   0.93118   0.74855   0.00000  Uiso   1.00
C1112  C     0.31129   0.82844   0.65969   0.00000  Uiso   1.00
C1113  C     0.03450   0.84607   0.89359   0.00000  Uiso   1.00
C1114  C     0.29673   0.81763   0.60833   0.00000  Uiso   1.00
C1115  C     0.00355   0.85987   0.97388   0.00000  Uiso   1.00
C1116  C     0.29629   0.75608   0.53823   0.00000  Uiso   1.00
C1117  C     0.32453   0.85394   0.92380   0.00000  Uiso   1.00
C1118  C     0.31945   0.77515   0.58398   0.00000  Uiso   1.00
C1119  C     0.08976   0.84378   0.91479   0.00000  Uiso   1.00
C1120  C     0.25078   0.84178   0.58704   0.00000  Uiso   1.00
C1121  C     0.09670   0.83254   0.96298   0.00000  Uiso   1.00
C1122  C     0.31860   0.73540   0.75015   0.00000  Uiso   1.00
C1123  C     0.21970   0.81421   0.54647   0.00000  Uiso   1.00
C1124  C     0.05697   0.84957   0.99385   0.00000  Uiso   1.00
C1125  C     0.24639   0.77516   0.51921   0.00000  Uiso   1.00
C1126  C     0.14547   0.81141   0.98197   0.00000  Uiso   1.00
C1127  C     0.16429   0.82474   0.53066   0.00000  Uiso   1.00
C1128  C     0.24114   0.89846   0.60541   0.00000  Uiso   1.00
C1129  C     0.23851   0.93621   0.56570   0.00000  Uiso   1.00
C1130  C     0.13978   0.86829   0.89230   0.00000  Uiso   1.00
C1131  C     0.17560   0.90940   0.92677   0.00000  Uiso   1.00
C1132  C     0.16176   0.76871   0.71575   0.00000  Uiso   1.00
C1133  C     0.12602   0.84548   0.56166   0.00000  Uiso   1.00
C1134  C     0.12343   0.74988   0.67034   0.00000  Uiso   1.00
C1135  C     0.18000   0.90223   0.75214   0.00000  Uiso   1.00
C1136  C     0.18480   0.94051   0.79702   0.00000  Uiso   1.00
C1137  C     0.17462   0.77637   0.95358   0.00000  Uiso   1.00
C1138  C     0.07230   0.85661   0.54346   0.00000  Uiso   1.00
C1139  C     0.22319   0.75625   0.97306   0.00000  Uiso   1.00
C1140  C     0.02247   0.98580   0.74840   0.00000  Uiso   1.00
C1141  C     0.31083   0.68060   0.74744   0.00000  Uiso   1.00
C1142  C     0.02229   0.83948   0.84080   0.00000  Uiso   1.00
H1143  H     0.04362   0.87216   0.56790   0.00000  Uiso   1.00
H1144  H     0.26823   0.99686   0.74403   0.00000  Uiso   1.00
H1145  H     0.27809   0.93719   0.54801   0.00000  Uiso   1.00
H1146  H     0.20258   0.92540   0.53835   0.00000  Uiso   1.00
H1147  H     0.23322   0.97640   0.58194   0.00000  Uiso   1.00
H1148  H     0.20406   0.90110   0.62599   0.00000  Uiso   1.00
H1149  H     0.27666   0.91469   0.63163   0.00000  Uiso   1.00
H1150  H     0.20332   0.93348   0.90628   0.00000  Uiso   1.00
H1151  H     0.20311   0.89061   0.95332   0.00000  Uiso   1.00
H1152  H     0.14846   0.93602   0.94608   0.00000  Uiso   1.00
H1153  H     0.16629   0.83805   0.87744   0.00000  Uiso   1.00
H1154  H     0.24361   0.72734   0.95147   0.00000  Uiso   1.00
H1155  H     0.12401   0.89054   0.86268   0.00000  Uiso   1.00
H1156  H     0.08195   0.73410   0.67837   0.00000  Uiso   1.00
H1157  H     0.11832   0.78210   0.64659   0.00000  Uiso   1.00
H1158  H     0.14264   0.71757   0.65002   0.00000  Uiso   1.00
H1159  H     0.20262   0.77273   0.70179   0.00000  Uiso   1.00
H1160  H     0.16130   0.73884   0.74242   0.00000  Uiso   1.00
H1161  H     0.19674   0.98053   0.78770   0.00000  Uiso   1.00
H1162  H     0.14342   0.94313   0.81115   0.00000  Uiso   1.00
H1163  H     0.21687   0.92884   0.82450   0.00000  Uiso   1.00
H1164  H     0.20973   0.91363   0.72675   0.00000  Uiso   1.00
H1165  H     0.02138   0.75651   0.60053   0.00000  Uiso   1.00
H1166  H     0.14354   0.90807   0.72734   0.00000  Uiso   1.00
H1167  H     0.28199   0.85783   0.90881   0.00000  Uiso   1.00
H1168  H     0.30447   0.87027   0.99664   0.00000  Uiso   1.00
H1169  H     0.31589   0.72497   0.51867   0.00000  Uiso   1.00
H1170  H     0.13543   0.84963   0.60018   0.00000  Uiso   1.00
H1171  H     0.15815   0.76225   0.91719   0.00000  Uiso   1.00
H1172  H     0.06532   0.66945   0.75049   0.00000  Uiso   1.00
N1173  N     0.14695   0.81883   0.73739   0.00000  Uiso   1.00
N1174  N     0.18638   0.84784   0.76260   0.00000  Uiso   1.00
O1175  O     0.29719   0.91298   0.75309   0.00000  Uiso   1.00
O1176  O     0.03614   0.75369   0.74691   0.00000  Uiso   1.00
O1177  O     0.05822   0.90368   0.74501   0.00000  Uiso   1.00
O1178  O     0.27512   0.76298   0.75498   0.00000  Uiso   1.00
O1179  O     0.30328   0.84063   0.82247   0.00000  Uiso   1.00
O1180  O     0.03005   0.82603   0.67753   0.00000  Uiso   1.00
O1181  O     0.06431   0.83134   0.81439   0.00000  Uiso   1.00
O1182  O     0.26902   0.83533   0.68561   0.00000  Uiso   1.00
Zn1183 Zn    0.27033   0.83954   0.75539   0.00000  Uiso   1.00
Zn1184 Zn    0.06300   0.82713   0.74460   0.00000  Uiso   1.00
C1185  C     0.34792   0.93118   0.74855   0.00000  Uiso   1.00
C1186  C     0.64462   0.82844   0.65969   0.00000  Uiso   1.00
C1187  C     0.36784   0.84607   0.89359   0.00000  Uiso   1.00
C1188  C     0.63007   0.81763   0.60833   0.00000  Uiso   1.00
C1189  C     0.33689   0.85987   0.97388   0.00000  Uiso   1.00
C1190  C     0.62962   0.75608   0.53823   0.00000  Uiso   1.00
C1191  C     0.65787   0.85394   0.92380   0.00000  Uiso   1.00
C1192  C     0.65278   0.77515   0.58398   0.00000  Uiso   1.00
C1193  C     0.42309   0.84378   0.91479   0.00000  Uiso   1.00
C1194  C     0.58411   0.84178   0.58704   0.00000  Uiso   1.00
C1195  C     0.43003   0.83254   0.96298   0.00000  Uiso   1.00
C1196  C     0.65194   0.73540   0.75015   0.00000  Uiso   1.00
C1197  C     0.55303   0.81421   0.54647   0.00000  Uiso   1.00
C1198  C     0.39031   0.84957   0.99385   0.00000  Uiso   1.00
C1199  C     0.57972   0.77516   0.51921   0.00000  Uiso   1.00
C1200  C     0.47880   0.81141   0.98197   0.00000  Uiso   1.00
C1201  C     0.49762   0.82474   0.53066   0.00000  Uiso   1.00
C1202  C     0.57448   0.89846   0.60541   0.00000  Uiso   1.00
C1203  C     0.57184   0.93621   0.56570   0.00000  Uiso   1.00
C1204  C     0.47312   0.86829   0.89230   0.00000  Uiso   1.00
C1205  C     0.50893   0.90940   0.92677   0.00000  Uiso   1.00
C1206  C     0.49510   0.76871   0.71575   0.00000  Uiso   1.00
C1207  C     0.45936   0.84548   0.56166   0.00000  Uiso   1.00
C1208  C     0.45677   0.74988   0.67034   0.00000  Uiso   1.00
C1209  C     0.51333   0.90223   0.75214   0.00000  Uiso   1.00
C1210  C     0.51813   0.94051   0.79702   0.00000  Uiso   1.00
C1211  C     0.50796   0.77637   0.95358   0.00000  Uiso   1.00
C1212  C     0.40564   0.85661   0.54346   0.00000  Uiso   1.00
C1213  C     0.55652   0.75625   0.97306   0.00000  Uiso   1.00
C1214  C     0.35581   0.98580   0.74840   0.00000  Uiso   1.00
C1215  C     0.64416   0.68060   0.74744   0.00000  Uiso   1.00
C1216  C     0.35562   0.83948   0.84080   0.00000  Uiso   1.00
H1217  H     0.37695   0.87216   0.56790   0.00000  Uiso   1.00
H1218  H     0.60156   0.99686   0.74403   0.00000  Uiso   1.00
H1219  H     0.61143   0.93719   0.54801   0.00000  Uiso   1.00
H1220  H     0.53592   0.92540   0.53835   0.00000  Uiso   1.00
H1221  H     0.56655   0.97640   0.58194   0.00000  Uiso   1.00
H1222  H     0.53740   0.90110   0.62599   0.00000  Uiso   1.00
H1223  H     0.60999   0.91469   0.63163   0.00000  Uiso   1.00
H1224  H     0.53666   0.93348   0.90628   0.00000  Uiso   1.00
H1225  H     0.53644   0.89061   0.95332   0.00000  Uiso   1.00
H1226  H     0.48179   0.93602   0.94608   0.00000  Uiso   1.00
H1227  H     0.49962   0.83805   0.87744   0.00000  Uiso   1.00
H1228  H     0.57695   0.72734   0.95147   0.00000  Uiso   1.00
H1229  H     0.45735   0.89054   0.86268   0.00000  Uiso   1.00
H1230  H     0.41529   0.73410   0.67837   0.00000  Uiso   1.00
H1231  H     0.45166   0.78210   0.64659   0.00000  Uiso   1.00
H1232  H     0.47598   0.71757   0.65002   0.00000  Uiso   1.00
H1233  H     0.53595   0.77273   0.70179   0.00000  Uiso   1.00
H1234  H     0.49463   0.73884   0.74242   0.00000  Uiso   1.00
H1235  H     0.53007   0.98053   0.78770   0.00000  Uiso   1.00
H1236  H     0.47676   0.94313   0.81115   0.00000  Uiso   1.00
H1237  H     0.55021   0.92884   0.82450   0.00000  Uiso   1.00
H1238  H     0.54306   0.91363   0.72675   0.00000  Uiso   1.00
H1239  H     0.35471   0.75651   0.60053   0.00000  Uiso   1.00
H1240  H     0.47687   0.90807   0.72734   0.00000  Uiso   1.00
H1241  H     0.61532   0.85783   0.90881   0.00000  Uiso   1.00
H1242  H     0.63780   0.87027   0.99664   0.00000  Uiso   1.00
H1243  H     0.64922   0.72497   0.51867   0.00000  Uiso   1.00
H1244  H     0.46877   0.84963   0.60018   0.00000  Uiso   1.00
H1245  H     0.49149   0.76225   0.91719   0.00000  Uiso   1.00
H1246  H     0.39865   0.66945   0.75049   0.00000  Uiso   1.00
N1247  N     0.48029   0.81883   0.73739   0.00000  Uiso   1.00
N1248  N     0.51971   0.84784   0.76260   0.00000  Uiso   1.00
O1249  O     0.63052   0.91298   0.75309   0.00000  Uiso   1.00
O1250  O     0.36948   0.75369   0.74691   0.00000  Uiso   1.00
O1251  O     0.39155   0.90368   0.74501   0.00000  Uiso   1.00
O1252  O     0.60845   0.76298   0.75498   0.00000  Uiso   1.00
O1253  O     0.63662   0.84063   0.82247   0.00000  Uiso   1.00
O1254  O     0.36338   0.82603   0.67753   0.00000  Uiso   1.00
O1255  O     0.39764   0.83134   0.81439   0.00000  Uiso   1.00
O1256  O     0.60236   0.83533   0.68561   0.00000  Uiso   1.00
Zn1257 Zn    0.60366   0.83954   0.75539   0.00000  Uiso   1.00
Zn1258 Zn    0.39634   0.82713   0.74460   0.00000  Uiso   1.00
C1259  C     0.68125   0.93118   0.74855   0.00000  Uiso   1.00
C1260  C     0.97795   0.82844   0.65969   0.00000  Uiso   1.00
C1261  C     0.70117   0.84607   0.89359   0.00000  Uiso   1.00
C1262  C     0.96340   0.81763   0.60833   0.00000  Uiso   1.00
C1263  C     0.67022   0.85987   0.97388   0.00000  Uiso   1.00
C1264  C     0.96295   0.75608   0.53823   0.00000  Uiso   1.00
C1265  C     0.99120   0.85394   0.92380   0.00000  Uiso   1.00
C1266  C     0.98611   0.77515   0.58398   0.00000  Uiso   1.00
C1267  C     0.75643   0.84378   0.91479   0.00000  Uiso   1.00
C1268  C     0.91745   0.84178   0.58704   0.00000  Uiso   1.00
C1269  C     0.76336   0.83254   0.96298   0.00000  Uiso   1.00
C1270  C     0.98527   0.73540   0.75015   0.00000  Uiso   1.00
C1271  C     0.88637   0.81421   0.54647   0.00000  Uiso   1.00
C1272  C     0.72364   0.84957   0.99385   0.00000  Uiso   1.00
C1273  C     0.91306   0.77516   0.51921   0.00000  Uiso   1.00
C1274  C     0.81213   0.81141   0.98197   0.00000  Uiso   1.00
C1275  C     0.83095   0.82474   0.53066   0.00000  Uiso   1.00
C1276  C     0.90781   0.89846   0.60541   0.00000  Uiso   1.00
C1277  C     0.90517   0.93621   0.56570   0.00000  Uiso   1.00
C1278  C     0.80645   0.86829   0.89230   0.00000  Uiso   1.00
C1279  C     0.84226   0.90940   0.92677   0.00000  Uiso   1.00
C1280  C     0.82843   0.76871   0.71575   0.00000  Uiso   1.00
C1281  C     0.79269   0.84548   0.56166   0.00000  Uiso   1.00
C1282  C     0.79010   0.74988   0.67034   0.00000  Uiso   1.00
C1283  C     0.84666   0.90223   0.75214   0.00000  Uiso   1.00
C1284  C     0.85146   0.94051   0.79702   0.00000  Uiso   1.00
C1285  C     0.84129   0.77637   0.95358   0.00000  Uiso   1.00
C1286  C     0.73897   0.85661   0.54346   0.00000  Uiso   1.00
C1287  C     0.88986   0.75625   0.97306   0.00000  Uiso   1.00
C1288  C     0.68914   0.98580   0.74840   0.00000  Uiso   1.00
C1289  C     0.97749   0.68060   0.74744   0.00000  Uiso   1.00
C1290  C     0.68895   0.83948   0.84080   0.00000  Uiso   1.00
H1291  H     0.71028   0.87216   0.56790   0.00000  Uiso   1.00
H1292  H     0.93489   0.99686   0.74403   0.00000  Uiso   1.00
H1293  H     0.94476   0.93719   0.54801   0.00000  Uiso   1.00
H1294  H     0.86925   0.92540   0.53835   0.00000  Uiso   1.00
H1295  H     0.89989   0.97640   0.58194   0.00000  Uiso   1.00
H1296  H     0.87073   0.90110   0.62599   0.00000  Uiso   1.00
H1297  H     0.94332   0.91469   0.63163   0.00000  Uiso   1.00
H1298  H     0.86999   0.93348   0.90628   0.00000  Uiso   1.00
H1299  H     0.86978   0.89061   0.95332   0.00000  Uiso   1.00
H1300  H     0.81512   0.93602   0.94608   0.00000  Uiso   1.00
H1301  H     0.83296   0.83805   0.87744   0.00000  Uiso   1.00
H1302  H     0.91028   0.72734   0.95147   0.00000  Uiso   1.00
H1303  H     0.79068   0.89054   0.86268   0.00000  Uiso   1.00
H1304  H     0.74862   0.73410   0.67837   0.00000  Uiso   1.00
H1305  H     0.78499   0.78210   0.64659   0.00000  Uiso   1.00
H1306  H     0.80931   0.71757   0.65002   0.00000  Uiso   1.00
H1307  H     0.86928   0.77273   0.70179   0.00000  Uiso   1.00
H1308  H     0.82796   0.73884   0.74242   0.00000  Uiso   1.00
H1309  H     0.86340   0.98053   0.78770   0.00000  Uiso   1.00
H1310  H     0.81009   0.94313   0.81115   0.00000  Uiso   1.00
H1311  H     0.88354   0.92884   0.82450   0.00000  Uiso   1.00
H1312  H     0.87640   0.91363   0.72675   0.00000  Uiso   1.00
H1313  H     0.68805   0.75651   0.60053   0.00000  Uiso   1.00
H1314  H     0.81021   0.90807   0.72734   0.00000  Uiso   1.00
H1315  H     0.94865   0.85783   0.90881   0.00000  Uiso   1.00
H1316  H     0.97114   0.87027   0.99664   0.00000  Uiso   1.00
H1317  H     0.98255   0.72497   0.51867   0.00000  Uiso   1.00
H1318  H     0.80210   0.84963   0.60018   0.00000  Uiso   1.00
H1319  H     0.82482   0.76225   0.91719   0.00000  Uiso   1.00
H1320  H     0.73199   0.66945   0.75049   0.00000  Uiso   1.00
N1321  N     0.81362   0.81883   0.73739   0.00000  Uiso   1.00
N1322  N     0.85305   0.84784   0.76260   0.00000  Uiso   1.00
O1323  O     0.96386   0.91298   0.75309   0.00000  Uiso   1.00
O1324  O     0.70281   0.75369   0.74691   0.00000  Uiso   1.00
O1325  O     0.72488   0.90368   0.74501   0.00000  Uiso   1.00
O1326  O     0.94178   0.76298   0.75498   0.00000  Uiso   1.00
O1327  O     0.96995   0.84063   0.82247   0.00000  Uiso   1.00
O1328  O     0.69672   0.82603   0.67753   0.00000  Uiso   1.00
O1329  O     0.73098   0.83134   0.81439   0.00000  Uiso   1.00
O1330  O     0.93569   0.83533   0.68561   0.00000  Uiso   1.00
Zn1331 Zn    0.93700   0.83954   0.75539   0.00000  Uiso   1.00
Zn1332 Zn    0.72967   0.82713   0.74460   0.00000  Uiso   1.00
loop_
_geom_bond_atom_site_label_1
_geom_bond_atom_site_label_2
_geom_bond_distance
_geom_bond_site_symmetry_2
_ccdc_geom_bond_type
C1     C30     1.403   .     S
C1     O67     1.302   .     A
C1     O213    1.299   1_455 S
C2     C4      1.446   .     S
C2     O72     1.309   .     A
C2     O144    1.311   .     S
C3     C9      1.410   .     A
C3     C32     1.471   .     S
C3     C155    1.408   1_455 S
C4     C10     1.406   .     A
C4     C8      1.400   .     A
C5     C14     1.400   .     A
C5     C155    1.397   1_455 S
C5     H206    1.079   1_455 S
C6     C15     1.397   .     A
C6     C8      1.386   .     A
C6     H59     1.084   .     S
C7     H57     1.082   .     S
C7     C77     1.408   .     S
C7     C79     1.397   .     S
C8     H129    1.082   .     S
C9     C11     1.396   .     A
C9     C20     1.530   .     S
C10    C18     1.539   .     S
C10    C13     1.414   .     A
C11    C16     1.398   .     A
C11    C14     1.405   .     A
C12    O68     1.305   .     A
C12    C31     1.402   .     S
C12    O140    1.296   .     S
C13    C17     1.412   .     A
C13    C15     1.425   .     A
C14    C694    1.396   .     S
C15    C695    1.395   1_554 S
C16    C27     1.407   .     A
C16    C683    1.403   .     S
C17    C23     1.413   .     A
C17    C682    1.403   1_554 S
C18    H38     1.103   .     S
C18    C19     1.529   .     S
C18    H39     1.111   .     S
C19    H35     1.109   .     S
C19    H36     1.107   .     S
C19    H37     1.111   .     S
C20    H45     1.095   .     S
C20    H43     1.109   .     S
C20    C21     1.537   .     S
C21    H40     1.108   .     S
C21    H41     1.107   .     S
C21    H42     1.111   .     S
C22    H50     1.111   .     S
C22    H49     1.089   .     S
C22    C24     1.527   .     S
C22    N63     1.452   .     S
C23    H60     1.074   .     S
C23    C28     1.397   .     A
C24    H46     1.101   .     S
C24    H47     1.106   .     S
C24    H48     1.111   .     S
C25    H56     1.092   .     S
C25    C26     1.520   .     S
C25    H54     1.094   .     S
C25    N64     1.462   .     S
C26    H52     1.104   .     S
C26    H51     1.107   .     S
C26    H53     1.109   .     S
C27    C29     1.387   .     A
C27    H61     1.083   .     S
C28    H33     1.081   .     S
C28    C680    1.396   1_554 S
C29    H44     1.084   .     S
C29    C681    1.395   .     S
C30    C401    1.332   1_455 S
C30    H284    1.088   .     S
C31    C548    1.332   1_545 S
C31    H478    1.082   1_545 S
C32    O71     1.317   .     A
C32    O217    1.316   1_455 S
H34    C253    1.082   .     S
H55    C156    1.082   1_455 S
H58    C79     1.079   .     S
H62    C474    1.088   1_545 S
N63    Zn74    2.063   .     S
N63    N64     1.289   .     D
N64    Zn73    2.063   .     S
O65    Zn73    1.963   .     S
O65    C75     1.299   .     S
O66    Zn74    1.963   .     S
O66    C160    1.296   1_455 S
O67    Zn74    1.973   .     S
O68    Zn73    1.973   .     S
O69    Zn73    1.965   .     S
O69    C106    1.316   .     S
O70    Zn74    1.965   .     S
O70    C150    1.311   1_455 S
O71    Zn74    1.940   .     S
O72    Zn73    1.940   .     S
C75    C104    1.403   .     S
C75    O141    1.302   .     A
C76    C78     1.446   .     S
C76    O146    1.309   .     A
C76    O218    1.311   .     S
C77    C83     1.410   .     A
C77    C106    1.471   .     S
C78    C84     1.406   .     A
C78    C82     1.400   .     A
C79    C88     1.400   .     A
C80    C89     1.397   .     A
C80    C82     1.386   .     A
C80    H133    1.084   .     S
C81    H131    1.082   .     S
C81    C151    1.408   .     S
C81    C153    1.397   .     S
C82    H203    1.082   .     S
C83    C85     1.396   .     A
C83    C94     1.530   .     S
C84    C92     1.539   .     S
C84    C87     1.414   .     A
C85    C90     1.398   .     A
C85    C88     1.405   .     A
C86    O142    1.305   .     A
C86    C105    1.402   .     S
C86    O214    1.296   .     S
C87    C91     1.412   .     A
C87    C89     1.425   .     A
C88    C768    1.396   .     S
C89    C769    1.395   1_554 S
C90    C101    1.407   .     A
C90    C757    1.403   .     S
C91    C97     1.413   .     A
C91    C756    1.403   1_554 S
C92    H112    1.103   .     S
C92    C93     1.529   .     S
C92    H113    1.111   .     S
C93    H109    1.109   .     S
C93    H110    1.107   .     S
C93    H111    1.111   .     S
C94    H119    1.095   .     S
C94    H117    1.109   .     S
C94    C95     1.537   .     S
C95    H114    1.108   .     S
C95    H115    1.107   .     S
C95    H116    1.111   .     S
C96    H124    1.111   .     S
C96    H123    1.089   .     S
C96    C98     1.527   .     S
C96    N137    1.452   .     S
C97    H134    1.074   .     S
C97    C102    1.397   .     A
C98    H120    1.101   .     S
C98    H121    1.106   .     S
C98    H122    1.111   .     S
C99    H130    1.092   .     S
C99    C100    1.520   .     S
C99    H128    1.094   .     S
C99    N138    1.462   .     S
C100   H126    1.104   .     S
C100   H125    1.107   .     S
C100   H127    1.109   .     S
C101   C103    1.387   .     A
C101   H135    1.083   .     S
C102   H107    1.081   .     S
C102   C754    1.396   1_554 S
C103   H118    1.084   .     S
C103   C755    1.395   .     S
C104   C253    1.332   .     S
C104   H358    1.088   .     S
C105   C622    1.332   1_545 S
C105   H552    1.082   1_545 S
C106   O145    1.317   .     A
H108   C327    1.082   .     S
H132   C153    1.079   .     S
H136   C548    1.088   1_545 S
N137   Zn148   2.063   .     S
N137   N138    1.289   .     D
N138   Zn147   2.063   .     S
O139   Zn147   1.963   .     S
O139   C149    1.299   .     S
O140   Zn148   1.963   .     S
O141   Zn148   1.973   .     S
O142   Zn147   1.973   .     S
O143   Zn147   1.965   .     S
O143   C180    1.316   .     S
O144   Zn148   1.965   .     S
O145   Zn148   1.940   .     S
O146   Zn147   1.940   .     S
C149   C178    1.403   .     S
C149   O215    1.302   .     A
C150   C152    1.446   .     S
C150   O220    1.309   .     A
C150   O70     1.311   1_655 S
C151   C157    1.410   .     A
C151   C180    1.471   .     S
C152   C158    1.406   .     A
C152   C156    1.400   .     A
C153   C162    1.400   .     A
C154   C163    1.397   .     A
C154   C156    1.386   .     A
C154   H207    1.084   .     S
C155   H205    1.082   .     S
C155   C3      1.408   1_655 S
C155   C5      1.397   1_655 S
C156   H55     1.082   1_655 S
C157   C159    1.396   .     A
C157   C168    1.530   .     S
C158   C166    1.539   .     S
C158   C161    1.414   .     A
C159   C164    1.398   .     A
C159   C162    1.405   .     A
C160   O216    1.305   .     A
C160   C179    1.402   .     S
C160   O66     1.296   1_655 S
C161   C165    1.412   .     A
C161   C163    1.425   .     A
C162   C842    1.396   .     S
C163   C843    1.395   1_554 S
C164   C175    1.407   .     A
C164   C831    1.403   .     S
C165   C171    1.413   .     A
C165   C830    1.403   1_554 S
C166   H186    1.103   .     S
C166   C167    1.529   .     S
C166   H187    1.111   .     S
C167   H183    1.109   .     S
C167   H184    1.107   .     S
C167   H185    1.111   .     S
C168   H193    1.095   .     S
C168   H191    1.109   .     S
C168   C169    1.537   .     S
C169   H188    1.108   .     S
C169   H189    1.107   .     S
C169   H190    1.111   .     S
C170   H198    1.111   .     S
C170   H197    1.089   .     S
C170   C172    1.527   .     S
C170   N211    1.452   .     S
C171   H208    1.074   .     S
C171   C176    1.397   .     A
C172   H194    1.101   .     S
C172   H195    1.106   .     S
C172   H196    1.111   .     S
C173   H204    1.092   .     S
C173   C174    1.520   .     S
C173   H202    1.094   .     S
C173   N212    1.462   .     S
C174   H200    1.104   .     S
C174   H199    1.107   .     S
C174   H201    1.109   .     S
C175   C177    1.387   .     A
C175   H209    1.083   .     S
C176   H181    1.081   .     S
C176   C828    1.396   1_554 S
C177   H192    1.084   .     S
C177   C829    1.395   .     S
C178   C327    1.332   .     S
C178   H432    1.088   .     S
C179   C474    1.332   1_645 S
C179   H626    1.082   1_545 S
C180   O219    1.317   .     A
H182   C401    1.082   .     S
H206   C5      1.079   1_655 S
H210   C622    1.088   1_545 S
N211   Zn222   2.063   .     S
N211   N212    1.289   .     D
N212   Zn221   2.063   .     S
O213   Zn221   1.963   .     S
O213   C1      1.299   1_655 S
O214   Zn222   1.963   .     S
O215   Zn222   1.973   .     S
O216   Zn221   1.973   .     S
O217   Zn221   1.965   .     S
O217   C32     1.316   1_655 S
O218   Zn222   1.965   .     S
O219   Zn222   1.940   .     S
O220   Zn221   1.940   .     S
C223   C252    1.403   .     S
C223   O289    1.302   .     A
C223   O435    1.299   1_455 S
C224   C226    1.446   .     S
C224   O294    1.309   .     A
C224   O366    1.311   .     S
C225   C231    1.410   .     A
C225   C254    1.471   .     S
C225   C377    1.408   1_455 S
C226   C232    1.406   .     A
C226   C230    1.400   .     A
C227   C236    1.400   .     A
C227   C377    1.397   1_455 S
C227   H428    1.079   1_455 S
C228   C237    1.397   .     A
C228   C230    1.386   .     A
C228   H281    1.084   .     S
C229   H279    1.082   .     S
C229   C299    1.408   .     S
C229   C301    1.397   .     S
C230   H351    1.082   .     S
C231   C233    1.396   .     A
C231   C242    1.530   .     S
C232   C240    1.539   .     S
C232   C235    1.414   .     A
C233   C238    1.398   .     A
C233   C236    1.405   .     A
C234   O290    1.305   .     A
C234   C253    1.402   .     S
C234   O362    1.296   .     S
C235   C239    1.412   .     A
C235   C237    1.425   .     A
C236   C916    1.396   .     S
C237   C917    1.395   1_554 S
C238   C249    1.407   .     A
C238   C905    1.403   .     S
C239   C245    1.413   .     A
C239   C904    1.403   1_554 S
C240   H260    1.103   .     S
C240   C241    1.529   .     S
C240   H261    1.111   .     S
C241   H257    1.109   .     S
C241   H258    1.107   .     S
C241   H259    1.111   .     S
C242   H267    1.095   .     S
C242   H265    1.109   .     S
C242   C243    1.537   .     S
C243   H262    1.108   .     S
C243   H263    1.107   .     S
C243   H264    1.111   .     S
C244   H272    1.111   .     S
C244   H271    1.089   .     S
C244   C246    1.527   .     S
C244   N285    1.452   .     S
C245   H282    1.074   .     S
C245   C250    1.397   .     A
C246   H268    1.101   .     S
C246   H269    1.106   .     S
C246   H270    1.111   .     S
C247   H278    1.092   .     S
C247   C248    1.520   .     S
C247   H276    1.094   .     S
C247   N286    1.462   .     S
C248   H274    1.104   .     S
C248   H273    1.107   .     S
C248   H275    1.109   .     S
C249   C251    1.387   .     A
C249   H283    1.083   .     S
C250   H255    1.081   .     S
C250   C902    1.396   1_554 S
C251   H266    1.084   .     S
C251   C903    1.395   .     S
C252   C623    1.332   1_455 S
C252   H506    1.088   .     S
C254   O293    1.317   .     A
C254   O439    1.316   1_455 S
H256   C475    1.082   .     S
H277   C378    1.082   1_455 S
H280   C301    1.079   .     S
N285   Zn296   2.063   .     S
N285   N286    1.289   .     D
N286   Zn295   2.063   .     S
O287   Zn295   1.963   .     S
O287   C297    1.299   .     S
O288   Zn296   1.963   .     S
O288   C382    1.296   1_455 S
O289   Zn296   1.973   .     S
O290   Zn295   1.973   .     S
O291   Zn295   1.965   .     S
O291   C328    1.316   .     S
O292   Zn296   1.965   .     S
O292   C372    1.311   1_455 S
O293   Zn296   1.940   .     S
O294   Zn295   1.940   .     S
C297   C326    1.403   .     S
C297   O363    1.302   .     A
C298   C300    1.446   .     S
C298   O368    1.309   .     A
C298   O440    1.311   .     S
C299   C305    1.410   .     A
C299   C328    1.471   .     S
C300   C306    1.406   .     A
C300   C304    1.400   .     A
C301   C310    1.400   .     A
C302   C311    1.397   .     A
C302   C304    1.386   .     A
C302   H355    1.084   .     S
C303   H353    1.082   .     S
C303   C373    1.408   .     S
C303   C375    1.397   .     S
C304   H425    1.082   .     S
C305   C307    1.396   .     A
C305   C316    1.530   .     S
C306   C314    1.539   .     S
C306   C309    1.414   .     A
C307   C312    1.398   .     A
C307   C310    1.405   .     A
C308   O364    1.305   .     A
C308   C327    1.402   .     S
C308   O436    1.296   .     S
C309   C313    1.412   .     A
C309   C311    1.425   .     A
C310   C990    1.396   .     S
C311   C991    1.395   1_554 S
C312   C323    1.407   .     A
C312   C979    1.403   .     S
C313   C319    1.413   .     A
C313   C978    1.403   1_554 S
C314   H334    1.103   .     S
C314   C315    1.529   .     S
C314   H335    1.111   .     S
C315   H331    1.109   .     S
C315   H332    1.107   .     S
C315   H333    1.111   .     S
C316   H341    1.095   .     S
C316   H339    1.109   .     S
C316   C317    1.537   .     S
C317   H336    1.108   .     S
C317   H337    1.107   .     S
C317   H338    1.111   .     S
C318   H346    1.111   .     S
C318   H345    1.089   .     S
C318   C320    1.527   .     S
C318   N359    1.452   .     S
C319   H356    1.074   .     S
C319   C324    1.397   .     A
C320   H342    1.101   .     S
C320   H343    1.106   .     S
C320   H344    1.111   .     S
C321   H352    1.092   .     S
C321   C322    1.520   .     S
C321   H350    1.094   .     S
C321   N360    1.462   .     S
C322   H348    1.104   .     S
C322   H347    1.107   .     S
C322   H349    1.109   .     S
C323   C325    1.387   .     A
C323   H357    1.083   .     S
C324   H329    1.081   .     S
C324   C976    1.396   1_554 S
C325   H340    1.084   .     S
C325   C977    1.395   .     S
C326   C475    1.332   .     S
C326   H580    1.088   .     S
C328   O367    1.317   .     A
H330   C549    1.082   .     S
H354   C375    1.079   .     S
N359   Zn370   2.063   .     S
N359   N360    1.289   .     D
N360   Zn369   2.063   .     S
O361   Zn369   1.963   .     S
O361   C371    1.299   .     S
O362   Zn370   1.963   .     S
O363   Zn370   1.973   .     S
O364   Zn369   1.973   .     S
O365   Zn369   1.965   .     S
O365   C402    1.316   .     S
O366   Zn370   1.965   .     S
O367   Zn370   1.940   .     S
O368   Zn369   1.940   .     S
C371   C400    1.403   .     S
C371   O437    1.302   .     A
C372   C374    1.446   .     S
C372   O442    1.309   .     A
C372   O292    1.311   1_655 S
C373   C379    1.410   .     A
C373   C402    1.471   .     S
C374   C380    1.406   .     A
C374   C378    1.400   .     A
C375   C384    1.400   .     A
C376   C385    1.397   .     A
C376   C378    1.386   .     A
C376   H429    1.084   .     S
C377   H427    1.082   .     S
C377   C225    1.408   1_655 S
C377   C227    1.397   1_655 S
C378   H277    1.082   1_655 S
C379   C381    1.396   .     A
C379   C390    1.530   .     S
C380   C388    1.539   .     S
C380   C383    1.414   .     A
C381   C386    1.398   .     A
C381   C384    1.405   .     A
C382   O438    1.305   .     A
C382   C401    1.402   .     S
C382   O288    1.296   1_655 S
C383   C387    1.412   .     A
C383   C385    1.425   .     A
C384   C1064   1.396   .     S
C385   C1065   1.395   1_554 S
C386   C397    1.407   .     A
C386   C1053   1.403   .     S
C387   C393    1.413   .     A
C387   C1052   1.403   1_554 S
C388   H408    1.103   .     S
C388   C389    1.529   .     S
C388   H409    1.111   .     S
C389   H405    1.109   .     S
C389   H406    1.107   .     S
C389   H407    1.111   .     S
C390   H415    1.095   .     S
C390   H413    1.109   .     S
C390   C391    1.537   .     S
C391   H410    1.108   .     S
C391   H411    1.107   .     S
C391   H412    1.111   .     S
C392   H420    1.111   .     S
C392   H419    1.089   .     S
C392   C394    1.527   .     S
C392   N433    1.452   .     S
C393   H430    1.074   .     S
C393   C398    1.397   .     A
C394   H416    1.101   .     S
C394   H417    1.106   .     S
C394   H418    1.111   .     S
C395   H426    1.092   .     S
C395   C396    1.520   .     S
C395   H424    1.094   .     S
C395   N434    1.462   .     S
C396   H422    1.104   .     S
C396   H421    1.107   .     S
C396   H423    1.109   .     S
C397   C399    1.387   .     A
C397   H431    1.083   .     S
C398   H403    1.081   .     S
C398   C1050   1.396   1_554 S
C399   H414    1.084   .     S
C399   C1051   1.395   .     S
C400   C549    1.332   .     S
C400   H654    1.088   .     S
C401   C30     1.332   1_655 S
C402   O441    1.317   .     A
H404   C623    1.082   .     S
H428   C227    1.079   1_655 S
N433   Zn444   2.063   .     S
N433   N434    1.289   .     D
N434   Zn443   2.063   .     S
O435   Zn443   1.963   .     S
O435   C223    1.299   1_655 S
O436   Zn444   1.963   .     S
O437   Zn444   1.973   .     S
O438   Zn443   1.973   .     S
O439   Zn443   1.965   .     S
O439   C254    1.316   1_655 S
O440   Zn444   1.965   .     S
O441   Zn444   1.940   .     S
O442   Zn443   1.940   .     S
C445   C474    1.403   .     S
C445   O511    1.302   .     A
C445   O657    1.299   1_455 S
C446   C448    1.446   .     S
C446   O516    1.309   .     A
C446   O588    1.311   .     S
C447   C453    1.410   .     A
C447   C476    1.471   .     S
C447   C599    1.408   1_455 S
C448   C454    1.406   .     A
C448   C452    1.400   .     A
C449   C458    1.400   .     A
C449   C599    1.397   1_455 S
C449   H650    1.079   1_455 S
C450   C459    1.397   .     A
C450   C452    1.386   .     A
C450   H503    1.084   .     S
C451   H501    1.082   .     S
C451   C521    1.408   .     S
C451   C523    1.397   .     S
C452   H573    1.082   .     S
C453   C455    1.396   .     A
C453   C464    1.530   .     S
C454   C462    1.539   .     S
C454   C457    1.414   .     A
C455   C460    1.398   .     A
C455   C458    1.405   .     A
C456   O512    1.305   .     A
C456   C475    1.402   .     S
C456   O584    1.296   .     S
C457   C461    1.412   .     A
C457   C459    1.425   .     A
C458   C1138   1.396   .     S
C459   C1139   1.395   1_554 S
C460   C471    1.407   .     A
C460   C1127   1.403   .     S
C461   C467    1.413   .     A
C461   C1126   1.403   1_554 S
C462   H482    1.103   .     S
C462   C463    1.529   .     S
C462   H483    1.111   .     S
C463   H479    1.109   .     S
C463   H480    1.107   .     S
C463   H481    1.111   .     S
C464   H489    1.095   .     S
C464   H487    1.109   .     S
C464   C465    1.537   .     S
C465   H484    1.108   .     S
C465   H485    1.107   .     S
C465   H486    1.111   .     S
C466   H494    1.111   .     S
C466   H493    1.089   .     S
C466   C468    1.527   .     S
C466   N507    1.452   .     S
C467   H504    1.074   .     S
C467   C472    1.397   .     A
C468   H490    1.101   .     S
C468   H491    1.106   .     S
C468   H492    1.111   .     S
C469   H500    1.092   .     S
C469   C470    1.520   .     S
C469   H498    1.094   .     S
C469   N508    1.462   .     S
C470   H496    1.104   .     S
C470   H495    1.107   .     S
C470   H497    1.109   .     S
C471   C473    1.387   .     A
C471   H505    1.083   .     S
C472   H477    1.081   .     S
C472   C1124   1.396   1_554 S
C473   H488    1.084   .     S
C473   C1125   1.395   .     S
C474   C179    1.332   1_465 S
C474   H62     1.088   1_565 S
C476   O515    1.317   .     A
C476   O661    1.316   1_455 S
H478   C31     1.082   1_565 S
H499   C600    1.082   1_455 S
H502   C523    1.079   .     S
N507   Zn518   2.063   .     S
N507   N508    1.289   .     D
N508   Zn517   2.063   .     S
O509   Zn517   1.963   .     S
O509   C519    1.299   .     S
O510   Zn518   1.963   .     S
O510   C604    1.296   1_455 S
O511   Zn518   1.973   .     S
O512   Zn517   1.973   .     S
O513   Zn517   1.965   .     S
O513   C550    1.316   .     S
O514   Zn518   1.965   .     S
O514   C594    1.311   1_455 S
O515   Zn518   1.940   .     S
O516   Zn517   1.940   .     S
C519   C548    1.403   .     S
C519   O585    1.302   .     A
C520   C522    1.446   .     S
C520   O590    1.309   .     A
C520   O662    1.311   .     S
C521   C527    1.410   .     A
C521   C550    1.471   .     S
C522   C528    1.406   .     A
C522   C526    1.400   .     A
C523   C532    1.400   .     A
C524   C533    1.397   .     A
C524   C526    1.386   .     A
C524   H577    1.084   .     S
C525   H575    1.082   .     S
C525   C595    1.408   .     S
C525   C597    1.397   .     S
C526   H647    1.082   .     S
C527   C529    1.396   .     A
C527   C538    1.530   .     S
C528   C536    1.539   .     S
C528   C531    1.414   .     A
C529   C534    1.398   .     A
C529   C532    1.405   .     A
C530   O586    1.305   .     A
C530   C549    1.402   .     S
C530   O658    1.296   .     S
C531   C535    1.412   .     A
C531   C533    1.425   .     A
C532   C1212   1.396   .     S
C533   C1213   1.395   1_554 S
C534   C545    1.407   .     A
C534   C1201   1.403   .     S
C535   C541    1.413   .     A
C535   C1200   1.403   1_554 S
C536   H556    1.103   .     S
C536   C537    1.529   .     S
C536   H557    1.111   .     S
C537   H553    1.109   .     S
C537   H554    1.107   .     S
C537   H555    1.111   .     S
C538   H563    1.095   .     S
C538   H561    1.109   .     S
C538   C539    1.537   .     S
C539   H558    1.108   .     S
C539   H559    1.107   .     S
C539   H560    1.111   .     S
C540   H568    1.111   .     S
C540   H567    1.089   .     S
C540   C542    1.527   .     S
C540   N581    1.452   .     S
C541   H578    1.074   .     S
C541   C546    1.397   .     A
C542   H564    1.101   .     S
C542   H565    1.106   .     S
C542   H566    1.111   .     S
C543   H574    1.092   .     S
C543   C544    1.520   .     S
C543   H572    1.094   .     S
C543   N582    1.462   .     S
C544   H570    1.104   .     S
C544   H569    1.107   .     S
C544   H571    1.109   .     S
C545   C547    1.387   .     A
C545   H579    1.083   .     S
C546   H551    1.081   .     S
C546   C1198   1.396   1_554 S
C547   H562    1.084   .     S
C547   C1199   1.395   .     S
C548   C31     1.332   1_565 S
C548   H136    1.088   1_565 S
C550   O589    1.317   .     A
H552   C105    1.082   1_565 S
H576   C597    1.079   .     S
N581   Zn592   2.063   .     S
N581   N582    1.289   .     D
N582   Zn591   2.063   .     S
O583   Zn591   1.963   .     S
O583   C593    1.299   .     S
O584   Zn592   1.963   .     S
O585   Zn592   1.973   .     S
O586   Zn591   1.973   .     S
O587   Zn591   1.965   .     S
O587   C624    1.316   .     S
O588   Zn592   1.965   .     S
O589   Zn592   1.940   .     S
O590   Zn591   1.940   .     S
C593   C622    1.403   .     S
C593   O659    1.302   .     A
C594   C596    1.446   .     S
C594   O664    1.309   .     A
C594   O514    1.311   1_655 S
C595   C601    1.410   .     A
C595   C624    1.471   .     S
C596   C602    1.406   .     A
C596   C600    1.400   .     A
C597   C606    1.400   .     A
C598   C607    1.397   .     A
C598   C600    1.386   .     A
C598   H651    1.084   .     S
C599   H649    1.082   .     S
C599   C447    1.408   1_655 S
C599   C449    1.397   1_655 S
C600   H499    1.082   1_655 S
C601   C603    1.396   .     A
C601   C612    1.530   .     S
C602   C610    1.539   .     S
C602   C605    1.414   .     A
C603   C608    1.398   .     A
C603   C606    1.405   .     A
C604   O660    1.305   .     A
C604   C623    1.402   .     S
C604   O510    1.296   1_655 S
C605   C609    1.412   .     A
C605   C607    1.425   .     A
C606   C1286   1.396   .     S
C607   C1287   1.395   1_554 S
C608   C619    1.407   .     A
C608   C1275   1.403   .     S
C609   C615    1.413   .     A
C609   C1274   1.403   1_554 S
C610   H630    1.103   .     S
C610   C611    1.529   .     S
C610   H631    1.111   .     S
C611   H627    1.109   .     S
C611   H628    1.107   .     S
C611   H629    1.111   .     S
C612   H637    1.095   .     S
C612   H635    1.109   .     S
C612   C613    1.537   .     S
C613   H632    1.108   .     S
C613   H633    1.107   .     S
C613   H634    1.111   .     S
C614   H642    1.111   .     S
C614   H641    1.089   .     S
C614   C616    1.527   .     S
C614   N655    1.452   .     S
C615   H652    1.074   .     S
C615   C620    1.397   .     A
C616   H638    1.101   .     S
C616   H639    1.106   .     S
C616   H640    1.111   .     S
C617   H648    1.092   .     S
C617   C618    1.520   .     S
C617   H646    1.094   .     S
C617   N656    1.462   .     S
C618   H644    1.104   .     S
C618   H643    1.107   .     S
C618   H645    1.109   .     S
C619   C621    1.387   .     A
C619   H653    1.083   .     S
C620   H625    1.081   .     S
C620   C1272   1.396   1_554 S
C621   H636    1.084   .     S
C621   C1273   1.395   .     S
C622   C105    1.332   1_565 S
C622   H210    1.088   1_565 S
C623   C252    1.332   1_655 S
C624   O663    1.317   .     A
H626   C179    1.082   1_565 S
H650   C449    1.079   1_655 S
N655   Zn666   2.063   .     S
N655   N656    1.289   .     D
N656   Zn665   2.063   .     S
O657   Zn665   1.963   .     S
O657   C445    1.299   1_655 S
O658   Zn666   1.963   .     S
O659   Zn666   1.973   .     S
O660   Zn665   1.973   .     S
O661   Zn665   1.965   .     S
O661   C476    1.316   1_655 S
O662   Zn666   1.965   .     S
O663   Zn666   1.940   .     S
O664   Zn665   1.940   .     S
C667   C696    1.403   .     S
C667   O733    1.302   .     A
C667   O879    1.299   1_455 S
C668   C670    1.446   .     S
C668   O738    1.309   .     A
C668   O810    1.311   .     S
C669   C675    1.410   .     A
C669   C698    1.471   .     S
C669   C821    1.408   1_455 S
C670   C676    1.406   .     A
C670   C674    1.400   .     A
C671   C680    1.400   .     A
C671   C821    1.397   1_455 S
C671   H872    1.079   1_455 S
C672   C681    1.397   .     A
C672   C674    1.386   .     A
C672   H725    1.084   .     S
C673   H723    1.082   .     S
C673   C743    1.408   .     S
C673   C745    1.397   .     S
C674   H795    1.082   .     S
C675   C677    1.396   .     A
C675   C686    1.530   .     S
C676   C684    1.539   .     S
C676   C679    1.414   .     A
C677   C682    1.398   .     A
C677   C680    1.405   .     A
C678   O734    1.305   .     A
C678   C697    1.402   .     S
C678   O806    1.296   .     S
C679   C683    1.412   .     A
C679   C681    1.425   .     A
C680   C28     1.396   1_556 S
C682   C693    1.407   .     A
C682   C17     1.403   1_556 S
C683   C689    1.413   .     A
C684   H704    1.103   .     S
C684   C685    1.529   .     S
C684   H705    1.111   .     S
C685   H701    1.109   .     S
C685   H702    1.107   .     S
C685   H703    1.111   .     S
C686   H711    1.095   .     S
C686   H709    1.109   .     S
C686   C687    1.537   .     S
C687   H706    1.108   .     S
C687   H707    1.107   .     S
C687   H708    1.111   .     S
C688   H716    1.111   .     S
C688   H715    1.089   .     S
C688   C690    1.527   .     S
C688   N729    1.452   .     S
C689   H726    1.074   .     S
C689   C694    1.397   .     A
C690   H712    1.101   .     S
C690   H713    1.106   .     S
C690   H714    1.111   .     S
C691   H722    1.092   .     S
C691   C692    1.520   .     S
C691   H720    1.094   .     S
C691   N730    1.462   .     S
C692   H718    1.104   .     S
C692   H717    1.107   .     S
C692   H719    1.109   .     S
C693   C695    1.387   .     A
C693   H727    1.083   .     S
C694   H699    1.081   .     S
C695   H710    1.084   .     S
C695   C15     1.395   1_556 S
C696   C1067   1.332   1_455 S
C696   H950    1.088   .     S
C697   C1214   1.332   1_545 S
C697   H1144   1.082   1_545 S
C698   O737    1.317   .     A
C698   O883    1.316   1_455 S
H700   C919    1.082   .     S
H721   C822    1.082   1_455 S
H724   C745    1.079   .     S
H728   C1140   1.088   1_545 S
N729   Zn740   2.063   .     S
N729   N730    1.289   .     D
N730   Zn739   2.063   .     S
O731   Zn739   1.963   .     S
O731   C741    1.299   .     S
O732   Zn740   1.963   .     S
O732   C826    1.296   1_455 S
O733   Zn740   1.973   .     S
O734   Zn739   1.973   .     S
O735   Zn739   1.965   .     S
O735   C772    1.316   .     S
O736   Zn740   1.965   .     S
O736   C816    1.311   1_455 S
O737   Zn740   1.940   .     S
O738   Zn739   1.940   .     S
C741   C770    1.403   .     S
C741   O807    1.302   .     A
C742   C744    1.446   .     S
C742   O812    1.309   .     A
C742   O884    1.311   .     S
C743   C749    1.410   .     A
C743   C772    1.471   .     S
C744   C750    1.406   .     A
C744   C748    1.400   .     A
C745   C754    1.400   .     A
C746   C755    1.397   .     A
C746   C748    1.386   .     A
C746   H799    1.084   .     S
C747   H797    1.082   .     S
C747   C817    1.408   .     S
C747   C819    1.397   .     S
C748   H869    1.082   .     S
C749   C751    1.396   .     A
C749   C760    1.530   .     S
C750   C758    1.539   .     S
C750   C753    1.414   .     A
C751   C756    1.398   .     A
C751   C754    1.405   .     A
C752   O808    1.305   .     A
C752   C771    1.402   .     S
C752   O880    1.296   .     S
C753   C757    1.412   .     A
C753   C755    1.425   .     A
C754   C102    1.396   1_556 S
C756   C767    1.407   .     A
C756   C91     1.403   1_556 S
C757   C763    1.413   .     A
C758   H778    1.103   .     S
C758   C759    1.529   .     S
C758   H779    1.111   .     S
C759   H775    1.109   .     S
C759   H776    1.107   .     S
C759   H777    1.111   .     S
C760   H785    1.095   .     S
C760   H783    1.109   .     S
C760   C761    1.537   .     S
C761   H780    1.108   .     S
C761   H781    1.107   .     S
C761   H782    1.111   .     S
C762   H790    1.111   .     S
C762   H789    1.089   .     S
C762   C764    1.527   .     S
C762   N803    1.452   .     S
C763   H800    1.074   .     S
C763   C768    1.397   .     A
C764   H786    1.101   .     S
C764   H787    1.106   .     S
C764   H788    1.111   .     S
C765   H796    1.092   .     S
C765   C766    1.520   .     S
C765   H794    1.094   .     S
C765   N804    1.462   .     S
C766   H792    1.104   .     S
C766   H791    1.107   .     S
C766   H793    1.109   .     S
C767   C769    1.387   .     A
C767   H801    1.083   .     S
C768   H773    1.081   .     S
C769   H784    1.084   .     S
C769   C89     1.395   1_556 S
C770   C919    1.332   .     S
C770   H1024   1.088   .     S
C771   C1288   1.332   1_545 S
C771   H1218   1.082   1_545 S
C772   O811    1.317   .     A
H774   C993    1.082   .     S
H798   C819    1.079   .     S
H802   C1214   1.088   1_545 S
N803   Zn814   2.063   .     S
N803   N804    1.289   .     D
N804   Zn813   2.063   .     S
O805   Zn813   1.963   .     S
O805   C815    1.299   .     S
O806   Zn814   1.963   .     S
O807   Zn814   1.973   .     S
O808   Zn813   1.973   .     S
O809   Zn813   1.965   .     S
O809   C846    1.316   .     S
O810   Zn814   1.965   .     S
O811   Zn814   1.940   .     S
O812   Zn813   1.940   .     S
C815   C844    1.403   .     S
C815   O881    1.302   .     A
C816   C818    1.446   .     S
C816   O886    1.309   .     A
C816   O736    1.311   1_655 S
C817   C823    1.410   .     A
C817   C846    1.471   .     S
C818   C824    1.406   .     A
C818   C822    1.400   .     A
C819   C828    1.400   .     A
C820   C829    1.397   .     A
C820   C822    1.386   .     A
C820   H873    1.084   .     S
C821   H871    1.082   .     S
C821   C669    1.408   1_655 S
C821   C671    1.397   1_655 S
C822   H721    1.082   1_655 S
C823   C825    1.396   .     A
C823   C834    1.530   .     S
C824   C832    1.539   .     S
C824   C827    1.414   .     A
C825   C830    1.398   .     A
C825   C828    1.405   .     A
C826   O882    1.305   .     A
C826   C845    1.402   .     S
C826   O732    1.296   1_655 S
C827   C831    1.412   .     A
C827   C829    1.425   .     A
C828   C176    1.396   1_556 S
C830   C841    1.407   .     A
C830   C165    1.403   1_556 S
C831   C837    1.413   .     A
C832   H852    1.103   .     S
C832   C833    1.529   .     S
C832   H853    1.111   .     S
C833   H849    1.109   .     S
C833   H850    1.107   .     S
C833   H851    1.111   .     S
C834   H859    1.095   .     S
C834   H857    1.109   .     S
C834   C835    1.537   .     S
C835   H854    1.108   .     S
C835   H855    1.107   .     S
C835   H856    1.111   .     S
C836   H864    1.111   .     S
C836   H863    1.089   .     S
C836   C838    1.527   .     S
C836   N877    1.452   .     S
C837   H874    1.074   .     S
C837   C842    1.397   .     A
C838   H860    1.101   .     S
C838   H861    1.106   .     S
C838   H862    1.111   .     S
C839   H870    1.092   .     S
C839   C840    1.520   .     S
C839   H868    1.094   .     S
C839   N878    1.462   .     S
C840   H866    1.104   .     S
C840   H865    1.107   .     S
C840   H867    1.109   .     S
C841   C843    1.387   .     A
C841   H875    1.083   .     S
C842   H847    1.081   .     S
C843   H858    1.084   .     S
C843   C163    1.395   1_556 S
C844   C993    1.332   .     S
C844   H1098   1.088   .     S
C845   C1140   1.332   1_645 S
C845   H1292   1.082   1_545 S
C846   O885    1.317   .     A
H848   C1067   1.082   .     S
H872   C671    1.079   1_655 S
H876   C1288   1.088   1_545 S
N877   Zn888   2.063   .     S
N877   N878    1.289   .     D
N878   Zn887   2.063   .     S
O879   Zn887   1.963   .     S
O879   C667    1.299   1_655 S
O880   Zn888   1.963   .     S
O881   Zn888   1.973   .     S
O882   Zn887   1.973   .     S
O883   Zn887   1.965   .     S
O883   C698    1.316   1_655 S
O884   Zn888   1.965   .     S
O885   Zn888   1.940   .     S
O886   Zn887   1.940   .     S
C889   C918    1.403   .     S
C889   O955    1.302   .     A
C889   O1101   1.299   1_455 S
C890   C892    1.446   .     S
C890   O960    1.309   .     A
C890   O1032   1.311   .     S
C891   C897    1.410   .     A
C891   C920    1.471   .     S
C891   C1043   1.408   1_455 S
C892   C898    1.406   .     A
C892   C896    1.400   .     A
C893   C902    1.400   .     A
C893   C1043   1.397   1_455 S
C893   H1094   1.079   1_455 S
C894   C903    1.397   .     A
C894   C896    1.386   .     A
C894   H947    1.084   .     S
C895   H945    1.082   .     S
C895   C965    1.408   .     S
C895   C967    1.397   .     S
C896   H1017   1.082   .     S
C897   C899    1.396   .     A
C897   C908    1.530   .     S
C898   C906    1.539   .     S
C898   C901    1.414   .     A
C899   C904    1.398   .     A
C899   C902    1.405   .     A
C900   O956    1.305   .     A
C900   C919    1.402   .     S
C900   O1028   1.296   .     S
C901   C905    1.412   .     A
C901   C903    1.425   .     A
C902   C250    1.396   1_556 S
C904   C915    1.407   .     A
C904   C239    1.403   1_556 S
C905   C911    1.413   .     A
C906   H926    1.103   .     S
C906   C907    1.529   .     S
C906   H927    1.111   .     S
C907   H923    1.109   .     S
C907   H924    1.107   .     S
C907   H925    1.111   .     S
C908   H933    1.095   .     S
C908   H931    1.109   .     S
C908   C909    1.537   .     S
C909   H928    1.108   .     S
C909   H929    1.107   .     S
C909   H930    1.111   .     S
C910   H938    1.111   .     S
C910   H937    1.089   .     S
C910   C912    1.527   .     S
C910   N951    1.452   .     S
C911   H948    1.074   .     S
C911   C916    1.397   .     A
C912   H934    1.101   .     S
C912   H935    1.106   .     S
C912   H936    1.111   .     S
C913   H944    1.092   .     S
C913   C914    1.520   .     S
C913   H942    1.094   .     S
C913   N952    1.462   .     S
C914   H940    1.104   .     S
C914   H939    1.107   .     S
C914   H941    1.109   .     S
C915   C917    1.387   .     A
C915   H949    1.083   .     S
C916   H921    1.081   .     S
C917   H932    1.084   .     S
C917   C237    1.395   1_556 S
C918   C1289   1.332   1_455 S
C918   H1172   1.088   .     S
C920   O959    1.317   .     A
C920   O1105   1.316   1_455 S
H922   C1141   1.082   .     S
H943   C1044   1.082   1_455 S
H946   C967    1.079   .     S
N951   Zn962   2.063   .     S
N951   N952    1.289   .     D
N952   Zn961   2.063   .     S
O953   Zn961   1.963   .     S
O953   C963    1.299   .     S
O954   Zn962   1.963   .     S
O954   C1048   1.296   1_455 S
O955   Zn962   1.973   .     S
O956   Zn961   1.973   .     S
O957   Zn961   1.965   .     S
O957   C994    1.316   .     S
O958   Zn962   1.965   .     S
O958   C1038   1.311   1_455 S
O959   Zn962   1.940   .     S
O960   Zn961   1.940   .     S
C963   C992    1.403   .     S
C963   O1029   1.302   .     A
C964   C966    1.446   .     S
C964   O1034   1.309   .     A
C964   O1106   1.311   .     S
C965   C971    1.410   .     A
C965   C994    1.471   .     S
C966   C972    1.406   .     A
C966   C970    1.400   .     A
C967   C976    1.400   .     A
C968   C977    1.397   .     A
C968   C970    1.386   .     A
C968   H1021   1.084   .     S
C969   H1019   1.082   .     S
C969   C1039   1.408   .     S
C969   C1041   1.397   .     S
C970   H1091   1.082   .     S
C971   C973    1.396   .     A
C971   C982    1.530   .     S
C972   C980    1.539   .     S
C972   C975    1.414   .     A
C973   C978    1.398   .     A
C973   C976    1.405   .     A
C974   O1030   1.305   .     A
C974   C993    1.402   .     S
C974   O1102   1.296   .     S
C975   C979    1.412   .     A
C975   C977    1.425   .     A
C976   C324    1.396   1_556 S
C978   C989    1.407   .     A
C978   C313    1.403   1_556 S
C979   C985    1.413   .     A
C980   H1000   1.103   .     S
C980   C981    1.529   .     S
C980   H1001   1.111   .     S
C981   H997    1.109   .     S
C981   H998    1.107   .     S
C981   H999    1.111   .     S
C982   H1007   1.095   .     S
C982   H1005   1.109   .     S
C982   C983    1.537   .     S
C983   H1002   1.108   .     S
C983   H1003   1.107   .     S
C983   H1004   1.111   .     S
C984   H1012   1.111   .     S
C984   H1011   1.089   .     S
C984   C986    1.527   .     S
C984   N1025   1.452   .     S
C985   H1022   1.074   .     S
C985   C990    1.397   .     A
C986   H1008   1.101   .     S
C986   H1009   1.106   .     S
C986   H1010   1.111   .     S
C987   H1018   1.092   .     S
C987   C988    1.520   .     S
C987   H1016   1.094   .     S
C987   N1026   1.462   .     S
C988   H1014   1.104   .     S
C988   H1013   1.107   .     S
C988   H1015   1.109   .     S
C989   C991    1.387   .     A
C989   H1023   1.083   .     S
C990   H995    1.081   .     S
C991   H1006   1.084   .     S
C991   C311    1.395   1_556 S
C992   C1141   1.332   .     S
C992   H1246   1.088   .     S
C994   O1033   1.317   .     A
H996   C1215   1.082   .     S
H1020  C1041   1.079   .     S
N1025  Zn1036  2.063   .     S
N1025  N1026   1.289   .     D
N1026  Zn1035  2.063   .     S
O1027  Zn1035  1.963   .     S
O1027  C1037   1.299   .     S
O1028  Zn1036  1.963   .     S
O1029  Zn1036  1.973   .     S
O1030  Zn1035  1.973   .     S
O1031  Zn1035  1.965   .     S
O1031  C1068   1.316   .     S
O1032  Zn1036  1.965   .     S
O1033  Zn1036  1.940   .     S
O1034  Zn1035  1.940   .     S
C1037  C1066   1.403   .     S
C1037  O1103   1.302   .     A
C1038  C1040   1.446   .     S
C1038  O1108   1.309   .     A
C1038  O958    1.311   1_655 S
C1039  C1045   1.410   .     A
C1039  C1068   1.471   .     S
C1040  C1046   1.406   .     A
C1040  C1044   1.400   .     A
C1041  C1050   1.400   .     A
C1042  C1051   1.397   .     A
C1042  C1044   1.386   .     A
C1042  H1095   1.084   .     S
C1043  H1093   1.082   .     S
C1043  C891    1.408   1_655 S
C1043  C893    1.397   1_655 S
C1044  H943    1.082   1_655 S
C1045  C1047   1.396   .     A
C1045  C1056   1.530   .     S
C1046  C1054   1.539   .     S
C1046  C1049   1.414   .     A
C1047  C1052   1.398   .     A
C1047  C1050   1.405   .     A
C1048  O1104   1.305   .     A
C1048  C1067   1.402   .     S
C1048  O954    1.296   1_655 S
C1049  C1053   1.412   .     A
C1049  C1051   1.425   .     A
C1050  C398    1.396   1_556 S
C1052  C1063   1.407   .     A
C1052  C387    1.403   1_556 S
C1053  C1059   1.413   .     A
C1054  H1074   1.103   .     S
C1054  C1055   1.529   .     S
C1054  H1075   1.111   .     S
C1055  H1071   1.109   .     S
C1055  H1072   1.107   .     S
C1055  H1073   1.111   .     S
C1056  H1081   1.095   .     S
C1056  H1079   1.109   .     S
C1056  C1057   1.537   .     S
C1057  H1076   1.108   .     S
C1057  H1077   1.107   .     S
C1057  H1078   1.111   .     S
C1058  H1086   1.111   .     S
C1058  H1085   1.089   .     S
C1058  C1060   1.527   .     S
C1058  N1099   1.452   .     S
C1059  H1096   1.074   .     S
C1059  C1064   1.397   .     A
C1060  H1082   1.101   .     S
C1060  H1083   1.106   .     S
C1060  H1084   1.111   .     S
C1061  H1092   1.092   .     S
C1061  C1062   1.520   .     S
C1061  H1090   1.094   .     S
C1061  N1100   1.462   .     S
C1062  H1088   1.104   .     S
C1062  H1087   1.107   .     S
C1062  H1089   1.109   .     S
C1063  C1065   1.387   .     A
C1063  H1097   1.083   .     S
C1064  H1069   1.081   .     S
C1065  H1080   1.084   .     S
C1065  C385    1.395   1_556 S
C1066  C1215   1.332   .     S
C1066  H1320   1.088   .     S
C1067  C696    1.332   1_655 S
C1068  O1107   1.317   .     A
H1070  C1289   1.082   .     S
H1094  C893    1.079   1_655 S
N1099  Zn1110  2.063   .     S
N1099  N1100   1.289   .     D
N1100  Zn1109  2.063   .     S
O1101  Zn1109  1.963   .     S
O1101  C889    1.299   1_655 S
O1102  Zn1110  1.963   .     S
O1103  Zn1110  1.973   .     S
O1104  Zn1109  1.973   .     S
O1105  Zn1109  1.965   .     S
O1105  C920    1.316   1_655 S
O1106  Zn1110  1.965   .     S
O1107  Zn1110  1.940   .     S
O1108  Zn1109  1.940   .     S
C1111  C1140   1.403   .     S
C1111  O1177   1.302   .     A
C1111  O1323   1.299   1_455 S
C1112  C1114   1.446   .     S
C1112  O1182   1.309   .     A
C1112  O1254   1.311   .     S
C1113  C1119   1.410   .     A
C1113  C1142   1.471   .     S
C1113  C1265   1.408   1_455 S
C1114  C1120   1.406   .     A
C1114  C1118   1.400   .     A
C1115  C1124   1.400   .     A
C1115  C1265   1.397   1_455 S
C1115  H1316   1.079   1_455 S
C1116  C1125   1.397   .     A
C1116  C1118   1.386   .     A
C1116  H1169   1.084   .     S
C1117  H1167   1.082   .     S
C1117  C1187   1.408   .     S
C1117  C1189   1.397   .     S
C1118  H1239   1.082   .     S
C1119  C1121   1.396   .     A
C1119  C1130   1.530   .     S
C1120  C1128   1.539   .     S
C1120  C1123   1.414   .     A
C1121  C1126   1.398   .     A
C1121  C1124   1.405   .     A
C1122  O1178   1.305   .     A
C1122  C1141   1.402   .     S
C1122  O1250   1.296   .     S
C1123  C1127   1.412   .     A
C1123  C1125   1.425   .     A
C1124  C472    1.396   1_556 S
C1126  C1137   1.407   .     A
C1126  C461    1.403   1_556 S
C1127  C1133   1.413   .     A
C1128  H1148   1.103   .     S
C1128  C1129   1.529   .     S
C1128  H1149   1.111   .     S
C1129  H1145   1.109   .     S
C1129  H1146   1.107   .     S
C1129  H1147   1.111   .     S
C1130  H1155   1.095   .     S
C1130  H1153   1.109   .     S
C1130  C1131   1.537   .     S
C1131  H1150   1.108   .     S
C1131  H1151   1.107   .     S
C1131  H1152   1.111   .     S
C1132  H1160   1.111   .     S
C1132  H1159   1.089   .     S
C1132  C1134   1.527   .     S
C1132  N1173   1.452   .     S
C1133  H1170   1.074   .     S
C1133  C1138   1.397   .     A
C1134  H1156   1.101   .     S
C1134  H1157   1.106   .     S
C1134  H1158   1.111   .     S
C1135  H1166   1.092   .     S
C1135  C1136   1.520   .     S
C1135  H1164   1.094   .     S
C1135  N1174   1.462   .     S
C1136  H1162   1.104   .     S
C1136  H1161   1.107   .     S
C1136  H1163   1.109   .     S
C1137  C1139   1.387   .     A
C1137  H1171   1.083   .     S
C1138  H1143   1.081   .     S
C1139  H1154   1.084   .     S
C1139  C459    1.395   1_556 S
C1140  C845    1.332   1_465 S
C1140  H728    1.088   1_565 S
C1142  O1181   1.317   .     A
C1142  O1327   1.316   1_455 S
H1144  C697    1.082   1_565 S
H1165  C1266   1.082   1_455 S
H1168  C1189   1.079   .     S
N1173  Zn1184  2.063   .     S
N1173  N1174   1.289   .     D
N1174  Zn1183  2.063   .     S
O1175  Zn1183  1.963   .     S
O1175  C1185   1.299   .     S
O1176  Zn1184  1.963   .     S
O1176  C1270   1.296   1_455 S
O1177  Zn1184  1.973   .     S
O1178  Zn1183  1.973   .     S
O1179  Zn1183  1.965   .     S
O1179  C1216   1.316   .     S
O1180  Zn1184  1.965   .     S
O1180  C1260   1.311   1_455 S
O1181  Zn1184  1.940   .     S
O1182  Zn1183  1.940   .     S
C1185  C1214   1.403   .     S
C1185  O1251   1.302   .     A
C1186  C1188   1.446   .     S
C1186  O1256   1.309   .     A
C1186  O1328   1.311   .     S
C1187  C1193   1.410   .     A
C1187  C1216   1.471   .     S
C1188  C1194   1.406   .     A
C1188  C1192   1.400   .     A
C1189  C1198   1.400   .     A
C1190  C1199   1.397   .     A
C1190  C1192   1.386   .     A
C1190  H1243   1.084   .     S
C1191  H1241   1.082   .     S
C1191  C1261   1.408   .     S
C1191  C1263   1.397   .     S
C1192  H1313   1.082   .     S
C1193  C1195   1.396   .     A
C1193  C1204   1.530   .     S
C1194  C1202   1.539   .     S
C1194  C1197   1.414   .     A
C1195  C1200   1.398   .     A
C1195  C1198   1.405   .     A
C1196  O1252   1.305   .     A
C1196  C1215   1.402   .     S
C1196  O1324   1.296   .     S
C1197  C1201   1.412   .     A
C1197  C1199   1.425   .     A
C1198  C546    1.396   1_556 S
C1200  C1211   1.407   .     A
C1200  C535    1.403   1_556 S
C1201  C1207   1.413   .     A
C1202  H1222   1.103   .     S
C1202  C1203   1.529   .     S
C1202  H1223   1.111   .     S
C1203  H1219   1.109   .     S
C1203  H1220   1.107   .     S
C1203  H1221   1.111   .     S
C1204  H1229   1.095   .     S
C1204  H1227   1.109   .     S
C1204  C1205   1.537   .     S
C1205  H1224   1.108   .     S
C1205  H1225   1.107   .     S
C1205  H1226   1.111   .     S
C1206  H1234   1.111   .     S
C1206  H1233   1.089   .     S
C1206  C1208   1.527   .     S
C1206  N1247   1.452   .     S
C1207  H1244   1.074   .     S
C1207  C1212   1.397   .     A
C1208  H1230   1.101   .     S
C1208  H1231   1.106   .     S
C1208  H1232   1.111   .     S
C1209  H1240   1.092   .     S
C1209  C1210   1.520   .     S
C1209  H1238   1.094   .     S
C1209  N1248   1.462   .     S
C1210  H1236   1.104   .     S
C1210  H1235   1.107   .     S
C1210  H1237   1.109   .     S
C1211  C1213   1.387   .     A
C1211  H1245   1.083   .     S
C1212  H1217   1.081   .     S
C1213  H1228   1.084   .     S
C1213  C533    1.395   1_556 S
C1214  C697    1.332   1_565 S
C1214  H802    1.088   1_565 S
C1216  O1255   1.317   .     A
H1218  C771    1.082   1_565 S
H1242  C1263   1.079   .     S
N1247  Zn1258  2.063   .     S
N1247  N1248   1.289   .     D
N1248  Zn1257  2.063   .     S
O1249  Zn1257  1.963   .     S
O1249  C1259   1.299   .     S
O1250  Zn1258  1.963   .     S
O1251  Zn1258  1.973   .     S
O1252  Zn1257  1.973   .     S
O1253  Zn1257  1.965   .     S
O1253  C1290   1.316   .     S
O1254  Zn1258  1.965   .     S
O1255  Zn1258  1.940   .     S
O1256  Zn1257  1.940   .     S
C1259  C1288   1.403   .     S
C1259  O1325   1.302   .     A
C1260  C1262   1.446   .     S
C1260  O1330   1.309   .     A
C1260  O1180   1.311   1_655 S
C1261  C1267   1.410   .     A
C1261  C1290   1.471   .     S
C1262  C1268   1.406   .     A
C1262  C1266   1.400   .     A
C1263  C1272   1.400   .     A
C1264  C1273   1.397   .     A
C1264  C1266   1.386   .     A
C1264  H1317   1.084   .     S
C1265  H1315   1.082   .     S
C1265  C1113   1.408   1_655 S
C1265  C1115   1.397   1_655 S
C1266  H1165   1.082   1_655 S
C1267  C1269   1.396   .     A
C1267  C1278   1.530   .     S
C1268  C1276   1.539   .     S
C1268  C1271   1.414   .     A
C1269  C1274   1.398   .     A
C1269  C1272   1.405   .     A
C1270  O1326   1.305   .     A
C1270  C1289   1.402   .     S
C1270  O1176   1.296   1_655 S
C1271  C1275   1.412   .     A
C1271  C1273   1.425   .     A
C1272  C620    1.396   1_556 S
C1274  C1285   1.407   .     A
C1274  C609    1.403   1_556 S
C1275  C1281   1.413   .     A
C1276  H1296   1.103   .     S
C1276  C1277   1.529   .     S
C1276  H1297   1.111   .     S
C1277  H1293   1.109   .     S
C1277  H1294   1.107   .     S
C1277  H1295   1.111   .     S
C1278  H1303   1.095   .     S
C1278  H1301   1.109   .     S
C1278  C1279   1.537   .     S
C1279  H1298   1.108   .     S
C1279  H1299   1.107   .     S
C1279  H1300   1.111   .     S
C1280  H1308   1.111   .     S
C1280  H1307   1.089   .     S
C1280  C1282   1.527   .     S
C1280  N1321   1.452   .     S
C1281  H1318   1.074   .     S
C1281  C1286   1.397   .     A
C1282  H1304   1.101   .     S
C1282  H1305   1.106   .     S
C1282  H1306   1.111   .     S
C1283  H1314   1.092   .     S
C1283  C1284   1.520   .     S
C1283  H1312   1.094   .     S
C1283  N1322   1.462   .     S
C1284  H1310   1.104   .     S
C1284  H1309   1.107   .     S
C1284  H1311   1.109   .     S
C1285  C1287   1.387   .     A
C1285  H1319   1.083   .     S
C1286  H1291   1.081   .     S
C1287  H1302   1.084   .     S
C1287  C607    1.395   1_556 S
C1288  C771    1.332   1_565 S
C1288  H876    1.088   1_565 S
C1289  C918    1.332   1_655 S
C1290  O1329   1.317   .     A
H1292  C845    1.082   1_565 S
H1316  C1115   1.079   1_655 S
N1321  Zn1332  2.063   .     S
N1321  N1322   1.289   .     D
N1322  Zn1331  2.063   .     S
O1323  Zn1331  1.963   .     S
O1323  C1111   1.299   1_655 S
O1324  Zn1332  1.963   .     S
O1325  Zn1332  1.973   .     S
O1326  Zn1331  1.973   .     S
O1327  Zn1331  1.965   .     S
O1327  C1142   1.316   1_655 S
O1328  Zn1332  1.965   .     S
O1329  Zn1332  1.940   .     S
O1330  Zn1331  1.940   .     S
