data_str_m2_o10_o17_pcu_sym.59
_audit_creation_date              2020-01-03
_audit_creation_method            'Materials Studio'
_symmetry_space_group_name_H-M    'P1'
_symmetry_Int_Tables_number       1
_symmetry_cell_setting            triclinic
loop_
_symmetry_equiv_pos_as_xyz
  x,y,z
_cell_length_a                    30.0274
_cell_length_b                    25.9872
_cell_length_c                    22.4996
_cell_angle_alpha                 103.3038
_cell_angle_beta                  94.8060
_cell_angle_gamma                 93.2686
loop_
_atom_site_label
_atom_site_type_symbol
_atom_site_fract_x
_atom_site_fract_y
_atom_site_fract_z
_atom_site_U_iso_or_equiv
_atom_site_adp_type
_atom_site_occupancy
C1     C     0.24853   0.06656   0.15098   0.00000  Uiso   1.00
C2     C     0.09022   0.11715   0.14528   0.00000  Uiso   1.00
C3     C     0.38334   0.16722   0.16530   0.00000  Uiso   1.00
C4     C     0.11662   0.16517   0.16798   0.00000  Uiso   1.00
C5     C     0.40228   0.11940   0.14305   0.00000  Uiso   1.00
C6     C     0.09790   0.21268   0.19094   0.00000  Uiso   1.00
C7     C     0.44887   0.11909   0.14353   0.00000  Uiso   1.00
C8     C     0.05119   0.21306   0.19076   0.00000  Uiso   1.00
C9     C     0.47651   0.16660   0.16679   0.00000  Uiso   1.00
C10    C     0.02361   0.16534   0.16727   0.00000  Uiso   1.00
C11    C     0.45711   0.21522   0.18957   0.00000  Uiso   1.00
C12    C     0.25146   0.26677   0.18235   0.00000  Uiso   1.00
C13    C     0.04299   0.11656   0.14434   0.00000  Uiso   1.00
C14    C     0.46806   0.07159   0.12125   0.00000  Uiso   1.00
C15    C     0.03174   0.26043   0.21352   0.00000  Uiso   1.00
C16    C     0.01406   0.06945   0.12126   0.00000  Uiso   1.00
C17    C     0.48556   0.26214   0.21337   0.00000  Uiso   1.00
C18    C     0.24776   0.01043   0.14232   0.00000  Uiso   1.00
C19    C     0.25224   0.32291   0.19101   0.00000  Uiso   1.00
C20    C     0.16472   0.16597   0.16705   0.00000  Uiso   1.00
C21    C     0.33527   0.16699   0.16623   0.00000  Uiso   1.00
C22    C     0.40996   0.21509   0.18804   0.00000  Uiso   1.00
Cu23   Cu    0.25500   0.17246   0.22813   0.00000  Uiso   1.00
Cu24   Cu    0.24499   0.16087   0.10521   0.00000  Uiso   1.00
H25    H     0.44723   0.03492   0.10331   0.00000  Uiso   1.00
H26    H     0.35555   0.06427   0.15602   0.00000  Uiso   1.00
H27    H     0.11888   0.28781   0.18761   0.00000  Uiso   1.00
H28    H     0.12310   0.27594   0.25944   0.00000  Uiso   1.00
H29    H     0.04937   0.00669   0.13121   0.00000  Uiso   1.00
H30    H     0.04657   0.01927   0.05880   0.00000  Uiso   1.00
H31    H     0.48194   0.32552   0.28404   0.00000  Uiso   1.00
H32    H     0.47923   0.00604   0.21400   0.00000  Uiso   1.00
H33    H     0.21100   0.07915   0.31436   0.00000  Uiso   1.00
H34    H     0.17436   0.12607   0.32232   0.00000  Uiso   1.00
H35    H     0.28902   0.25418   0.01897   0.00000  Uiso   1.00
H36    H     0.05212   0.29724   0.23205   0.00000  Uiso   1.00
H37    H     0.32565   0.20723   0.01101   0.00000  Uiso   1.00
H38    H     0.24346   0.31952   0.09558   0.00000  Uiso   1.00
H39    H     0.25655   0.01381   0.23775   0.00000  Uiso   1.00
H40    H     0.37078   0.26030   0.24539   0.00000  Uiso   1.00
H41    H     0.36667   0.26912   0.17254   0.00000  Uiso   1.00
H42    H     0.13434   0.06372   0.15994   0.00000  Uiso   1.00
H43    H     0.12962   0.07305   0.08726   0.00000  Uiso   1.00
H44    H     0.35244   0.07429   0.08377   0.00000  Uiso   1.00
N45    N     0.23744   0.15214   0.01284   0.00000  Uiso   1.00
N46    N     0.29447   0.21660   0.02602   0.00000  Uiso   1.00
N47    N     0.26255   0.18119   0.32049   0.00000  Uiso   1.00
N48    N     0.38884   0.26348   0.20848   0.00000  Uiso   1.00
N49    N     0.11188   0.06933   0.12429   0.00000  Uiso   1.00
N50    N     0.37435   0.07069   0.12095   0.00000  Uiso   1.00
N51    N     0.12718   0.26028   0.21325   0.00000  Uiso   1.00
N52    N     0.02935   0.01825   0.09704   0.00000  Uiso   1.00
N53    N     0.46833   0.31208   0.23835   0.00000  Uiso   1.00
N54    N     0.20554   0.11672   0.30731   0.00000  Uiso   1.00
O55    O     0.25325   0.09538   0.20659   0.00000  Uiso   1.00
O56    O     0.24674   0.23796   0.12674   0.00000  Uiso   1.00
O57    O     0.24480   0.08559   0.10279   0.00000  Uiso   1.00
O58    O     0.25520   0.24774   0.23055   0.00000  Uiso   1.00
O59    O     0.18935   0.17155   0.21857   0.00000  Uiso   1.00
O60    O     0.31064   0.16179   0.11476   0.00000  Uiso   1.00
O61    O     0.18090   0.16176   0.11477   0.00000  Uiso   1.00
O62    O     0.31910   0.17157   0.21857   0.00000  Uiso   1.00
C63    C     0.74853   0.06656   0.15098   0.00000  Uiso   1.00
C64    C     0.59022   0.11715   0.14528   0.00000  Uiso   1.00
C65    C     0.88334   0.16722   0.16530   0.00000  Uiso   1.00
C66    C     0.61662   0.16517   0.16798   0.00000  Uiso   1.00
C67    C     0.90228   0.11940   0.14305   0.00000  Uiso   1.00
C68    C     0.59790   0.21268   0.19094   0.00000  Uiso   1.00
C69    C     0.94887   0.11909   0.14353   0.00000  Uiso   1.00
C70    C     0.55119   0.21306   0.19076   0.00000  Uiso   1.00
C71    C     0.97651   0.16660   0.16679   0.00000  Uiso   1.00
C72    C     0.52361   0.16534   0.16727   0.00000  Uiso   1.00
C73    C     0.95711   0.21522   0.18957   0.00000  Uiso   1.00
C74    C     0.75146   0.26677   0.18235   0.00000  Uiso   1.00
C75    C     0.54299   0.11656   0.14434   0.00000  Uiso   1.00
C76    C     0.96806   0.07159   0.12125   0.00000  Uiso   1.00
C77    C     0.53174   0.26043   0.21352   0.00000  Uiso   1.00
C78    C     0.51406   0.06945   0.12126   0.00000  Uiso   1.00
C79    C     0.98556   0.26214   0.21337   0.00000  Uiso   1.00
C80    C     0.74776   0.01043   0.14232   0.00000  Uiso   1.00
C81    C     0.75224   0.32291   0.19101   0.00000  Uiso   1.00
C82    C     0.66472   0.16597   0.16705   0.00000  Uiso   1.00
C83    C     0.83527   0.16699   0.16623   0.00000  Uiso   1.00
C84    C     0.90996   0.21509   0.18804   0.00000  Uiso   1.00
Cu85   Cu    0.75500   0.17246   0.22813   0.00000  Uiso   1.00
Cu86   Cu    0.74499   0.16087   0.10521   0.00000  Uiso   1.00
H87    H     0.94723   0.03492   0.10331   0.00000  Uiso   1.00
H88    H     0.85555   0.06427   0.15602   0.00000  Uiso   1.00
H89    H     0.61888   0.28781   0.18761   0.00000  Uiso   1.00
H90    H     0.62310   0.27594   0.25944   0.00000  Uiso   1.00
H91    H     0.54937   0.00669   0.13121   0.00000  Uiso   1.00
H92    H     0.54657   0.01927   0.05880   0.00000  Uiso   1.00
H93    H     0.98194   0.32552   0.28404   0.00000  Uiso   1.00
H94    H     0.97923   0.00604   0.21400   0.00000  Uiso   1.00
H95    H     0.71100   0.07915   0.31436   0.00000  Uiso   1.00
H96    H     0.67436   0.12607   0.32232   0.00000  Uiso   1.00
H97    H     0.78902   0.25418   0.01897   0.00000  Uiso   1.00
H98    H     0.55212   0.29724   0.23205   0.00000  Uiso   1.00
H99    H     0.82565   0.20723   0.01101   0.00000  Uiso   1.00
H100   H     0.74346   0.31952   0.09558   0.00000  Uiso   1.00
H101   H     0.75655   0.01381   0.23775   0.00000  Uiso   1.00
H102   H     0.87078   0.26030   0.24539   0.00000  Uiso   1.00
H103   H     0.86667   0.26912   0.17254   0.00000  Uiso   1.00
H104   H     0.63434   0.06372   0.15994   0.00000  Uiso   1.00
H105   H     0.62962   0.07305   0.08726   0.00000  Uiso   1.00
H106   H     0.85244   0.07429   0.08377   0.00000  Uiso   1.00
N107   N     0.73744   0.15214   0.01284   0.00000  Uiso   1.00
N108   N     0.79447   0.21660   0.02602   0.00000  Uiso   1.00
N109   N     0.76255   0.18119   0.32049   0.00000  Uiso   1.00
N110   N     0.88884   0.26348   0.20848   0.00000  Uiso   1.00
N111   N     0.61188   0.06933   0.12429   0.00000  Uiso   1.00
N112   N     0.87435   0.07069   0.12095   0.00000  Uiso   1.00
N113   N     0.62718   0.26028   0.21325   0.00000  Uiso   1.00
N114   N     0.52935   0.01825   0.09704   0.00000  Uiso   1.00
N115   N     0.96833   0.31208   0.23835   0.00000  Uiso   1.00
N116   N     0.70554   0.11672   0.30731   0.00000  Uiso   1.00
O117   O     0.75325   0.09538   0.20659   0.00000  Uiso   1.00
O118   O     0.74674   0.23796   0.12674   0.00000  Uiso   1.00
O119   O     0.74480   0.08559   0.10279   0.00000  Uiso   1.00
O120   O     0.75520   0.24774   0.23055   0.00000  Uiso   1.00
O121   O     0.68935   0.17155   0.21857   0.00000  Uiso   1.00
O122   O     0.81064   0.16179   0.11476   0.00000  Uiso   1.00
O123   O     0.68090   0.16176   0.11477   0.00000  Uiso   1.00
O124   O     0.81910   0.17157   0.21857   0.00000  Uiso   1.00
C125   C     0.24853   0.39990   0.15098   0.00000  Uiso   1.00
C126   C     0.09022   0.45048   0.14528   0.00000  Uiso   1.00
C127   C     0.38334   0.50055   0.16530   0.00000  Uiso   1.00
C128   C     0.11662   0.49851   0.16798   0.00000  Uiso   1.00
C129   C     0.40228   0.45273   0.14305   0.00000  Uiso   1.00
C130   C     0.09790   0.54602   0.19094   0.00000  Uiso   1.00
C131   C     0.44887   0.45242   0.14353   0.00000  Uiso   1.00
C132   C     0.05119   0.54639   0.19076   0.00000  Uiso   1.00
C133   C     0.47651   0.49994   0.16679   0.00000  Uiso   1.00
C134   C     0.02361   0.49868   0.16727   0.00000  Uiso   1.00
C135   C     0.45711   0.54855   0.18957   0.00000  Uiso   1.00
C136   C     0.25146   0.60011   0.18235   0.00000  Uiso   1.00
C137   C     0.04299   0.44989   0.14434   0.00000  Uiso   1.00
C138   C     0.46806   0.40492   0.12125   0.00000  Uiso   1.00
C139   C     0.03174   0.59376   0.21352   0.00000  Uiso   1.00
C140   C     0.01406   0.40278   0.12126   0.00000  Uiso   1.00
C141   C     0.48556   0.59547   0.21337   0.00000  Uiso   1.00
C142   C     0.24776   0.34376   0.14232   0.00000  Uiso   1.00
C143   C     0.25224   0.65624   0.19101   0.00000  Uiso   1.00
C144   C     0.16472   0.49931   0.16705   0.00000  Uiso   1.00
C145   C     0.33527   0.50033   0.16623   0.00000  Uiso   1.00
C146   C     0.40996   0.54842   0.18804   0.00000  Uiso   1.00
Cu147  Cu    0.25500   0.50579   0.22813   0.00000  Uiso   1.00
Cu148  Cu    0.24499   0.49421   0.10521   0.00000  Uiso   1.00
H149   H     0.44723   0.36825   0.10331   0.00000  Uiso   1.00
H150   H     0.35555   0.39760   0.15602   0.00000  Uiso   1.00
H151   H     0.11888   0.62115   0.18761   0.00000  Uiso   1.00
H152   H     0.12310   0.60928   0.25944   0.00000  Uiso   1.00
H153   H     0.04937   0.34003   0.13121   0.00000  Uiso   1.00
H154   H     0.04657   0.35260   0.05880   0.00000  Uiso   1.00
H155   H     0.48194   0.65886   0.28404   0.00000  Uiso   1.00
H156   H     0.47923   0.33938   0.21400   0.00000  Uiso   1.00
H157   H     0.21100   0.41248   0.31436   0.00000  Uiso   1.00
H158   H     0.17436   0.45940   0.32232   0.00000  Uiso   1.00
H159   H     0.28902   0.58751   0.01897   0.00000  Uiso   1.00
H160   H     0.05212   0.63058   0.23205   0.00000  Uiso   1.00
H161   H     0.32565   0.54057   0.01101   0.00000  Uiso   1.00
H162   H     0.24346   0.65286   0.09558   0.00000  Uiso   1.00
H163   H     0.25655   0.34715   0.23775   0.00000  Uiso   1.00
H164   H     0.37078   0.59363   0.24539   0.00000  Uiso   1.00
H165   H     0.36667   0.60246   0.17254   0.00000  Uiso   1.00
H166   H     0.13434   0.39705   0.15994   0.00000  Uiso   1.00
H167   H     0.12962   0.40638   0.08726   0.00000  Uiso   1.00
H168   H     0.35244   0.40762   0.08377   0.00000  Uiso   1.00
N169   N     0.23744   0.48547   0.01284   0.00000  Uiso   1.00
N170   N     0.29447   0.54993   0.02602   0.00000  Uiso   1.00
N171   N     0.26255   0.51453   0.32049   0.00000  Uiso   1.00
N172   N     0.38884   0.59681   0.20848   0.00000  Uiso   1.00
N173   N     0.11188   0.40266   0.12429   0.00000  Uiso   1.00
N174   N     0.37435   0.40402   0.12095   0.00000  Uiso   1.00
N175   N     0.12718   0.59361   0.21325   0.00000  Uiso   1.00
N176   N     0.02935   0.35158   0.09704   0.00000  Uiso   1.00
N177   N     0.46833   0.64541   0.23835   0.00000  Uiso   1.00
N178   N     0.20554   0.45006   0.30731   0.00000  Uiso   1.00
O179   O     0.25325   0.42871   0.20659   0.00000  Uiso   1.00
O180   O     0.24674   0.57129   0.12674   0.00000  Uiso   1.00
O181   O     0.24480   0.41892   0.10279   0.00000  Uiso   1.00
O182   O     0.25520   0.58108   0.23055   0.00000  Uiso   1.00
O183   O     0.18935   0.50488   0.21857   0.00000  Uiso   1.00
O184   O     0.31064   0.49512   0.11476   0.00000  Uiso   1.00
O185   O     0.18090   0.49510   0.11477   0.00000  Uiso   1.00
O186   O     0.31910   0.50490   0.21857   0.00000  Uiso   1.00
C187   C     0.74853   0.39990   0.15098   0.00000  Uiso   1.00
C188   C     0.59022   0.45048   0.14528   0.00000  Uiso   1.00
C189   C     0.88334   0.50055   0.16530   0.00000  Uiso   1.00
C190   C     0.61662   0.49851   0.16798   0.00000  Uiso   1.00
C191   C     0.90228   0.45273   0.14305   0.00000  Uiso   1.00
C192   C     0.59790   0.54602   0.19094   0.00000  Uiso   1.00
C193   C     0.94887   0.45242   0.14353   0.00000  Uiso   1.00
C194   C     0.55119   0.54639   0.19076   0.00000  Uiso   1.00
C195   C     0.97651   0.49994   0.16679   0.00000  Uiso   1.00
C196   C     0.52361   0.49868   0.16727   0.00000  Uiso   1.00
C197   C     0.95711   0.54855   0.18957   0.00000  Uiso   1.00
C198   C     0.75146   0.60011   0.18235   0.00000  Uiso   1.00
C199   C     0.54299   0.44989   0.14434   0.00000  Uiso   1.00
C200   C     0.96806   0.40492   0.12125   0.00000  Uiso   1.00
C201   C     0.53174   0.59376   0.21352   0.00000  Uiso   1.00
C202   C     0.51406   0.40278   0.12126   0.00000  Uiso   1.00
C203   C     0.98556   0.59547   0.21337   0.00000  Uiso   1.00
C204   C     0.74776   0.34376   0.14232   0.00000  Uiso   1.00
C205   C     0.75224   0.65624   0.19101   0.00000  Uiso   1.00
C206   C     0.66472   0.49931   0.16705   0.00000  Uiso   1.00
C207   C     0.83527   0.50033   0.16623   0.00000  Uiso   1.00
C208   C     0.90996   0.54842   0.18804   0.00000  Uiso   1.00
Cu209  Cu    0.75500   0.50579   0.22813   0.00000  Uiso   1.00
Cu210  Cu    0.74499   0.49421   0.10521   0.00000  Uiso   1.00
H211   H     0.94723   0.36825   0.10331   0.00000  Uiso   1.00
H212   H     0.85555   0.39760   0.15602   0.00000  Uiso   1.00
H213   H     0.61888   0.62115   0.18761   0.00000  Uiso   1.00
H214   H     0.62310   0.60928   0.25944   0.00000  Uiso   1.00
H215   H     0.54937   0.34003   0.13121   0.00000  Uiso   1.00
H216   H     0.54657   0.35260   0.05880   0.00000  Uiso   1.00
H217   H     0.98194   0.65886   0.28404   0.00000  Uiso   1.00
H218   H     0.97923   0.33938   0.21400   0.00000  Uiso   1.00
H219   H     0.71100   0.41248   0.31436   0.00000  Uiso   1.00
H220   H     0.67436   0.45940   0.32232   0.00000  Uiso   1.00
H221   H     0.78902   0.58751   0.01897   0.00000  Uiso   1.00
H222   H     0.55212   0.63058   0.23205   0.00000  Uiso   1.00
H223   H     0.82565   0.54057   0.01101   0.00000  Uiso   1.00
H224   H     0.74346   0.65286   0.09558   0.00000  Uiso   1.00
H225   H     0.75655   0.34715   0.23775   0.00000  Uiso   1.00
H226   H     0.87078   0.59363   0.24539   0.00000  Uiso   1.00
H227   H     0.86667   0.60246   0.17254   0.00000  Uiso   1.00
H228   H     0.63434   0.39705   0.15994   0.00000  Uiso   1.00
H229   H     0.62962   0.40638   0.08726   0.00000  Uiso   1.00
H230   H     0.85244   0.40762   0.08377   0.00000  Uiso   1.00
N231   N     0.73744   0.48547   0.01284   0.00000  Uiso   1.00
N232   N     0.79447   0.54993   0.02602   0.00000  Uiso   1.00
N233   N     0.76255   0.51453   0.32049   0.00000  Uiso   1.00
N234   N     0.88884   0.59681   0.20848   0.00000  Uiso   1.00
N235   N     0.61188   0.40266   0.12429   0.00000  Uiso   1.00
N236   N     0.87435   0.40402   0.12095   0.00000  Uiso   1.00
N237   N     0.62718   0.59361   0.21325   0.00000  Uiso   1.00
N238   N     0.52935   0.35158   0.09704   0.00000  Uiso   1.00
N239   N     0.96833   0.64541   0.23835   0.00000  Uiso   1.00
N240   N     0.70554   0.45006   0.30731   0.00000  Uiso   1.00
O241   O     0.75325   0.42871   0.20659   0.00000  Uiso   1.00
O242   O     0.74674   0.57129   0.12674   0.00000  Uiso   1.00
O243   O     0.74480   0.41892   0.10279   0.00000  Uiso   1.00
O244   O     0.75520   0.58108   0.23055   0.00000  Uiso   1.00
O245   O     0.68935   0.50488   0.21857   0.00000  Uiso   1.00
O246   O     0.81064   0.49512   0.11476   0.00000  Uiso   1.00
O247   O     0.68090   0.49510   0.11477   0.00000  Uiso   1.00
O248   O     0.81910   0.50490   0.21857   0.00000  Uiso   1.00
C249   C     0.24853   0.73323   0.15098   0.00000  Uiso   1.00
C250   C     0.09022   0.78382   0.14528   0.00000  Uiso   1.00
C251   C     0.38334   0.83389   0.16530   0.00000  Uiso   1.00
C252   C     0.11662   0.83184   0.16798   0.00000  Uiso   1.00
C253   C     0.40228   0.78606   0.14305   0.00000  Uiso   1.00
C254   C     0.09790   0.87935   0.19094   0.00000  Uiso   1.00
C255   C     0.44887   0.78576   0.14353   0.00000  Uiso   1.00
C256   C     0.05119   0.87972   0.19076   0.00000  Uiso   1.00
C257   C     0.47651   0.83327   0.16679   0.00000  Uiso   1.00
C258   C     0.02361   0.83201   0.16727   0.00000  Uiso   1.00
C259   C     0.45711   0.88188   0.18957   0.00000  Uiso   1.00
C260   C     0.25146   0.93344   0.18235   0.00000  Uiso   1.00
C261   C     0.04299   0.78322   0.14434   0.00000  Uiso   1.00
C262   C     0.46806   0.73826   0.12125   0.00000  Uiso   1.00
C263   C     0.03174   0.92709   0.21352   0.00000  Uiso   1.00
C264   C     0.01406   0.73611   0.12126   0.00000  Uiso   1.00
C265   C     0.48556   0.92880   0.21337   0.00000  Uiso   1.00
C266   C     0.24776   0.67709   0.14232   0.00000  Uiso   1.00
C267   C     0.25224   0.98958   0.19101   0.00000  Uiso   1.00
C268   C     0.16472   0.83264   0.16705   0.00000  Uiso   1.00
C269   C     0.33527   0.83366   0.16623   0.00000  Uiso   1.00
C270   C     0.40996   0.88176   0.18804   0.00000  Uiso   1.00
Cu271  Cu    0.25500   0.83913   0.22813   0.00000  Uiso   1.00
Cu272  Cu    0.24499   0.82754   0.10521   0.00000  Uiso   1.00
H273   H     0.44723   0.70158   0.10331   0.00000  Uiso   1.00
H274   H     0.35555   0.73093   0.15602   0.00000  Uiso   1.00
H275   H     0.11888   0.95448   0.18761   0.00000  Uiso   1.00
H276   H     0.12310   0.94261   0.25944   0.00000  Uiso   1.00
H277   H     0.04937   0.67336   0.13121   0.00000  Uiso   1.00
H278   H     0.04657   0.68593   0.05880   0.00000  Uiso   1.00
H279   H     0.48194   0.99219   0.28404   0.00000  Uiso   1.00
H280   H     0.47923   0.67271   0.21400   0.00000  Uiso   1.00
H281   H     0.21100   0.74581   0.31436   0.00000  Uiso   1.00
H282   H     0.17436   0.79273   0.32232   0.00000  Uiso   1.00
H283   H     0.28902   0.92084   0.01897   0.00000  Uiso   1.00
H284   H     0.05212   0.96391   0.23205   0.00000  Uiso   1.00
H285   H     0.32565   0.87390   0.01101   0.00000  Uiso   1.00
H286   H     0.24346   0.98619   0.09558   0.00000  Uiso   1.00
H287   H     0.25655   0.68048   0.23775   0.00000  Uiso   1.00
H288   H     0.37078   0.92696   0.24539   0.00000  Uiso   1.00
H289   H     0.36667   0.93579   0.17254   0.00000  Uiso   1.00
H290   H     0.13434   0.73038   0.15994   0.00000  Uiso   1.00
H291   H     0.12962   0.73971   0.08726   0.00000  Uiso   1.00
H292   H     0.35244   0.74095   0.08377   0.00000  Uiso   1.00
N293   N     0.23744   0.81881   0.01284   0.00000  Uiso   1.00
N294   N     0.29447   0.88326   0.02602   0.00000  Uiso   1.00
N295   N     0.26255   0.84786   0.32049   0.00000  Uiso   1.00
N296   N     0.38884   0.93014   0.20848   0.00000  Uiso   1.00
N297   N     0.11188   0.73600   0.12429   0.00000  Uiso   1.00
N298   N     0.37435   0.73736   0.12095   0.00000  Uiso   1.00
N299   N     0.12718   0.92695   0.21325   0.00000  Uiso   1.00
N300   N     0.02935   0.68491   0.09704   0.00000  Uiso   1.00
N301   N     0.46833   0.97874   0.23835   0.00000  Uiso   1.00
N302   N     0.20554   0.78339   0.30731   0.00000  Uiso   1.00
O303   O     0.25325   0.76204   0.20659   0.00000  Uiso   1.00
O304   O     0.24674   0.90462   0.12674   0.00000  Uiso   1.00
O305   O     0.24480   0.75226   0.10279   0.00000  Uiso   1.00
O306   O     0.25520   0.91441   0.23055   0.00000  Uiso   1.00
O307   O     0.18935   0.83821   0.21857   0.00000  Uiso   1.00
O308   O     0.31064   0.82845   0.11476   0.00000  Uiso   1.00
O309   O     0.18090   0.82843   0.11477   0.00000  Uiso   1.00
O310   O     0.31910   0.83824   0.21857   0.00000  Uiso   1.00
C311   C     0.74853   0.73323   0.15098   0.00000  Uiso   1.00
C312   C     0.59022   0.78382   0.14528   0.00000  Uiso   1.00
C313   C     0.88334   0.83389   0.16530   0.00000  Uiso   1.00
C314   C     0.61662   0.83184   0.16798   0.00000  Uiso   1.00
C315   C     0.90228   0.78606   0.14305   0.00000  Uiso   1.00
C316   C     0.59790   0.87935   0.19094   0.00000  Uiso   1.00
C317   C     0.94887   0.78576   0.14353   0.00000  Uiso   1.00
C318   C     0.55119   0.87972   0.19076   0.00000  Uiso   1.00
C319   C     0.97651   0.83327   0.16679   0.00000  Uiso   1.00
C320   C     0.52361   0.83201   0.16727   0.00000  Uiso   1.00
C321   C     0.95711   0.88188   0.18957   0.00000  Uiso   1.00
C322   C     0.75146   0.93344   0.18235   0.00000  Uiso   1.00
C323   C     0.54299   0.78322   0.14434   0.00000  Uiso   1.00
C324   C     0.96806   0.73826   0.12125   0.00000  Uiso   1.00
C325   C     0.53174   0.92709   0.21352   0.00000  Uiso   1.00
C326   C     0.51406   0.73611   0.12126   0.00000  Uiso   1.00
C327   C     0.98556   0.92880   0.21337   0.00000  Uiso   1.00
C328   C     0.74776   0.67709   0.14232   0.00000  Uiso   1.00
C329   C     0.75224   0.98958   0.19101   0.00000  Uiso   1.00
C330   C     0.66472   0.83264   0.16705   0.00000  Uiso   1.00
C331   C     0.83527   0.83366   0.16623   0.00000  Uiso   1.00
C332   C     0.90996   0.88176   0.18804   0.00000  Uiso   1.00
Cu333  Cu    0.75500   0.83913   0.22813   0.00000  Uiso   1.00
Cu334  Cu    0.74499   0.82754   0.10521   0.00000  Uiso   1.00
H335   H     0.94723   0.70158   0.10331   0.00000  Uiso   1.00
H336   H     0.85555   0.73093   0.15602   0.00000  Uiso   1.00
H337   H     0.61888   0.95448   0.18761   0.00000  Uiso   1.00
H338   H     0.62310   0.94261   0.25944   0.00000  Uiso   1.00
H339   H     0.54937   0.67336   0.13121   0.00000  Uiso   1.00
H340   H     0.54657   0.68593   0.05880   0.00000  Uiso   1.00
H341   H     0.98194   0.99219   0.28404   0.00000  Uiso   1.00
H342   H     0.97923   0.67271   0.21400   0.00000  Uiso   1.00
H343   H     0.71100   0.74581   0.31436   0.00000  Uiso   1.00
H344   H     0.67436   0.79273   0.32232   0.00000  Uiso   1.00
H345   H     0.78902   0.92084   0.01897   0.00000  Uiso   1.00
H346   H     0.55212   0.96391   0.23205   0.00000  Uiso   1.00
H347   H     0.82565   0.87390   0.01101   0.00000  Uiso   1.00
H348   H     0.74346   0.98619   0.09558   0.00000  Uiso   1.00
H349   H     0.75655   0.68048   0.23775   0.00000  Uiso   1.00
H350   H     0.87078   0.92696   0.24539   0.00000  Uiso   1.00
H351   H     0.86667   0.93579   0.17254   0.00000  Uiso   1.00
H352   H     0.63434   0.73038   0.15994   0.00000  Uiso   1.00
H353   H     0.62962   0.73971   0.08726   0.00000  Uiso   1.00
H354   H     0.85244   0.74095   0.08377   0.00000  Uiso   1.00
N355   N     0.73744   0.81881   0.01284   0.00000  Uiso   1.00
N356   N     0.79447   0.88326   0.02602   0.00000  Uiso   1.00
N357   N     0.76255   0.84786   0.32049   0.00000  Uiso   1.00
N358   N     0.88884   0.93014   0.20848   0.00000  Uiso   1.00
N359   N     0.61188   0.73600   0.12429   0.00000  Uiso   1.00
N360   N     0.87435   0.73736   0.12095   0.00000  Uiso   1.00
N361   N     0.62718   0.92695   0.21325   0.00000  Uiso   1.00
N362   N     0.52935   0.68491   0.09704   0.00000  Uiso   1.00
N363   N     0.96833   0.97874   0.23835   0.00000  Uiso   1.00
N364   N     0.70554   0.78339   0.30731   0.00000  Uiso   1.00
O365   O     0.75325   0.76204   0.20659   0.00000  Uiso   1.00
O366   O     0.74674   0.90462   0.12674   0.00000  Uiso   1.00
O367   O     0.74480   0.75226   0.10279   0.00000  Uiso   1.00
O368   O     0.75520   0.91441   0.23055   0.00000  Uiso   1.00
O369   O     0.68935   0.83821   0.21857   0.00000  Uiso   1.00
O370   O     0.81064   0.82845   0.11476   0.00000  Uiso   1.00
O371   O     0.68090   0.82843   0.11477   0.00000  Uiso   1.00
O372   O     0.81910   0.83824   0.21857   0.00000  Uiso   1.00
C373   C     0.24853   0.06656   0.48432   0.00000  Uiso   1.00
C374   C     0.09022   0.11715   0.47861   0.00000  Uiso   1.00
C375   C     0.38334   0.16722   0.49864   0.00000  Uiso   1.00
C376   C     0.11662   0.16517   0.50132   0.00000  Uiso   1.00
C377   C     0.40228   0.11940   0.47639   0.00000  Uiso   1.00
C378   C     0.09790   0.21268   0.52427   0.00000  Uiso   1.00
C379   C     0.44887   0.11909   0.47686   0.00000  Uiso   1.00
C380   C     0.05119   0.21306   0.52409   0.00000  Uiso   1.00
C381   C     0.47651   0.16660   0.50012   0.00000  Uiso   1.00
C382   C     0.02361   0.16534   0.50060   0.00000  Uiso   1.00
C383   C     0.45711   0.21522   0.52291   0.00000  Uiso   1.00
C384   C     0.25146   0.26677   0.51568   0.00000  Uiso   1.00
C385   C     0.04299   0.11656   0.47767   0.00000  Uiso   1.00
C386   C     0.46806   0.07159   0.45459   0.00000  Uiso   1.00
C387   C     0.03174   0.26043   0.54685   0.00000  Uiso   1.00
C388   C     0.01406   0.06945   0.45459   0.00000  Uiso   1.00
C389   C     0.48556   0.26214   0.54670   0.00000  Uiso   1.00
C390   C     0.24776   0.01043   0.47566   0.00000  Uiso   1.00
C391   C     0.25224   0.32291   0.52434   0.00000  Uiso   1.00
C392   C     0.16472   0.16597   0.50039   0.00000  Uiso   1.00
C393   C     0.33527   0.16699   0.49956   0.00000  Uiso   1.00
C394   C     0.40996   0.21509   0.52137   0.00000  Uiso   1.00
Cu395  Cu    0.25500   0.17246   0.56146   0.00000  Uiso   1.00
Cu396  Cu    0.24499   0.16087   0.43854   0.00000  Uiso   1.00
H397   H     0.44723   0.03492   0.43664   0.00000  Uiso   1.00
H398   H     0.35555   0.06427   0.48935   0.00000  Uiso   1.00
H399   H     0.11888   0.28781   0.52094   0.00000  Uiso   1.00
H400   H     0.12310   0.27594   0.59277   0.00000  Uiso   1.00
H401   H     0.04937   0.00669   0.46454   0.00000  Uiso   1.00
H402   H     0.04657   0.01927   0.39213   0.00000  Uiso   1.00
H403   H     0.48194   0.32552   0.61737   0.00000  Uiso   1.00
H404   H     0.47923   0.00604   0.54734   0.00000  Uiso   1.00
H405   H     0.21100   0.07915   0.64770   0.00000  Uiso   1.00
H406   H     0.17436   0.12607   0.65566   0.00000  Uiso   1.00
H407   H     0.28902   0.25418   0.35231   0.00000  Uiso   1.00
H408   H     0.05212   0.29724   0.56538   0.00000  Uiso   1.00
H409   H     0.32565   0.20723   0.34434   0.00000  Uiso   1.00
H410   H     0.24346   0.31952   0.42892   0.00000  Uiso   1.00
H411   H     0.25655   0.01381   0.57108   0.00000  Uiso   1.00
H412   H     0.37078   0.26030   0.57872   0.00000  Uiso   1.00
H413   H     0.36667   0.26912   0.50587   0.00000  Uiso   1.00
H414   H     0.13434   0.06372   0.49327   0.00000  Uiso   1.00
H415   H     0.12962   0.07305   0.42060   0.00000  Uiso   1.00
H416   H     0.35244   0.07429   0.41710   0.00000  Uiso   1.00
N417   N     0.23744   0.15214   0.34617   0.00000  Uiso   1.00
N418   N     0.29447   0.21660   0.35935   0.00000  Uiso   1.00
N419   N     0.26255   0.18119   0.65383   0.00000  Uiso   1.00
N420   N     0.38884   0.26348   0.54181   0.00000  Uiso   1.00
N421   N     0.11188   0.06933   0.45762   0.00000  Uiso   1.00
N422   N     0.37435   0.07069   0.45429   0.00000  Uiso   1.00
N423   N     0.12718   0.26028   0.54659   0.00000  Uiso   1.00
N424   N     0.02935   0.01825   0.43038   0.00000  Uiso   1.00
N425   N     0.46833   0.31208   0.57168   0.00000  Uiso   1.00
N426   N     0.20554   0.11672   0.64065   0.00000  Uiso   1.00
O427   O     0.25325   0.09538   0.53992   0.00000  Uiso   1.00
O428   O     0.24674   0.23796   0.46008   0.00000  Uiso   1.00
O429   O     0.24480   0.08559   0.43612   0.00000  Uiso   1.00
O430   O     0.25520   0.24774   0.56388   0.00000  Uiso   1.00
O431   O     0.18935   0.17155   0.55191   0.00000  Uiso   1.00
O432   O     0.31064   0.16179   0.44809   0.00000  Uiso   1.00
O433   O     0.18090   0.16176   0.44810   0.00000  Uiso   1.00
O434   O     0.31910   0.17157   0.55190   0.00000  Uiso   1.00
C435   C     0.74853   0.06656   0.48432   0.00000  Uiso   1.00
C436   C     0.59022   0.11715   0.47861   0.00000  Uiso   1.00
C437   C     0.88334   0.16722   0.49864   0.00000  Uiso   1.00
C438   C     0.61662   0.16517   0.50132   0.00000  Uiso   1.00
C439   C     0.90228   0.11940   0.47639   0.00000  Uiso   1.00
C440   C     0.59790   0.21268   0.52427   0.00000  Uiso   1.00
C441   C     0.94887   0.11909   0.47686   0.00000  Uiso   1.00
C442   C     0.55119   0.21306   0.52409   0.00000  Uiso   1.00
C443   C     0.97651   0.16660   0.50012   0.00000  Uiso   1.00
C444   C     0.52361   0.16534   0.50060   0.00000  Uiso   1.00
C445   C     0.95711   0.21522   0.52291   0.00000  Uiso   1.00
C446   C     0.75146   0.26677   0.51568   0.00000  Uiso   1.00
C447   C     0.54299   0.11656   0.47767   0.00000  Uiso   1.00
C448   C     0.96806   0.07159   0.45459   0.00000  Uiso   1.00
C449   C     0.53174   0.26043   0.54685   0.00000  Uiso   1.00
C450   C     0.51406   0.06945   0.45459   0.00000  Uiso   1.00
C451   C     0.98556   0.26214   0.54670   0.00000  Uiso   1.00
C452   C     0.74776   0.01043   0.47566   0.00000  Uiso   1.00
C453   C     0.75224   0.32291   0.52434   0.00000  Uiso   1.00
C454   C     0.66472   0.16597   0.50039   0.00000  Uiso   1.00
C455   C     0.83527   0.16699   0.49956   0.00000  Uiso   1.00
C456   C     0.90996   0.21509   0.52137   0.00000  Uiso   1.00
Cu457  Cu    0.75500   0.17246   0.56146   0.00000  Uiso   1.00
Cu458  Cu    0.74499   0.16087   0.43854   0.00000  Uiso   1.00
H459   H     0.94723   0.03492   0.43664   0.00000  Uiso   1.00
H460   H     0.85555   0.06427   0.48935   0.00000  Uiso   1.00
H461   H     0.61888   0.28781   0.52094   0.00000  Uiso   1.00
H462   H     0.62310   0.27594   0.59277   0.00000  Uiso   1.00
H463   H     0.54937   0.00669   0.46454   0.00000  Uiso   1.00
H464   H     0.54657   0.01927   0.39213   0.00000  Uiso   1.00
H465   H     0.98194   0.32552   0.61737   0.00000  Uiso   1.00
H466   H     0.97923   0.00604   0.54734   0.00000  Uiso   1.00
H467   H     0.71100   0.07915   0.64770   0.00000  Uiso   1.00
H468   H     0.67436   0.12607   0.65566   0.00000  Uiso   1.00
H469   H     0.78902   0.25418   0.35231   0.00000  Uiso   1.00
H470   H     0.55212   0.29724   0.56538   0.00000  Uiso   1.00
H471   H     0.82565   0.20723   0.34434   0.00000  Uiso   1.00
H472   H     0.74346   0.31952   0.42892   0.00000  Uiso   1.00
H473   H     0.75655   0.01381   0.57108   0.00000  Uiso   1.00
H474   H     0.87078   0.26030   0.57872   0.00000  Uiso   1.00
H475   H     0.86667   0.26912   0.50587   0.00000  Uiso   1.00
H476   H     0.63434   0.06372   0.49327   0.00000  Uiso   1.00
H477   H     0.62962   0.07305   0.42060   0.00000  Uiso   1.00
H478   H     0.85244   0.07429   0.41710   0.00000  Uiso   1.00
N479   N     0.73744   0.15214   0.34617   0.00000  Uiso   1.00
N480   N     0.79447   0.21660   0.35935   0.00000  Uiso   1.00
N481   N     0.76255   0.18119   0.65383   0.00000  Uiso   1.00
N482   N     0.88884   0.26348   0.54181   0.00000  Uiso   1.00
N483   N     0.61188   0.06933   0.45762   0.00000  Uiso   1.00
N484   N     0.87435   0.07069   0.45429   0.00000  Uiso   1.00
N485   N     0.62718   0.26028   0.54659   0.00000  Uiso   1.00
N486   N     0.52935   0.01825   0.43038   0.00000  Uiso   1.00
N487   N     0.96833   0.31208   0.57168   0.00000  Uiso   1.00
N488   N     0.70554   0.11672   0.64065   0.00000  Uiso   1.00
O489   O     0.75325   0.09538   0.53992   0.00000  Uiso   1.00
O490   O     0.74674   0.23796   0.46008   0.00000  Uiso   1.00
O491   O     0.74480   0.08559   0.43612   0.00000  Uiso   1.00
O492   O     0.75520   0.24774   0.56388   0.00000  Uiso   1.00
O493   O     0.68935   0.17155   0.55191   0.00000  Uiso   1.00
O494   O     0.81064   0.16179   0.44809   0.00000  Uiso   1.00
O495   O     0.68090   0.16176   0.44810   0.00000  Uiso   1.00
O496   O     0.81910   0.17157   0.55190   0.00000  Uiso   1.00
C497   C     0.24853   0.39990   0.48432   0.00000  Uiso   1.00
C498   C     0.09022   0.45048   0.47861   0.00000  Uiso   1.00
C499   C     0.38334   0.50055   0.49864   0.00000  Uiso   1.00
C500   C     0.11662   0.49851   0.50132   0.00000  Uiso   1.00
C501   C     0.40228   0.45273   0.47639   0.00000  Uiso   1.00
C502   C     0.09790   0.54602   0.52427   0.00000  Uiso   1.00
C503   C     0.44887   0.45242   0.47686   0.00000  Uiso   1.00
C504   C     0.05119   0.54639   0.52409   0.00000  Uiso   1.00
C505   C     0.47651   0.49994   0.50012   0.00000  Uiso   1.00
C506   C     0.02361   0.49868   0.50060   0.00000  Uiso   1.00
C507   C     0.45711   0.54855   0.52291   0.00000  Uiso   1.00
C508   C     0.25146   0.60011   0.51568   0.00000  Uiso   1.00
C509   C     0.04299   0.44989   0.47767   0.00000  Uiso   1.00
C510   C     0.46806   0.40492   0.45459   0.00000  Uiso   1.00
C511   C     0.03174   0.59376   0.54685   0.00000  Uiso   1.00
C512   C     0.01406   0.40278   0.45459   0.00000  Uiso   1.00
C513   C     0.48556   0.59547   0.54670   0.00000  Uiso   1.00
C514   C     0.24776   0.34376   0.47566   0.00000  Uiso   1.00
C515   C     0.25224   0.65624   0.52434   0.00000  Uiso   1.00
C516   C     0.16472   0.49931   0.50039   0.00000  Uiso   1.00
C517   C     0.33527   0.50033   0.49956   0.00000  Uiso   1.00
C518   C     0.40996   0.54842   0.52137   0.00000  Uiso   1.00
Cu519  Cu    0.25500   0.50579   0.56146   0.00000  Uiso   1.00
Cu520  Cu    0.24499   0.49421   0.43854   0.00000  Uiso   1.00
H521   H     0.44723   0.36825   0.43664   0.00000  Uiso   1.00
H522   H     0.35555   0.39760   0.48935   0.00000  Uiso   1.00
H523   H     0.11888   0.62115   0.52094   0.00000  Uiso   1.00
H524   H     0.12310   0.60928   0.59277   0.00000  Uiso   1.00
H525   H     0.04937   0.34003   0.46454   0.00000  Uiso   1.00
H526   H     0.04657   0.35260   0.39213   0.00000  Uiso   1.00
H527   H     0.48194   0.65886   0.61737   0.00000  Uiso   1.00
H528   H     0.47923   0.33938   0.54734   0.00000  Uiso   1.00
H529   H     0.21100   0.41248   0.64770   0.00000  Uiso   1.00
H530   H     0.17436   0.45940   0.65566   0.00000  Uiso   1.00
H531   H     0.28902   0.58751   0.35231   0.00000  Uiso   1.00
H532   H     0.05212   0.63058   0.56538   0.00000  Uiso   1.00
H533   H     0.32565   0.54057   0.34434   0.00000  Uiso   1.00
H534   H     0.24346   0.65286   0.42892   0.00000  Uiso   1.00
H535   H     0.25655   0.34715   0.57108   0.00000  Uiso   1.00
H536   H     0.37078   0.59363   0.57872   0.00000  Uiso   1.00
H537   H     0.36667   0.60246   0.50587   0.00000  Uiso   1.00
H538   H     0.13434   0.39705   0.49327   0.00000  Uiso   1.00
H539   H     0.12962   0.40638   0.42060   0.00000  Uiso   1.00
H540   H     0.35244   0.40762   0.41710   0.00000  Uiso   1.00
N541   N     0.23744   0.48547   0.34617   0.00000  Uiso   1.00
N542   N     0.29447   0.54993   0.35935   0.00000  Uiso   1.00
N543   N     0.26255   0.51453   0.65383   0.00000  Uiso   1.00
N544   N     0.38884   0.59681   0.54181   0.00000  Uiso   1.00
N545   N     0.11188   0.40266   0.45762   0.00000  Uiso   1.00
N546   N     0.37435   0.40402   0.45429   0.00000  Uiso   1.00
N547   N     0.12718   0.59361   0.54659   0.00000  Uiso   1.00
N548   N     0.02935   0.35158   0.43038   0.00000  Uiso   1.00
N549   N     0.46833   0.64541   0.57168   0.00000  Uiso   1.00
N550   N     0.20554   0.45006   0.64065   0.00000  Uiso   1.00
O551   O     0.25325   0.42871   0.53992   0.00000  Uiso   1.00
O552   O     0.24674   0.57129   0.46008   0.00000  Uiso   1.00
O553   O     0.24480   0.41892   0.43612   0.00000  Uiso   1.00
O554   O     0.25520   0.58108   0.56388   0.00000  Uiso   1.00
O555   O     0.18935   0.50488   0.55191   0.00000  Uiso   1.00
O556   O     0.31064   0.49512   0.44809   0.00000  Uiso   1.00
O557   O     0.18090   0.49510   0.44810   0.00000  Uiso   1.00
O558   O     0.31910   0.50490   0.55190   0.00000  Uiso   1.00
C559   C     0.74853   0.39990   0.48432   0.00000  Uiso   1.00
C560   C     0.59022   0.45048   0.47861   0.00000  Uiso   1.00
C561   C     0.88334   0.50055   0.49864   0.00000  Uiso   1.00
C562   C     0.61662   0.49851   0.50132   0.00000  Uiso   1.00
C563   C     0.90228   0.45273   0.47639   0.00000  Uiso   1.00
C564   C     0.59790   0.54602   0.52427   0.00000  Uiso   1.00
C565   C     0.94887   0.45242   0.47686   0.00000  Uiso   1.00
C566   C     0.55119   0.54639   0.52409   0.00000  Uiso   1.00
C567   C     0.97651   0.49994   0.50012   0.00000  Uiso   1.00
C568   C     0.52361   0.49868   0.50060   0.00000  Uiso   1.00
C569   C     0.95711   0.54855   0.52291   0.00000  Uiso   1.00
C570   C     0.75146   0.60011   0.51568   0.00000  Uiso   1.00
C571   C     0.54299   0.44989   0.47767   0.00000  Uiso   1.00
C572   C     0.96806   0.40492   0.45459   0.00000  Uiso   1.00
C573   C     0.53174   0.59376   0.54685   0.00000  Uiso   1.00
C574   C     0.51406   0.40278   0.45459   0.00000  Uiso   1.00
C575   C     0.98556   0.59547   0.54670   0.00000  Uiso   1.00
C576   C     0.74776   0.34376   0.47566   0.00000  Uiso   1.00
C577   C     0.75224   0.65624   0.52434   0.00000  Uiso   1.00
C578   C     0.66472   0.49931   0.50039   0.00000  Uiso   1.00
C579   C     0.83527   0.50033   0.49956   0.00000  Uiso   1.00
C580   C     0.90996   0.54842   0.52137   0.00000  Uiso   1.00
Cu581  Cu    0.75500   0.50579   0.56146   0.00000  Uiso   1.00
Cu582  Cu    0.74499   0.49421   0.43854   0.00000  Uiso   1.00
H583   H     0.94723   0.36825   0.43664   0.00000  Uiso   1.00
H584   H     0.85555   0.39760   0.48935   0.00000  Uiso   1.00
H585   H     0.61888   0.62115   0.52094   0.00000  Uiso   1.00
H586   H     0.62310   0.60928   0.59277   0.00000  Uiso   1.00
H587   H     0.54937   0.34003   0.46454   0.00000  Uiso   1.00
H588   H     0.54657   0.35260   0.39213   0.00000  Uiso   1.00
H589   H     0.98194   0.65886   0.61737   0.00000  Uiso   1.00
H590   H     0.97923   0.33938   0.54734   0.00000  Uiso   1.00
H591   H     0.71100   0.41248   0.64770   0.00000  Uiso   1.00
H592   H     0.67436   0.45940   0.65566   0.00000  Uiso   1.00
H593   H     0.78902   0.58751   0.35231   0.00000  Uiso   1.00
H594   H     0.55212   0.63058   0.56538   0.00000  Uiso   1.00
H595   H     0.82565   0.54057   0.34434   0.00000  Uiso   1.00
H596   H     0.74346   0.65286   0.42892   0.00000  Uiso   1.00
H597   H     0.75655   0.34715   0.57108   0.00000  Uiso   1.00
H598   H     0.87078   0.59363   0.57872   0.00000  Uiso   1.00
H599   H     0.86667   0.60246   0.50587   0.00000  Uiso   1.00
H600   H     0.63434   0.39705   0.49327   0.00000  Uiso   1.00
H601   H     0.62962   0.40638   0.42060   0.00000  Uiso   1.00
H602   H     0.85244   0.40762   0.41710   0.00000  Uiso   1.00
N603   N     0.73744   0.48547   0.34617   0.00000  Uiso   1.00
N604   N     0.79447   0.54993   0.35935   0.00000  Uiso   1.00
N605   N     0.76255   0.51453   0.65383   0.00000  Uiso   1.00
N606   N     0.88884   0.59681   0.54181   0.00000  Uiso   1.00
N607   N     0.61188   0.40266   0.45762   0.00000  Uiso   1.00
N608   N     0.87435   0.40402   0.45429   0.00000  Uiso   1.00
N609   N     0.62718   0.59361   0.54659   0.00000  Uiso   1.00
N610   N     0.52935   0.35158   0.43038   0.00000  Uiso   1.00
N611   N     0.96833   0.64541   0.57168   0.00000  Uiso   1.00
N612   N     0.70554   0.45006   0.64065   0.00000  Uiso   1.00
O613   O     0.75325   0.42871   0.53992   0.00000  Uiso   1.00
O614   O     0.74674   0.57129   0.46008   0.00000  Uiso   1.00
O615   O     0.74480   0.41892   0.43612   0.00000  Uiso   1.00
O616   O     0.75520   0.58108   0.56388   0.00000  Uiso   1.00
O617   O     0.68935   0.50488   0.55191   0.00000  Uiso   1.00
O618   O     0.81064   0.49512   0.44809   0.00000  Uiso   1.00
O619   O     0.68090   0.49510   0.44810   0.00000  Uiso   1.00
O620   O     0.81910   0.50490   0.55190   0.00000  Uiso   1.00
C621   C     0.24853   0.73323   0.48432   0.00000  Uiso   1.00
C622   C     0.09022   0.78382   0.47861   0.00000  Uiso   1.00
C623   C     0.38334   0.83389   0.49864   0.00000  Uiso   1.00
C624   C     0.11662   0.83184   0.50132   0.00000  Uiso   1.00
C625   C     0.40228   0.78606   0.47639   0.00000  Uiso   1.00
C626   C     0.09790   0.87935   0.52427   0.00000  Uiso   1.00
C627   C     0.44887   0.78576   0.47686   0.00000  Uiso   1.00
C628   C     0.05119   0.87972   0.52409   0.00000  Uiso   1.00
C629   C     0.47651   0.83327   0.50012   0.00000  Uiso   1.00
C630   C     0.02361   0.83201   0.50060   0.00000  Uiso   1.00
C631   C     0.45711   0.88188   0.52291   0.00000  Uiso   1.00
C632   C     0.25146   0.93344   0.51568   0.00000  Uiso   1.00
C633   C     0.04299   0.78322   0.47767   0.00000  Uiso   1.00
C634   C     0.46806   0.73826   0.45459   0.00000  Uiso   1.00
C635   C     0.03174   0.92709   0.54685   0.00000  Uiso   1.00
C636   C     0.01406   0.73611   0.45459   0.00000  Uiso   1.00
C637   C     0.48556   0.92880   0.54670   0.00000  Uiso   1.00
C638   C     0.24776   0.67709   0.47566   0.00000  Uiso   1.00
C639   C     0.25224   0.98958   0.52434   0.00000  Uiso   1.00
C640   C     0.16472   0.83264   0.50039   0.00000  Uiso   1.00
C641   C     0.33527   0.83366   0.49956   0.00000  Uiso   1.00
C642   C     0.40996   0.88176   0.52137   0.00000  Uiso   1.00
Cu643  Cu    0.25500   0.83913   0.56146   0.00000  Uiso   1.00
Cu644  Cu    0.24499   0.82754   0.43854   0.00000  Uiso   1.00
H645   H     0.44723   0.70158   0.43664   0.00000  Uiso   1.00
H646   H     0.35555   0.73093   0.48935   0.00000  Uiso   1.00
H647   H     0.11888   0.95448   0.52094   0.00000  Uiso   1.00
H648   H     0.12310   0.94261   0.59277   0.00000  Uiso   1.00
H649   H     0.04937   0.67336   0.46454   0.00000  Uiso   1.00
H650   H     0.04657   0.68593   0.39213   0.00000  Uiso   1.00
H651   H     0.48194   0.99219   0.61737   0.00000  Uiso   1.00
H652   H     0.47923   0.67271   0.54734   0.00000  Uiso   1.00
H653   H     0.21100   0.74581   0.64770   0.00000  Uiso   1.00
H654   H     0.17436   0.79273   0.65566   0.00000  Uiso   1.00
H655   H     0.28902   0.92084   0.35231   0.00000  Uiso   1.00
H656   H     0.05212   0.96391   0.56538   0.00000  Uiso   1.00
H657   H     0.32565   0.87390   0.34434   0.00000  Uiso   1.00
H658   H     0.24346   0.98619   0.42892   0.00000  Uiso   1.00
H659   H     0.25655   0.68048   0.57108   0.00000  Uiso   1.00
H660   H     0.37078   0.92696   0.57872   0.00000  Uiso   1.00
H661   H     0.36667   0.93579   0.50587   0.00000  Uiso   1.00
H662   H     0.13434   0.73038   0.49327   0.00000  Uiso   1.00
H663   H     0.12962   0.73971   0.42060   0.00000  Uiso   1.00
H664   H     0.35244   0.74095   0.41710   0.00000  Uiso   1.00
N665   N     0.23744   0.81881   0.34617   0.00000  Uiso   1.00
N666   N     0.29447   0.88326   0.35935   0.00000  Uiso   1.00
N667   N     0.26255   0.84786   0.65383   0.00000  Uiso   1.00
N668   N     0.38884   0.93014   0.54181   0.00000  Uiso   1.00
N669   N     0.11188   0.73600   0.45762   0.00000  Uiso   1.00
N670   N     0.37435   0.73736   0.45429   0.00000  Uiso   1.00
N671   N     0.12718   0.92695   0.54659   0.00000  Uiso   1.00
N672   N     0.02935   0.68491   0.43038   0.00000  Uiso   1.00
N673   N     0.46833   0.97874   0.57168   0.00000  Uiso   1.00
N674   N     0.20554   0.78339   0.64065   0.00000  Uiso   1.00
O675   O     0.25325   0.76204   0.53992   0.00000  Uiso   1.00
O676   O     0.24674   0.90462   0.46008   0.00000  Uiso   1.00
O677   O     0.24480   0.75226   0.43612   0.00000  Uiso   1.00
O678   O     0.25520   0.91441   0.56388   0.00000  Uiso   1.00
O679   O     0.18935   0.83821   0.55191   0.00000  Uiso   1.00
O680   O     0.31064   0.82845   0.44809   0.00000  Uiso   1.00
O681   O     0.18090   0.82843   0.44810   0.00000  Uiso   1.00
O682   O     0.31910   0.83824   0.55190   0.00000  Uiso   1.00
C683   C     0.74853   0.73323   0.48432   0.00000  Uiso   1.00
C684   C     0.59022   0.78382   0.47861   0.00000  Uiso   1.00
C685   C     0.88334   0.83389   0.49864   0.00000  Uiso   1.00
C686   C     0.61662   0.83184   0.50132   0.00000  Uiso   1.00
C687   C     0.90228   0.78606   0.47639   0.00000  Uiso   1.00
C688   C     0.59790   0.87935   0.52427   0.00000  Uiso   1.00
C689   C     0.94887   0.78576   0.47686   0.00000  Uiso   1.00
C690   C     0.55119   0.87972   0.52409   0.00000  Uiso   1.00
C691   C     0.97651   0.83327   0.50012   0.00000  Uiso   1.00
C692   C     0.52361   0.83201   0.50060   0.00000  Uiso   1.00
C693   C     0.95711   0.88188   0.52291   0.00000  Uiso   1.00
C694   C     0.75146   0.93344   0.51568   0.00000  Uiso   1.00
C695   C     0.54299   0.78322   0.47767   0.00000  Uiso   1.00
C696   C     0.96806   0.73826   0.45459   0.00000  Uiso   1.00
C697   C     0.53174   0.92709   0.54685   0.00000  Uiso   1.00
C698   C     0.51406   0.73611   0.45459   0.00000  Uiso   1.00
C699   C     0.98556   0.92880   0.54670   0.00000  Uiso   1.00
C700   C     0.74776   0.67709   0.47566   0.00000  Uiso   1.00
C701   C     0.75224   0.98958   0.52434   0.00000  Uiso   1.00
C702   C     0.66472   0.83264   0.50039   0.00000  Uiso   1.00
C703   C     0.83527   0.83366   0.49956   0.00000  Uiso   1.00
C704   C     0.90996   0.88176   0.52137   0.00000  Uiso   1.00
Cu705  Cu    0.75500   0.83913   0.56146   0.00000  Uiso   1.00
Cu706  Cu    0.74499   0.82754   0.43854   0.00000  Uiso   1.00
H707   H     0.94723   0.70158   0.43664   0.00000  Uiso   1.00
H708   H     0.85555   0.73093   0.48935   0.00000  Uiso   1.00
H709   H     0.61888   0.95448   0.52094   0.00000  Uiso   1.00
H710   H     0.62310   0.94261   0.59277   0.00000  Uiso   1.00
H711   H     0.54937   0.67336   0.46454   0.00000  Uiso   1.00
H712   H     0.54657   0.68593   0.39213   0.00000  Uiso   1.00
H713   H     0.98194   0.99219   0.61737   0.00000  Uiso   1.00
H714   H     0.97923   0.67271   0.54734   0.00000  Uiso   1.00
H715   H     0.71100   0.74581   0.64770   0.00000  Uiso   1.00
H716   H     0.67436   0.79273   0.65566   0.00000  Uiso   1.00
H717   H     0.78902   0.92084   0.35231   0.00000  Uiso   1.00
H718   H     0.55212   0.96391   0.56538   0.00000  Uiso   1.00
H719   H     0.82565   0.87390   0.34434   0.00000  Uiso   1.00
H720   H     0.74346   0.98619   0.42892   0.00000  Uiso   1.00
H721   H     0.75655   0.68048   0.57108   0.00000  Uiso   1.00
H722   H     0.87078   0.92696   0.57872   0.00000  Uiso   1.00
H723   H     0.86667   0.93579   0.50587   0.00000  Uiso   1.00
H724   H     0.63434   0.73038   0.49327   0.00000  Uiso   1.00
H725   H     0.62962   0.73971   0.42060   0.00000  Uiso   1.00
H726   H     0.85244   0.74095   0.41710   0.00000  Uiso   1.00
N727   N     0.73744   0.81881   0.34617   0.00000  Uiso   1.00
N728   N     0.79447   0.88326   0.35935   0.00000  Uiso   1.00
N729   N     0.76255   0.84786   0.65383   0.00000  Uiso   1.00
N730   N     0.88884   0.93014   0.54181   0.00000  Uiso   1.00
N731   N     0.61188   0.73600   0.45762   0.00000  Uiso   1.00
N732   N     0.87435   0.73736   0.45429   0.00000  Uiso   1.00
N733   N     0.62718   0.92695   0.54659   0.00000  Uiso   1.00
N734   N     0.52935   0.68491   0.43038   0.00000  Uiso   1.00
N735   N     0.96833   0.97874   0.57168   0.00000  Uiso   1.00
N736   N     0.70554   0.78339   0.64065   0.00000  Uiso   1.00
O737   O     0.75325   0.76204   0.53992   0.00000  Uiso   1.00
O738   O     0.74674   0.90462   0.46008   0.00000  Uiso   1.00
O739   O     0.74480   0.75226   0.43612   0.00000  Uiso   1.00
O740   O     0.75520   0.91441   0.56388   0.00000  Uiso   1.00
O741   O     0.68935   0.83821   0.55191   0.00000  Uiso   1.00
O742   O     0.81064   0.82845   0.44809   0.00000  Uiso   1.00
O743   O     0.68090   0.82843   0.44810   0.00000  Uiso   1.00
O744   O     0.81910   0.83824   0.55190   0.00000  Uiso   1.00
C745   C     0.24853   0.06656   0.81765   0.00000  Uiso   1.00
C746   C     0.09022   0.11715   0.81195   0.00000  Uiso   1.00
C747   C     0.38334   0.16722   0.83197   0.00000  Uiso   1.00
C748   C     0.11662   0.16517   0.83465   0.00000  Uiso   1.00
C749   C     0.40228   0.11940   0.80972   0.00000  Uiso   1.00
C750   C     0.09790   0.21268   0.85761   0.00000  Uiso   1.00
C751   C     0.44887   0.11909   0.81019   0.00000  Uiso   1.00
C752   C     0.05119   0.21306   0.85742   0.00000  Uiso   1.00
C753   C     0.47651   0.16660   0.83345   0.00000  Uiso   1.00
C754   C     0.02361   0.16534   0.83393   0.00000  Uiso   1.00
C755   C     0.45711   0.21522   0.85624   0.00000  Uiso   1.00
C756   C     0.25146   0.26677   0.84902   0.00000  Uiso   1.00
C757   C     0.04299   0.11656   0.81101   0.00000  Uiso   1.00
C758   C     0.46806   0.07159   0.78792   0.00000  Uiso   1.00
C759   C     0.03174   0.26043   0.88019   0.00000  Uiso   1.00
C760   C     0.01406   0.06945   0.78793   0.00000  Uiso   1.00
C761   C     0.48556   0.26214   0.88004   0.00000  Uiso   1.00
C762   C     0.24776   0.01043   0.80899   0.00000  Uiso   1.00
C763   C     0.25224   0.32291   0.85767   0.00000  Uiso   1.00
C764   C     0.16472   0.16597   0.83372   0.00000  Uiso   1.00
C765   C     0.33527   0.16699   0.83289   0.00000  Uiso   1.00
C766   C     0.40996   0.21509   0.85471   0.00000  Uiso   1.00
Cu767  Cu    0.25500   0.17246   0.89479   0.00000  Uiso   1.00
Cu768  Cu    0.24499   0.16087   0.77187   0.00000  Uiso   1.00
H769   H     0.44723   0.03492   0.76998   0.00000  Uiso   1.00
H770   H     0.35555   0.06427   0.82268   0.00000  Uiso   1.00
H771   H     0.11888   0.28781   0.85427   0.00000  Uiso   1.00
H772   H     0.12310   0.27594   0.92611   0.00000  Uiso   1.00
H773   H     0.04937   0.00669   0.79787   0.00000  Uiso   1.00
H774   H     0.04657   0.01927   0.72546   0.00000  Uiso   1.00
H775   H     0.48194   0.32552   0.95070   0.00000  Uiso   1.00
H776   H     0.47923   0.00604   0.88067   0.00000  Uiso   1.00
H777   H     0.21100   0.07915   0.98103   0.00000  Uiso   1.00
H778   H     0.17436   0.12607   0.98899   0.00000  Uiso   1.00
H779   H     0.28902   0.25418   0.68564   0.00000  Uiso   1.00
H780   H     0.05212   0.29724   0.89872   0.00000  Uiso   1.00
H781   H     0.32565   0.20723   0.67767   0.00000  Uiso   1.00
H782   H     0.24346   0.31952   0.76225   0.00000  Uiso   1.00
H783   H     0.25655   0.01381   0.90441   0.00000  Uiso   1.00
H784   H     0.37078   0.26030   0.91206   0.00000  Uiso   1.00
H785   H     0.36667   0.26912   0.83920   0.00000  Uiso   1.00
H786   H     0.13434   0.06372   0.82661   0.00000  Uiso   1.00
H787   H     0.12962   0.07305   0.75393   0.00000  Uiso   1.00
H788   H     0.35244   0.07429   0.75043   0.00000  Uiso   1.00
N789   N     0.23744   0.15214   0.67951   0.00000  Uiso   1.00
N790   N     0.29447   0.21660   0.69269   0.00000  Uiso   1.00
N791   N     0.26255   0.18119   0.98716   0.00000  Uiso   1.00
N792   N     0.38884   0.26348   0.87514   0.00000  Uiso   1.00
N793   N     0.11188   0.06933   0.79095   0.00000  Uiso   1.00
N794   N     0.37435   0.07069   0.78762   0.00000  Uiso   1.00
N795   N     0.12718   0.26028   0.87992   0.00000  Uiso   1.00
N796   N     0.02935   0.01825   0.76371   0.00000  Uiso   1.00
N797   N     0.46833   0.31208   0.90501   0.00000  Uiso   1.00
N798   N     0.20554   0.11672   0.97398   0.00000  Uiso   1.00
O799   O     0.25325   0.09538   0.87326   0.00000  Uiso   1.00
O800   O     0.24674   0.23796   0.79341   0.00000  Uiso   1.00
O801   O     0.24480   0.08559   0.76945   0.00000  Uiso   1.00
O802   O     0.25520   0.24774   0.89721   0.00000  Uiso   1.00
O803   O     0.18935   0.17155   0.88524   0.00000  Uiso   1.00
O804   O     0.31064   0.16179   0.78143   0.00000  Uiso   1.00
O805   O     0.18090   0.16176   0.78143   0.00000  Uiso   1.00
O806   O     0.31910   0.17157   0.88523   0.00000  Uiso   1.00
C807   C     0.74853   0.06656   0.81765   0.00000  Uiso   1.00
C808   C     0.59022   0.11715   0.81195   0.00000  Uiso   1.00
C809   C     0.88334   0.16722   0.83197   0.00000  Uiso   1.00
C810   C     0.61662   0.16517   0.83465   0.00000  Uiso   1.00
C811   C     0.90228   0.11940   0.80972   0.00000  Uiso   1.00
C812   C     0.59790   0.21268   0.85761   0.00000  Uiso   1.00
C813   C     0.94887   0.11909   0.81019   0.00000  Uiso   1.00
C814   C     0.55119   0.21306   0.85742   0.00000  Uiso   1.00
C815   C     0.97651   0.16660   0.83345   0.00000  Uiso   1.00
C816   C     0.52361   0.16534   0.83393   0.00000  Uiso   1.00
C817   C     0.95711   0.21522   0.85624   0.00000  Uiso   1.00
C818   C     0.75146   0.26677   0.84902   0.00000  Uiso   1.00
C819   C     0.54299   0.11656   0.81101   0.00000  Uiso   1.00
C820   C     0.96806   0.07159   0.78792   0.00000  Uiso   1.00
C821   C     0.53174   0.26043   0.88019   0.00000  Uiso   1.00
C822   C     0.51406   0.06945   0.78793   0.00000  Uiso   1.00
C823   C     0.98556   0.26214   0.88004   0.00000  Uiso   1.00
C824   C     0.74776   0.01043   0.80899   0.00000  Uiso   1.00
C825   C     0.75224   0.32291   0.85767   0.00000  Uiso   1.00
C826   C     0.66472   0.16597   0.83372   0.00000  Uiso   1.00
C827   C     0.83527   0.16699   0.83289   0.00000  Uiso   1.00
C828   C     0.90996   0.21509   0.85471   0.00000  Uiso   1.00
Cu829  Cu    0.75500   0.17246   0.89479   0.00000  Uiso   1.00
Cu830  Cu    0.74499   0.16087   0.77187   0.00000  Uiso   1.00
H831   H     0.94723   0.03492   0.76998   0.00000  Uiso   1.00
H832   H     0.85555   0.06427   0.82268   0.00000  Uiso   1.00
H833   H     0.61888   0.28781   0.85427   0.00000  Uiso   1.00
H834   H     0.62310   0.27594   0.92611   0.00000  Uiso   1.00
H835   H     0.54937   0.00669   0.79787   0.00000  Uiso   1.00
H836   H     0.54657   0.01927   0.72546   0.00000  Uiso   1.00
H837   H     0.98194   0.32552   0.95070   0.00000  Uiso   1.00
H838   H     0.97923   0.00604   0.88067   0.00000  Uiso   1.00
H839   H     0.71100   0.07915   0.98103   0.00000  Uiso   1.00
H840   H     0.67436   0.12607   0.98899   0.00000  Uiso   1.00
H841   H     0.78902   0.25418   0.68564   0.00000  Uiso   1.00
H842   H     0.55212   0.29724   0.89872   0.00000  Uiso   1.00
H843   H     0.82565   0.20723   0.67767   0.00000  Uiso   1.00
H844   H     0.74346   0.31952   0.76225   0.00000  Uiso   1.00
H845   H     0.75655   0.01381   0.90441   0.00000  Uiso   1.00
H846   H     0.87078   0.26030   0.91206   0.00000  Uiso   1.00
H847   H     0.86667   0.26912   0.83920   0.00000  Uiso   1.00
H848   H     0.63434   0.06372   0.82661   0.00000  Uiso   1.00
H849   H     0.62962   0.07305   0.75393   0.00000  Uiso   1.00
H850   H     0.85244   0.07429   0.75043   0.00000  Uiso   1.00
N851   N     0.73744   0.15214   0.67951   0.00000  Uiso   1.00
N852   N     0.79447   0.21660   0.69269   0.00000  Uiso   1.00
N853   N     0.76255   0.18119   0.98716   0.00000  Uiso   1.00
N854   N     0.88884   0.26348   0.87514   0.00000  Uiso   1.00
N855   N     0.61188   0.06933   0.79095   0.00000  Uiso   1.00
N856   N     0.87435   0.07069   0.78762   0.00000  Uiso   1.00
N857   N     0.62718   0.26028   0.87992   0.00000  Uiso   1.00
N858   N     0.52935   0.01825   0.76371   0.00000  Uiso   1.00
N859   N     0.96833   0.31208   0.90501   0.00000  Uiso   1.00
N860   N     0.70554   0.11672   0.97398   0.00000  Uiso   1.00
O861   O     0.75325   0.09538   0.87326   0.00000  Uiso   1.00
O862   O     0.74674   0.23796   0.79341   0.00000  Uiso   1.00
O863   O     0.74480   0.08559   0.76945   0.00000  Uiso   1.00
O864   O     0.75520   0.24774   0.89721   0.00000  Uiso   1.00
O865   O     0.68935   0.17155   0.88524   0.00000  Uiso   1.00
O866   O     0.81064   0.16179   0.78143   0.00000  Uiso   1.00
O867   O     0.68090   0.16176   0.78143   0.00000  Uiso   1.00
O868   O     0.81910   0.17157   0.88523   0.00000  Uiso   1.00
C869   C     0.24853   0.39990   0.81765   0.00000  Uiso   1.00
C870   C     0.09022   0.45048   0.81195   0.00000  Uiso   1.00
C871   C     0.38334   0.50055   0.83197   0.00000  Uiso   1.00
C872   C     0.11662   0.49851   0.83465   0.00000  Uiso   1.00
C873   C     0.40228   0.45273   0.80972   0.00000  Uiso   1.00
C874   C     0.09790   0.54602   0.85761   0.00000  Uiso   1.00
C875   C     0.44887   0.45242   0.81019   0.00000  Uiso   1.00
C876   C     0.05119   0.54639   0.85742   0.00000  Uiso   1.00
C877   C     0.47651   0.49994   0.83345   0.00000  Uiso   1.00
C878   C     0.02361   0.49868   0.83393   0.00000  Uiso   1.00
C879   C     0.45711   0.54855   0.85624   0.00000  Uiso   1.00
C880   C     0.25146   0.60011   0.84902   0.00000  Uiso   1.00
C881   C     0.04299   0.44989   0.81101   0.00000  Uiso   1.00
C882   C     0.46806   0.40492   0.78792   0.00000  Uiso   1.00
C883   C     0.03174   0.59376   0.88019   0.00000  Uiso   1.00
C884   C     0.01406   0.40278   0.78793   0.00000  Uiso   1.00
C885   C     0.48556   0.59547   0.88004   0.00000  Uiso   1.00
C886   C     0.24776   0.34376   0.80899   0.00000  Uiso   1.00
C887   C     0.25224   0.65624   0.85767   0.00000  Uiso   1.00
C888   C     0.16472   0.49931   0.83372   0.00000  Uiso   1.00
C889   C     0.33527   0.50033   0.83289   0.00000  Uiso   1.00
C890   C     0.40996   0.54842   0.85471   0.00000  Uiso   1.00
Cu891  Cu    0.25500   0.50579   0.89479   0.00000  Uiso   1.00
Cu892  Cu    0.24499   0.49421   0.77187   0.00000  Uiso   1.00
H893   H     0.44723   0.36825   0.76998   0.00000  Uiso   1.00
H894   H     0.35555   0.39760   0.82268   0.00000  Uiso   1.00
H895   H     0.11888   0.62115   0.85427   0.00000  Uiso   1.00
H896   H     0.12310   0.60928   0.92611   0.00000  Uiso   1.00
H897   H     0.04937   0.34003   0.79787   0.00000  Uiso   1.00
H898   H     0.04657   0.35260   0.72546   0.00000  Uiso   1.00
H899   H     0.48194   0.65886   0.95070   0.00000  Uiso   1.00
H900   H     0.47923   0.33938   0.88067   0.00000  Uiso   1.00
H901   H     0.21100   0.41248   0.98103   0.00000  Uiso   1.00
H902   H     0.17436   0.45940   0.98899   0.00000  Uiso   1.00
H903   H     0.28902   0.58751   0.68564   0.00000  Uiso   1.00
H904   H     0.05212   0.63058   0.89872   0.00000  Uiso   1.00
H905   H     0.32565   0.54057   0.67767   0.00000  Uiso   1.00
H906   H     0.24346   0.65286   0.76225   0.00000  Uiso   1.00
H907   H     0.25655   0.34715   0.90441   0.00000  Uiso   1.00
H908   H     0.37078   0.59363   0.91206   0.00000  Uiso   1.00
H909   H     0.36667   0.60246   0.83920   0.00000  Uiso   1.00
H910   H     0.13434   0.39705   0.82661   0.00000  Uiso   1.00
H911   H     0.12962   0.40638   0.75393   0.00000  Uiso   1.00
H912   H     0.35244   0.40762   0.75043   0.00000  Uiso   1.00
N913   N     0.23744   0.48547   0.67951   0.00000  Uiso   1.00
N914   N     0.29447   0.54993   0.69269   0.00000  Uiso   1.00
N915   N     0.26255   0.51453   0.98716   0.00000  Uiso   1.00
N916   N     0.38884   0.59681   0.87514   0.00000  Uiso   1.00
N917   N     0.11188   0.40266   0.79095   0.00000  Uiso   1.00
N918   N     0.37435   0.40402   0.78762   0.00000  Uiso   1.00
N919   N     0.12718   0.59361   0.87992   0.00000  Uiso   1.00
N920   N     0.02935   0.35158   0.76371   0.00000  Uiso   1.00
N921   N     0.46833   0.64541   0.90501   0.00000  Uiso   1.00
N922   N     0.20554   0.45006   0.97398   0.00000  Uiso   1.00
O923   O     0.25325   0.42871   0.87326   0.00000  Uiso   1.00
O924   O     0.24674   0.57129   0.79341   0.00000  Uiso   1.00
O925   O     0.24480   0.41892   0.76945   0.00000  Uiso   1.00
O926   O     0.25520   0.58108   0.89721   0.00000  Uiso   1.00
O927   O     0.18935   0.50488   0.88524   0.00000  Uiso   1.00
O928   O     0.31064   0.49512   0.78143   0.00000  Uiso   1.00
O929   O     0.18090   0.49510   0.78143   0.00000  Uiso   1.00
O930   O     0.31910   0.50490   0.88523   0.00000  Uiso   1.00
C931   C     0.74853   0.39990   0.81765   0.00000  Uiso   1.00
C932   C     0.59022   0.45048   0.81195   0.00000  Uiso   1.00
C933   C     0.88334   0.50055   0.83197   0.00000  Uiso   1.00
C934   C     0.61662   0.49851   0.83465   0.00000  Uiso   1.00
C935   C     0.90228   0.45273   0.80972   0.00000  Uiso   1.00
C936   C     0.59790   0.54602   0.85761   0.00000  Uiso   1.00
C937   C     0.94887   0.45242   0.81019   0.00000  Uiso   1.00
C938   C     0.55119   0.54639   0.85742   0.00000  Uiso   1.00
C939   C     0.97651   0.49994   0.83345   0.00000  Uiso   1.00
C940   C     0.52361   0.49868   0.83393   0.00000  Uiso   1.00
C941   C     0.95711   0.54855   0.85624   0.00000  Uiso   1.00
C942   C     0.75146   0.60011   0.84902   0.00000  Uiso   1.00
C943   C     0.54299   0.44989   0.81101   0.00000  Uiso   1.00
C944   C     0.96806   0.40492   0.78792   0.00000  Uiso   1.00
C945   C     0.53174   0.59376   0.88019   0.00000  Uiso   1.00
C946   C     0.51406   0.40278   0.78793   0.00000  Uiso   1.00
C947   C     0.98556   0.59547   0.88004   0.00000  Uiso   1.00
C948   C     0.74776   0.34376   0.80899   0.00000  Uiso   1.00
C949   C     0.75224   0.65624   0.85767   0.00000  Uiso   1.00
C950   C     0.66472   0.49931   0.83372   0.00000  Uiso   1.00
C951   C     0.83527   0.50033   0.83289   0.00000  Uiso   1.00
C952   C     0.90996   0.54842   0.85471   0.00000  Uiso   1.00
Cu953  Cu    0.75500   0.50579   0.89479   0.00000  Uiso   1.00
Cu954  Cu    0.74499   0.49421   0.77187   0.00000  Uiso   1.00
H955   H     0.94723   0.36825   0.76998   0.00000  Uiso   1.00
H956   H     0.85555   0.39760   0.82268   0.00000  Uiso   1.00
H957   H     0.61888   0.62115   0.85427   0.00000  Uiso   1.00
H958   H     0.62310   0.60928   0.92611   0.00000  Uiso   1.00
H959   H     0.54937   0.34003   0.79787   0.00000  Uiso   1.00
H960   H     0.54657   0.35260   0.72546   0.00000  Uiso   1.00
H961   H     0.98194   0.65886   0.95070   0.00000  Uiso   1.00
H962   H     0.97923   0.33938   0.88067   0.00000  Uiso   1.00
H963   H     0.71100   0.41248   0.98103   0.00000  Uiso   1.00
H964   H     0.67436   0.45940   0.98899   0.00000  Uiso   1.00
H965   H     0.78902   0.58751   0.68564   0.00000  Uiso   1.00
H966   H     0.55212   0.63058   0.89872   0.00000  Uiso   1.00
H967   H     0.82565   0.54057   0.67767   0.00000  Uiso   1.00
H968   H     0.74346   0.65286   0.76225   0.00000  Uiso   1.00
H969   H     0.75655   0.34715   0.90441   0.00000  Uiso   1.00
H970   H     0.87078   0.59363   0.91206   0.00000  Uiso   1.00
H971   H     0.86667   0.60246   0.83920   0.00000  Uiso   1.00
H972   H     0.63434   0.39705   0.82661   0.00000  Uiso   1.00
H973   H     0.62962   0.40638   0.75393   0.00000  Uiso   1.00
H974   H     0.85244   0.40762   0.75043   0.00000  Uiso   1.00
N975   N     0.73744   0.48547   0.67951   0.00000  Uiso   1.00
N976   N     0.79447   0.54993   0.69269   0.00000  Uiso   1.00
N977   N     0.76255   0.51453   0.98716   0.00000  Uiso   1.00
N978   N     0.88884   0.59681   0.87514   0.00000  Uiso   1.00
N979   N     0.61188   0.40266   0.79095   0.00000  Uiso   1.00
N980   N     0.87435   0.40402   0.78762   0.00000  Uiso   1.00
N981   N     0.62718   0.59361   0.87992   0.00000  Uiso   1.00
N982   N     0.52935   0.35158   0.76371   0.00000  Uiso   1.00
N983   N     0.96833   0.64541   0.90501   0.00000  Uiso   1.00
N984   N     0.70554   0.45006   0.97398   0.00000  Uiso   1.00
O985   O     0.75325   0.42871   0.87326   0.00000  Uiso   1.00
O986   O     0.74674   0.57129   0.79341   0.00000  Uiso   1.00
O987   O     0.74480   0.41892   0.76945   0.00000  Uiso   1.00
O988   O     0.75520   0.58108   0.89721   0.00000  Uiso   1.00
O989   O     0.68935   0.50488   0.88524   0.00000  Uiso   1.00
O990   O     0.81064   0.49512   0.78143   0.00000  Uiso   1.00
O991   O     0.68090   0.49510   0.78143   0.00000  Uiso   1.00
O992   O     0.81910   0.50490   0.88523   0.00000  Uiso   1.00
C993   C     0.24853   0.73323   0.81765   0.00000  Uiso   1.00
C994   C     0.09022   0.78382   0.81195   0.00000  Uiso   1.00
C995   C     0.38334   0.83389   0.83197   0.00000  Uiso   1.00
C996   C     0.11662   0.83184   0.83465   0.00000  Uiso   1.00
C997   C     0.40228   0.78606   0.80972   0.00000  Uiso   1.00
C998   C     0.09790   0.87935   0.85761   0.00000  Uiso   1.00
C999   C     0.44887   0.78576   0.81019   0.00000  Uiso   1.00
C1000  C     0.05119   0.87972   0.85742   0.00000  Uiso   1.00
C1001  C     0.47651   0.83327   0.83345   0.00000  Uiso   1.00
C1002  C     0.02361   0.83201   0.83393   0.00000  Uiso   1.00
C1003  C     0.45711   0.88188   0.85624   0.00000  Uiso   1.00
C1004  C     0.25146   0.93344   0.84902   0.00000  Uiso   1.00
C1005  C     0.04299   0.78322   0.81101   0.00000  Uiso   1.00
C1006  C     0.46806   0.73826   0.78792   0.00000  Uiso   1.00
C1007  C     0.03174   0.92709   0.88019   0.00000  Uiso   1.00
C1008  C     0.01406   0.73611   0.78793   0.00000  Uiso   1.00
C1009  C     0.48556   0.92880   0.88004   0.00000  Uiso   1.00
C1010  C     0.24776   0.67709   0.80899   0.00000  Uiso   1.00
C1011  C     0.25224   0.98958   0.85767   0.00000  Uiso   1.00
C1012  C     0.16472   0.83264   0.83372   0.00000  Uiso   1.00
C1013  C     0.33527   0.83366   0.83289   0.00000  Uiso   1.00
C1014  C     0.40996   0.88176   0.85471   0.00000  Uiso   1.00
Cu1015 Cu    0.25500   0.83913   0.89479   0.00000  Uiso   1.00
Cu1016 Cu    0.24499   0.82754   0.77187   0.00000  Uiso   1.00
H1017  H     0.44723   0.70158   0.76998   0.00000  Uiso   1.00
H1018  H     0.35555   0.73093   0.82268   0.00000  Uiso   1.00
H1019  H     0.11888   0.95448   0.85427   0.00000  Uiso   1.00
H1020  H     0.12310   0.94261   0.92611   0.00000  Uiso   1.00
H1021  H     0.04937   0.67336   0.79787   0.00000  Uiso   1.00
H1022  H     0.04657   0.68593   0.72546   0.00000  Uiso   1.00
H1023  H     0.48194   0.99219   0.95070   0.00000  Uiso   1.00
H1024  H     0.47923   0.67271   0.88067   0.00000  Uiso   1.00
H1025  H     0.21100   0.74581   0.98103   0.00000  Uiso   1.00
H1026  H     0.17436   0.79273   0.98899   0.00000  Uiso   1.00
H1027  H     0.28902   0.92084   0.68564   0.00000  Uiso   1.00
H1028  H     0.05212   0.96391   0.89872   0.00000  Uiso   1.00
H1029  H     0.32565   0.87390   0.67767   0.00000  Uiso   1.00
H1030  H     0.24346   0.98619   0.76225   0.00000  Uiso   1.00
H1031  H     0.25655   0.68048   0.90441   0.00000  Uiso   1.00
H1032  H     0.37078   0.92696   0.91206   0.00000  Uiso   1.00
H1033  H     0.36667   0.93579   0.83920   0.00000  Uiso   1.00
H1034  H     0.13434   0.73038   0.82661   0.00000  Uiso   1.00
H1035  H     0.12962   0.73971   0.75393   0.00000  Uiso   1.00
H1036  H     0.35244   0.74095   0.75043   0.00000  Uiso   1.00
N1037  N     0.23744   0.81881   0.67951   0.00000  Uiso   1.00
N1038  N     0.29447   0.88326   0.69269   0.00000  Uiso   1.00
N1039  N     0.26255   0.84786   0.98716   0.00000  Uiso   1.00
N1040  N     0.38884   0.93014   0.87514   0.00000  Uiso   1.00
N1041  N     0.11188   0.73600   0.79095   0.00000  Uiso   1.00
N1042  N     0.37435   0.73736   0.78762   0.00000  Uiso   1.00
N1043  N     0.12718   0.92695   0.87992   0.00000  Uiso   1.00
N1044  N     0.02935   0.68491   0.76371   0.00000  Uiso   1.00
N1045  N     0.46833   0.97874   0.90501   0.00000  Uiso   1.00
N1046  N     0.20554   0.78339   0.97398   0.00000  Uiso   1.00
O1047  O     0.25325   0.76204   0.87326   0.00000  Uiso   1.00
O1048  O     0.24674   0.90462   0.79341   0.00000  Uiso   1.00
O1049  O     0.24480   0.75226   0.76945   0.00000  Uiso   1.00
O1050  O     0.25520   0.91441   0.89721   0.00000  Uiso   1.00
O1051  O     0.18935   0.83821   0.88524   0.00000  Uiso   1.00
O1052  O     0.31064   0.82845   0.78143   0.00000  Uiso   1.00
O1053  O     0.18090   0.82843   0.78143   0.00000  Uiso   1.00
O1054  O     0.31910   0.83824   0.88523   0.00000  Uiso   1.00
C1055  C     0.74853   0.73323   0.81765   0.00000  Uiso   1.00
C1056  C     0.59022   0.78382   0.81195   0.00000  Uiso   1.00
C1057  C     0.88334   0.83389   0.83197   0.00000  Uiso   1.00
C1058  C     0.61662   0.83184   0.83465   0.00000  Uiso   1.00
C1059  C     0.90228   0.78606   0.80972   0.00000  Uiso   1.00
C1060  C     0.59790   0.87935   0.85761   0.00000  Uiso   1.00
C1061  C     0.94887   0.78576   0.81019   0.00000  Uiso   1.00
C1062  C     0.55119   0.87972   0.85742   0.00000  Uiso   1.00
C1063  C     0.97651   0.83327   0.83345   0.00000  Uiso   1.00
C1064  C     0.52361   0.83201   0.83393   0.00000  Uiso   1.00
C1065  C     0.95711   0.88188   0.85624   0.00000  Uiso   1.00
C1066  C     0.75146   0.93344   0.84902   0.00000  Uiso   1.00
C1067  C     0.54299   0.78322   0.81101   0.00000  Uiso   1.00
C1068  C     0.96806   0.73826   0.78792   0.00000  Uiso   1.00
C1069  C     0.53174   0.92709   0.88019   0.00000  Uiso   1.00
C1070  C     0.51406   0.73611   0.78793   0.00000  Uiso   1.00
C1071  C     0.98556   0.92880   0.88004   0.00000  Uiso   1.00
C1072  C     0.74776   0.67709   0.80899   0.00000  Uiso   1.00
C1073  C     0.75224   0.98958   0.85767   0.00000  Uiso   1.00
C1074  C     0.66472   0.83264   0.83372   0.00000  Uiso   1.00
C1075  C     0.83527   0.83366   0.83289   0.00000  Uiso   1.00
C1076  C     0.90996   0.88176   0.85471   0.00000  Uiso   1.00
Cu1077 Cu    0.75500   0.83913   0.89479   0.00000  Uiso   1.00
Cu1078 Cu    0.74499   0.82754   0.77187   0.00000  Uiso   1.00
H1079  H     0.94723   0.70158   0.76998   0.00000  Uiso   1.00
H1080  H     0.85555   0.73093   0.82268   0.00000  Uiso   1.00
H1081  H     0.61888   0.95448   0.85427   0.00000  Uiso   1.00
H1082  H     0.62310   0.94261   0.92611   0.00000  Uiso   1.00
H1083  H     0.54937   0.67336   0.79787   0.00000  Uiso   1.00
H1084  H     0.54657   0.68593   0.72546   0.00000  Uiso   1.00
H1085  H     0.98194   0.99219   0.95070   0.00000  Uiso   1.00
H1086  H     0.97923   0.67271   0.88067   0.00000  Uiso   1.00
H1087  H     0.71100   0.74581   0.98103   0.00000  Uiso   1.00
H1088  H     0.67436   0.79273   0.98899   0.00000  Uiso   1.00
H1089  H     0.78902   0.92084   0.68564   0.00000  Uiso   1.00
H1090  H     0.55212   0.96391   0.89872   0.00000  Uiso   1.00
H1091  H     0.82565   0.87390   0.67767   0.00000  Uiso   1.00
H1092  H     0.74346   0.98619   0.76225   0.00000  Uiso   1.00
H1093  H     0.75655   0.68048   0.90441   0.00000  Uiso   1.00
H1094  H     0.87078   0.92696   0.91206   0.00000  Uiso   1.00
H1095  H     0.86667   0.93579   0.83920   0.00000  Uiso   1.00
H1096  H     0.63434   0.73038   0.82661   0.00000  Uiso   1.00
H1097  H     0.62962   0.73971   0.75393   0.00000  Uiso   1.00
H1098  H     0.85244   0.74095   0.75043   0.00000  Uiso   1.00
N1099  N     0.73744   0.81881   0.67951   0.00000  Uiso   1.00
N1100  N     0.79447   0.88326   0.69269   0.00000  Uiso   1.00
N1101  N     0.76255   0.84786   0.98716   0.00000  Uiso   1.00
N1102  N     0.88884   0.93014   0.87514   0.00000  Uiso   1.00
N1103  N     0.61188   0.73600   0.79095   0.00000  Uiso   1.00
N1104  N     0.87435   0.73736   0.78762   0.00000  Uiso   1.00
N1105  N     0.62718   0.92695   0.87992   0.00000  Uiso   1.00
N1106  N     0.52935   0.68491   0.76371   0.00000  Uiso   1.00
N1107  N     0.96833   0.97874   0.90501   0.00000  Uiso   1.00
N1108  N     0.70554   0.78339   0.97398   0.00000  Uiso   1.00
O1109  O     0.75325   0.76204   0.87326   0.00000  Uiso   1.00
O1110  O     0.74674   0.90462   0.79341   0.00000  Uiso   1.00
O1111  O     0.74480   0.75226   0.76945   0.00000  Uiso   1.00
O1112  O     0.75520   0.91441   0.89721   0.00000  Uiso   1.00
O1113  O     0.68935   0.83821   0.88524   0.00000  Uiso   1.00
O1114  O     0.81064   0.82845   0.78143   0.00000  Uiso   1.00
O1115  O     0.68090   0.82843   0.78143   0.00000  Uiso   1.00
O1116  O     0.81910   0.83824   0.88523   0.00000  Uiso   1.00
loop_
_geom_bond_atom_site_label_1
_geom_bond_atom_site_label_2
_geom_bond_distance
_geom_bond_site_symmetry_2
_ccdc_geom_bond_type
C1     O57     1.291   .     A
C1     O55     1.294   .     A
C1     C18     1.425   .     S
C2     N49     1.437   .     S
C2     C4      1.405   .     A
C2     C13     1.416   .     A
C3     C21     1.445   .     S
C3     C22     1.405   .     A
C3     C5      1.400   .     A
C4     C6      1.393   .     A
C4     C20     1.445   .     S
C5     N50     1.439   .     S
C5     C7      1.399   .     A
C6     N51     1.439   .     S
C6     C8      1.403   .     A
C7     C9      1.414   .     A
C7     C14     1.397   .     A
C8     C15     1.400   .     A
C8     C10     1.418   .     A
C9     C11     1.426   .     A
C9     C72     1.416   .     S
C10    C13     1.430   .     A
C10    C71     1.416   1_455 S
C11    C22     1.413   .     A
C11    C17     1.417   .     A
C12    O58     1.291   .     A
C12    O56     1.294   .     A
C12    C19     1.425   .     S
C13    C16     1.426   .     A
C14    H25     1.084   .     S
C14    C78     1.385   .     S
C15    H36     1.082   .     S
C15    C79     1.389   1_455 S
C16    N52     1.434   .     S
C16    C76     1.385   1_455 S
C17    N53     1.434   .     S
C17    C77     1.389   .     S
C18    C267    1.330   1_545 S
C18    H286    1.087   1_545 S
C19    C142    1.330   .     S
C19    H163    1.087   .     S
C20    O59     1.296   .     A
C20    O61     1.294   .     A
C21    O60     1.296   .     A
C21    O62     1.294   .     A
C22    N48     1.438   .     S
Cu23   O58     1.944   .     S
Cu23   Cu24    2.701   .     S
Cu23   O55     1.946   .     S
Cu23   O59     1.963   .     S
Cu23   N47     2.030   .     S
Cu23   O62     1.955   .     S
Cu24   O61     1.955   .     S
Cu24   O56     1.946   .     S
Cu24   O60     1.963   .     S
Cu24   N45     2.030   .     S
Cu24   O57     1.944   .     S
H26    N50     1.046   .     S
H27    N51     1.046   .     S
H28    N51     1.045   .     S
H29    N52     1.045   .     S
H30    N52     1.045   .     S
H31    N53     1.046   .     S
H32    N301    1.045   1_545 S
H33    N54     1.044   .     S
H34    N54     1.044   .     S
H35    N46     1.044   .     S
H37    N46     1.044   .     S
H38    C142    1.087   .     S
H39    C267    1.087   1_545 S
H40    N48     1.045   .     S
H41    N48     1.046   .     S
H42    N49     1.046   .     S
H43    N49     1.045   .     S
H44    N50     1.045   .     S
N45    N791    1.297   1_554 S
N45    N798    1.385   1_554 S
N46    N791    1.385   1_554 S
N47    N417    1.297   .     S
N47    N418    1.385   .     S
N53    H156    1.045   .     S
N54    N417    1.385   .     S
C63    O119    1.291   .     A
C63    O117    1.294   .     A
C63    C80     1.425   .     S
C64    N111    1.437   .     S
C64    C66     1.405   .     A
C64    C75     1.416   .     A
C65    C83     1.445   .     S
C65    C84     1.405   .     A
C65    C67     1.400   .     A
C66    C68     1.393   .     A
C66    C82     1.445   .     S
C67    N112    1.439   .     S
C67    C69     1.399   .     A
C68    N113    1.439   .     S
C68    C70     1.403   .     A
C69    C71     1.414   .     A
C69    C76     1.397   .     A
C70    C77     1.400   .     A
C70    C72     1.418   .     A
C71    C73     1.426   .     A
C71    C10     1.416   1_655 S
C72    C75     1.430   .     A
C73    C84     1.413   .     A
C73    C79     1.417   .     A
C74    O120    1.291   .     A
C74    O118    1.294   .     A
C74    C81     1.425   .     S
C75    C78     1.426   .     A
C76    H87     1.084   .     S
C76    C16     1.385   1_655 S
C77    H98     1.082   .     S
C78    N114    1.434   .     S
C79    N115    1.434   .     S
C79    C15     1.389   1_655 S
C80    C329    1.330   1_545 S
C80    H348    1.087   1_545 S
C81    C204    1.330   .     S
C81    H225    1.087   .     S
C82    O121    1.296   .     A
C82    O123    1.294   .     A
C83    O122    1.296   .     A
C83    O124    1.294   .     A
C84    N110    1.438   .     S
Cu85   O120    1.944   .     S
Cu85   Cu86    2.701   .     S
Cu85   O117    1.946   .     S
Cu85   O121    1.963   .     S
Cu85   N109    2.030   .     S
Cu85   O124    1.955   .     S
Cu86   O123    1.955   .     S
Cu86   O118    1.946   .     S
Cu86   O122    1.963   .     S
Cu86   N107    2.030   .     S
Cu86   O119    1.944   .     S
H88    N112    1.046   .     S
H89    N113    1.046   .     S
H90    N113    1.045   .     S
H91    N114    1.045   .     S
H92    N114    1.045   .     S
H93    N115    1.046   .     S
H94    N363    1.045   1_545 S
H95    N116    1.044   .     S
H96    N116    1.044   .     S
H97    N108    1.044   .     S
H99    N108    1.044   .     S
H100   C204    1.087   .     S
H101   C329    1.087   1_545 S
H102   N110    1.045   .     S
H103   N110    1.046   .     S
H104   N111    1.046   .     S
H105   N111    1.045   .     S
H106   N112    1.045   .     S
N107   N853    1.297   1_554 S
N107   N860    1.385   1_554 S
N108   N853    1.385   1_554 S
N109   N479    1.297   .     S
N109   N480    1.385   .     S
N115   H218    1.045   .     S
N116   N479    1.385   .     S
C125   O181    1.291   .     A
C125   O179    1.294   .     A
C125   C142    1.425   .     S
C126   N173    1.437   .     S
C126   C128    1.405   .     A
C126   C137    1.416   .     A
C127   C145    1.445   .     S
C127   C146    1.405   .     A
C127   C129    1.400   .     A
C128   C130    1.393   .     A
C128   C144    1.445   .     S
C129   N174    1.439   .     S
C129   C131    1.399   .     A
C130   N175    1.439   .     S
C130   C132    1.403   .     A
C131   C133    1.414   .     A
C131   C138    1.397   .     A
C132   C139    1.400   .     A
C132   C134    1.418   .     A
C133   C135    1.426   .     A
C133   C196    1.416   .     S
C134   C137    1.430   .     A
C134   C195    1.416   1_455 S
C135   C146    1.413   .     A
C135   C141    1.417   .     A
C136   O182    1.291   .     A
C136   O180    1.294   .     A
C136   C143    1.425   .     S
C137   C140    1.426   .     A
C138   H149    1.084   .     S
C138   C202    1.385   .     S
C139   H160    1.082   .     S
C139   C203    1.389   1_455 S
C140   N176    1.434   .     S
C140   C200    1.385   1_455 S
C141   N177    1.434   .     S
C141   C201    1.389   .     S
C143   C266    1.330   .     S
C143   H287    1.087   .     S
C144   O183    1.296   .     A
C144   O185    1.294   .     A
C145   O184    1.296   .     A
C145   O186    1.294   .     A
C146   N172    1.438   .     S
Cu147  O182    1.944   .     S
Cu147  Cu148   2.701   .     S
Cu147  O179    1.946   .     S
Cu147  O183    1.963   .     S
Cu147  N171    2.030   .     S
Cu147  O186    1.955   .     S
Cu148  O185    1.955   .     S
Cu148  O180    1.946   .     S
Cu148  O184    1.963   .     S
Cu148  N169    2.030   .     S
Cu148  O181    1.944   .     S
H150   N174    1.046   .     S
H151   N175    1.046   .     S
H152   N175    1.045   .     S
H153   N176    1.045   .     S
H154   N176    1.045   .     S
H155   N177    1.046   .     S
H157   N178    1.044   .     S
H158   N178    1.044   .     S
H159   N170    1.044   .     S
H161   N170    1.044   .     S
H162   C266    1.087   .     S
H164   N172    1.045   .     S
H165   N172    1.046   .     S
H166   N173    1.046   .     S
H167   N173    1.045   .     S
H168   N174    1.045   .     S
N169   N915    1.297   1_554 S
N169   N922    1.385   1_554 S
N170   N915    1.385   1_554 S
N171   N541    1.297   .     S
N171   N542    1.385   .     S
N177   H280    1.045   .     S
N178   N541    1.385   .     S
C187   O243    1.291   .     A
C187   O241    1.294   .     A
C187   C204    1.425   .     S
C188   N235    1.437   .     S
C188   C190    1.405   .     A
C188   C199    1.416   .     A
C189   C207    1.445   .     S
C189   C208    1.405   .     A
C189   C191    1.400   .     A
C190   C192    1.393   .     A
C190   C206    1.445   .     S
C191   N236    1.439   .     S
C191   C193    1.399   .     A
C192   N237    1.439   .     S
C192   C194    1.403   .     A
C193   C195    1.414   .     A
C193   C200    1.397   .     A
C194   C201    1.400   .     A
C194   C196    1.418   .     A
C195   C197    1.426   .     A
C195   C134    1.416   1_655 S
C196   C199    1.430   .     A
C197   C208    1.413   .     A
C197   C203    1.417   .     A
C198   O244    1.291   .     A
C198   O242    1.294   .     A
C198   C205    1.425   .     S
C199   C202    1.426   .     A
C200   H211    1.084   .     S
C200   C140    1.385   1_655 S
C201   H222    1.082   .     S
C202   N238    1.434   .     S
C203   N239    1.434   .     S
C203   C139    1.389   1_655 S
C205   C328    1.330   .     S
C205   H349    1.087   .     S
C206   O245    1.296   .     A
C206   O247    1.294   .     A
C207   O246    1.296   .     A
C207   O248    1.294   .     A
C208   N234    1.438   .     S
Cu209  O244    1.944   .     S
Cu209  Cu210   2.701   .     S
Cu209  O241    1.946   .     S
Cu209  O245    1.963   .     S
Cu209  N233    2.030   .     S
Cu209  O248    1.955   .     S
Cu210  O247    1.955   .     S
Cu210  O242    1.946   .     S
Cu210  O246    1.963   .     S
Cu210  N231    2.030   .     S
Cu210  O243    1.944   .     S
H212   N236    1.046   .     S
H213   N237    1.046   .     S
H214   N237    1.045   .     S
H215   N238    1.045   .     S
H216   N238    1.045   .     S
H217   N239    1.046   .     S
H219   N240    1.044   .     S
H220   N240    1.044   .     S
H221   N232    1.044   .     S
H223   N232    1.044   .     S
H224   C328    1.087   .     S
H226   N234    1.045   .     S
H227   N234    1.046   .     S
H228   N235    1.046   .     S
H229   N235    1.045   .     S
H230   N236    1.045   .     S
N231   N977    1.297   1_554 S
N231   N984    1.385   1_554 S
N232   N977    1.385   1_554 S
N233   N603    1.297   .     S
N233   N604    1.385   .     S
N239   H342    1.045   .     S
N240   N603    1.385   .     S
C249   O305    1.291   .     A
C249   O303    1.294   .     A
C249   C266    1.425   .     S
C250   N297    1.437   .     S
C250   C252    1.405   .     A
C250   C261    1.416   .     A
C251   C269    1.445   .     S
C251   C270    1.405   .     A
C251   C253    1.400   .     A
C252   C254    1.393   .     A
C252   C268    1.445   .     S
C253   N298    1.439   .     S
C253   C255    1.399   .     A
C254   N299    1.439   .     S
C254   C256    1.403   .     A
C255   C257    1.414   .     A
C255   C262    1.397   .     A
C256   C263    1.400   .     A
C256   C258    1.418   .     A
C257   C259    1.426   .     A
C257   C320    1.416   .     S
C258   C261    1.430   .     A
C258   C319    1.416   1_455 S
C259   C270    1.413   .     A
C259   C265    1.417   .     A
C260   O306    1.291   .     A
C260   O304    1.294   .     A
C260   C267    1.425   .     S
C261   C264    1.426   .     A
C262   H273    1.084   .     S
C262   C326    1.385   .     S
C263   H284    1.082   .     S
C263   C327    1.389   1_455 S
C264   N300    1.434   .     S
C264   C324    1.385   1_455 S
C265   N301    1.434   .     S
C265   C325    1.389   .     S
C267   C18     1.330   1_565 S
C267   H39     1.087   1_565 S
C268   O307    1.296   .     A
C268   O309    1.294   .     A
C269   O308    1.296   .     A
C269   O310    1.294   .     A
C270   N296    1.438   .     S
Cu271  O306    1.944   .     S
Cu271  Cu272   2.701   .     S
Cu271  O303    1.946   .     S
Cu271  O307    1.963   .     S
Cu271  N295    2.030   .     S
Cu271  O310    1.955   .     S
Cu272  O309    1.955   .     S
Cu272  O304    1.946   .     S
Cu272  O308    1.963   .     S
Cu272  N293    2.030   .     S
Cu272  O305    1.944   .     S
H274   N298    1.046   .     S
H275   N299    1.046   .     S
H276   N299    1.045   .     S
H277   N300    1.045   .     S
H278   N300    1.045   .     S
H279   N301    1.046   .     S
H281   N302    1.044   .     S
H282   N302    1.044   .     S
H283   N294    1.044   .     S
H285   N294    1.044   .     S
H286   C18     1.087   1_565 S
H288   N296    1.045   .     S
H289   N296    1.046   .     S
H290   N297    1.046   .     S
H291   N297    1.045   .     S
H292   N298    1.045   .     S
N293   N1039   1.297   1_554 S
N293   N1046   1.385   1_554 S
N294   N1039   1.385   1_554 S
N295   N665    1.297   .     S
N295   N666    1.385   .     S
N301   H32     1.045   1_565 S
N302   N665    1.385   .     S
C311   O367    1.291   .     A
C311   O365    1.294   .     A
C311   C328    1.425   .     S
C312   N359    1.437   .     S
C312   C314    1.405   .     A
C312   C323    1.416   .     A
C313   C331    1.445   .     S
C313   C332    1.405   .     A
C313   C315    1.400   .     A
C314   C316    1.393   .     A
C314   C330    1.445   .     S
C315   N360    1.439   .     S
C315   C317    1.399   .     A
C316   N361    1.439   .     S
C316   C318    1.403   .     A
C317   C319    1.414   .     A
C317   C324    1.397   .     A
C318   C325    1.400   .     A
C318   C320    1.418   .     A
C319   C321    1.426   .     A
C319   C258    1.416   1_655 S
C320   C323    1.430   .     A
C321   C332    1.413   .     A
C321   C327    1.417   .     A
C322   O368    1.291   .     A
C322   O366    1.294   .     A
C322   C329    1.425   .     S
C323   C326    1.426   .     A
C324   H335    1.084   .     S
C324   C264    1.385   1_655 S
C325   H346    1.082   .     S
C326   N362    1.434   .     S
C327   N363    1.434   .     S
C327   C263    1.389   1_655 S
C329   C80     1.330   1_565 S
C329   H101    1.087   1_565 S
C330   O369    1.296   .     A
C330   O371    1.294   .     A
C331   O370    1.296   .     A
C331   O372    1.294   .     A
C332   N358    1.438   .     S
Cu333  O368    1.944   .     S
Cu333  Cu334   2.701   .     S
Cu333  O365    1.946   .     S
Cu333  O369    1.963   .     S
Cu333  N357    2.030   .     S
Cu333  O372    1.955   .     S
Cu334  O371    1.955   .     S
Cu334  O366    1.946   .     S
Cu334  O370    1.963   .     S
Cu334  N355    2.030   .     S
Cu334  O367    1.944   .     S
H336   N360    1.046   .     S
H337   N361    1.046   .     S
H338   N361    1.045   .     S
H339   N362    1.045   .     S
H340   N362    1.045   .     S
H341   N363    1.046   .     S
H343   N364    1.044   .     S
H344   N364    1.044   .     S
H345   N356    1.044   .     S
H347   N356    1.044   .     S
H348   C80     1.087   1_565 S
H350   N358    1.045   .     S
H351   N358    1.046   .     S
H352   N359    1.046   .     S
H353   N359    1.045   .     S
H354   N360    1.045   .     S
N355   N1101   1.297   1_554 S
N355   N1108   1.385   1_554 S
N356   N1101   1.385   1_554 S
N357   N727    1.297   .     S
N357   N728    1.385   .     S
N363   H94     1.045   1_565 S
N364   N727    1.385   .     S
C373   O429    1.291   .     A
C373   O427    1.294   .     A
C373   C390    1.425   .     S
C374   N421    1.437   .     S
C374   C376    1.405   .     A
C374   C385    1.416   .     A
C375   C393    1.445   .     S
C375   C394    1.405   .     A
C375   C377    1.400   .     A
C376   C378    1.393   .     A
C376   C392    1.445   .     S
C377   N422    1.439   .     S
C377   C379    1.399   .     A
C378   N423    1.439   .     S
C378   C380    1.403   .     A
C379   C381    1.414   .     A
C379   C386    1.397   .     A
C380   C387    1.400   .     A
C380   C382    1.418   .     A
C381   C383    1.426   .     A
C381   C444    1.416   .     S
C382   C385    1.430   .     A
C382   C443    1.416   1_455 S
C383   C394    1.413   .     A
C383   C389    1.417   .     A
C384   O430    1.291   .     A
C384   O428    1.294   .     A
C384   C391    1.425   .     S
C385   C388    1.426   .     A
C386   H397    1.084   .     S
C386   C450    1.385   .     S
C387   H408    1.082   .     S
C387   C451    1.389   1_455 S
C388   N424    1.434   .     S
C388   C448    1.385   1_455 S
C389   N425    1.434   .     S
C389   C449    1.389   .     S
C390   C639    1.330   1_545 S
C390   H658    1.087   1_545 S
C391   C514    1.330   .     S
C391   H535    1.087   .     S
C392   O431    1.296   .     A
C392   O433    1.294   .     A
C393   O432    1.296   .     A
C393   O434    1.294   .     A
C394   N420    1.438   .     S
Cu395  O430    1.944   .     S
Cu395  Cu396   2.701   .     S
Cu395  O427    1.946   .     S
Cu395  O431    1.963   .     S
Cu395  N419    2.030   .     S
Cu395  O434    1.955   .     S
Cu396  O433    1.955   .     S
Cu396  O428    1.946   .     S
Cu396  O432    1.963   .     S
Cu396  N417    2.030   .     S
Cu396  O429    1.944   .     S
H398   N422    1.046   .     S
H399   N423    1.046   .     S
H400   N423    1.045   .     S
H401   N424    1.045   .     S
H402   N424    1.045   .     S
H403   N425    1.046   .     S
H404   N673    1.045   1_545 S
H405   N426    1.044   .     S
H406   N426    1.044   .     S
H407   N418    1.044   .     S
H409   N418    1.044   .     S
H410   C514    1.087   .     S
H411   C639    1.087   1_545 S
H412   N420    1.045   .     S
H413   N420    1.046   .     S
H414   N421    1.046   .     S
H415   N421    1.045   .     S
H416   N422    1.045   .     S
N419   N789    1.297   .     S
N419   N790    1.385   .     S
N425   H528    1.045   .     S
N426   N789    1.385   .     S
C435   O491    1.291   .     A
C435   O489    1.294   .     A
C435   C452    1.425   .     S
C436   N483    1.437   .     S
C436   C438    1.405   .     A
C436   C447    1.416   .     A
C437   C455    1.445   .     S
C437   C456    1.405   .     A
C437   C439    1.400   .     A
C438   C440    1.393   .     A
C438   C454    1.445   .     S
C439   N484    1.439   .     S
C439   C441    1.399   .     A
C440   N485    1.439   .     S
C440   C442    1.403   .     A
C441   C443    1.414   .     A
C441   C448    1.397   .     A
C442   C449    1.400   .     A
C442   C444    1.418   .     A
C443   C445    1.426   .     A
C443   C382    1.416   1_655 S
C444   C447    1.430   .     A
C445   C456    1.413   .     A
C445   C451    1.417   .     A
C446   O492    1.291   .     A
C446   O490    1.294   .     A
C446   C453    1.425   .     S
C447   C450    1.426   .     A
C448   H459    1.084   .     S
C448   C388    1.385   1_655 S
C449   H470    1.082   .     S
C450   N486    1.434   .     S
C451   N487    1.434   .     S
C451   C387    1.389   1_655 S
C452   C701    1.330   1_545 S
C452   H720    1.087   1_545 S
C453   C576    1.330   .     S
C453   H597    1.087   .     S
C454   O493    1.296   .     A
C454   O495    1.294   .     A
C455   O494    1.296   .     A
C455   O496    1.294   .     A
C456   N482    1.438   .     S
Cu457  O492    1.944   .     S
Cu457  Cu458   2.701   .     S
Cu457  O489    1.946   .     S
Cu457  O493    1.963   .     S
Cu457  N481    2.030   .     S
Cu457  O496    1.955   .     S
Cu458  O495    1.955   .     S
Cu458  O490    1.946   .     S
Cu458  O494    1.963   .     S
Cu458  N479    2.030   .     S
Cu458  O491    1.944   .     S
H460   N484    1.046   .     S
H461   N485    1.046   .     S
H462   N485    1.045   .     S
H463   N486    1.045   .     S
H464   N486    1.045   .     S
H465   N487    1.046   .     S
H466   N735    1.045   1_545 S
H467   N488    1.044   .     S
H468   N488    1.044   .     S
H469   N480    1.044   .     S
H471   N480    1.044   .     S
H472   C576    1.087   .     S
H473   C701    1.087   1_545 S
H474   N482    1.045   .     S
H475   N482    1.046   .     S
H476   N483    1.046   .     S
H477   N483    1.045   .     S
H478   N484    1.045   .     S
N481   N851    1.297   .     S
N481   N852    1.385   .     S
N487   H590    1.045   .     S
N488   N851    1.385   .     S
C497   O553    1.291   .     A
C497   O551    1.294   .     A
C497   C514    1.425   .     S
C498   N545    1.437   .     S
C498   C500    1.405   .     A
C498   C509    1.416   .     A
C499   C517    1.445   .     S
C499   C518    1.405   .     A
C499   C501    1.400   .     A
C500   C502    1.393   .     A
C500   C516    1.445   .     S
C501   N546    1.439   .     S
C501   C503    1.399   .     A
C502   N547    1.439   .     S
C502   C504    1.403   .     A
C503   C505    1.414   .     A
C503   C510    1.397   .     A
C504   C511    1.400   .     A
C504   C506    1.418   .     A
C505   C507    1.426   .     A
C505   C568    1.416   .     S
C506   C509    1.430   .     A
C506   C567    1.416   1_455 S
C507   C518    1.413   .     A
C507   C513    1.417   .     A
C508   O554    1.291   .     A
C508   O552    1.294   .     A
C508   C515    1.425   .     S
C509   C512    1.426   .     A
C510   H521    1.084   .     S
C510   C574    1.385   .     S
C511   H532    1.082   .     S
C511   C575    1.389   1_455 S
C512   N548    1.434   .     S
C512   C572    1.385   1_455 S
C513   N549    1.434   .     S
C513   C573    1.389   .     S
C515   C638    1.330   .     S
C515   H659    1.087   .     S
C516   O555    1.296   .     A
C516   O557    1.294   .     A
C517   O556    1.296   .     A
C517   O558    1.294   .     A
C518   N544    1.438   .     S
Cu519  O554    1.944   .     S
Cu519  Cu520   2.701   .     S
Cu519  O551    1.946   .     S
Cu519  O555    1.963   .     S
Cu519  N543    2.030   .     S
Cu519  O558    1.955   .     S
Cu520  O557    1.955   .     S
Cu520  O552    1.946   .     S
Cu520  O556    1.963   .     S
Cu520  N541    2.030   .     S
Cu520  O553    1.944   .     S
H522   N546    1.046   .     S
H523   N547    1.046   .     S
H524   N547    1.045   .     S
H525   N548    1.045   .     S
H526   N548    1.045   .     S
H527   N549    1.046   .     S
H529   N550    1.044   .     S
H530   N550    1.044   .     S
H531   N542    1.044   .     S
H533   N542    1.044   .     S
H534   C638    1.087   .     S
H536   N544    1.045   .     S
H537   N544    1.046   .     S
H538   N545    1.046   .     S
H539   N545    1.045   .     S
H540   N546    1.045   .     S
N543   N913    1.297   .     S
N543   N914    1.385   .     S
N549   H652    1.045   .     S
N550   N913    1.385   .     S
C559   O615    1.291   .     A
C559   O613    1.294   .     A
C559   C576    1.425   .     S
C560   N607    1.437   .     S
C560   C562    1.405   .     A
C560   C571    1.416   .     A
C561   C579    1.445   .     S
C561   C580    1.405   .     A
C561   C563    1.400   .     A
C562   C564    1.393   .     A
C562   C578    1.445   .     S
C563   N608    1.439   .     S
C563   C565    1.399   .     A
C564   N609    1.439   .     S
C564   C566    1.403   .     A
C565   C567    1.414   .     A
C565   C572    1.397   .     A
C566   C573    1.400   .     A
C566   C568    1.418   .     A
C567   C569    1.426   .     A
C567   C506    1.416   1_655 S
C568   C571    1.430   .     A
C569   C580    1.413   .     A
C569   C575    1.417   .     A
C570   O616    1.291   .     A
C570   O614    1.294   .     A
C570   C577    1.425   .     S
C571   C574    1.426   .     A
C572   H583    1.084   .     S
C572   C512    1.385   1_655 S
C573   H594    1.082   .     S
C574   N610    1.434   .     S
C575   N611    1.434   .     S
C575   C511    1.389   1_655 S
C577   C700    1.330   .     S
C577   H721    1.087   .     S
C578   O617    1.296   .     A
C578   O619    1.294   .     A
C579   O618    1.296   .     A
C579   O620    1.294   .     A
C580   N606    1.438   .     S
Cu581  O616    1.944   .     S
Cu581  Cu582   2.701   .     S
Cu581  O613    1.946   .     S
Cu581  O617    1.963   .     S
Cu581  N605    2.030   .     S
Cu581  O620    1.955   .     S
Cu582  O619    1.955   .     S
Cu582  O614    1.946   .     S
Cu582  O618    1.963   .     S
Cu582  N603    2.030   .     S
Cu582  O615    1.944   .     S
H584   N608    1.046   .     S
H585   N609    1.046   .     S
H586   N609    1.045   .     S
H587   N610    1.045   .     S
H588   N610    1.045   .     S
H589   N611    1.046   .     S
H591   N612    1.044   .     S
H592   N612    1.044   .     S
H593   N604    1.044   .     S
H595   N604    1.044   .     S
H596   C700    1.087   .     S
H598   N606    1.045   .     S
H599   N606    1.046   .     S
H600   N607    1.046   .     S
H601   N607    1.045   .     S
H602   N608    1.045   .     S
N605   N975    1.297   .     S
N605   N976    1.385   .     S
N611   H714    1.045   .     S
N612   N975    1.385   .     S
C621   O677    1.291   .     A
C621   O675    1.294   .     A
C621   C638    1.425   .     S
C622   N669    1.437   .     S
C622   C624    1.405   .     A
C622   C633    1.416   .     A
C623   C641    1.445   .     S
C623   C642    1.405   .     A
C623   C625    1.400   .     A
C624   C626    1.393   .     A
C624   C640    1.445   .     S
C625   N670    1.439   .     S
C625   C627    1.399   .     A
C626   N671    1.439   .     S
C626   C628    1.403   .     A
C627   C629    1.414   .     A
C627   C634    1.397   .     A
C628   C635    1.400   .     A
C628   C630    1.418   .     A
C629   C631    1.426   .     A
C629   C692    1.416   .     S
C630   C633    1.430   .     A
C630   C691    1.416   1_455 S
C631   C642    1.413   .     A
C631   C637    1.417   .     A
C632   O678    1.291   .     A
C632   O676    1.294   .     A
C632   C639    1.425   .     S
C633   C636    1.426   .     A
C634   H645    1.084   .     S
C634   C698    1.385   .     S
C635   H656    1.082   .     S
C635   C699    1.389   1_455 S
C636   N672    1.434   .     S
C636   C696    1.385   1_455 S
C637   N673    1.434   .     S
C637   C697    1.389   .     S
C639   C390    1.330   1_565 S
C639   H411    1.087   1_565 S
C640   O679    1.296   .     A
C640   O681    1.294   .     A
C641   O680    1.296   .     A
C641   O682    1.294   .     A
C642   N668    1.438   .     S
Cu643  O678    1.944   .     S
Cu643  Cu644   2.701   .     S
Cu643  O675    1.946   .     S
Cu643  O679    1.963   .     S
Cu643  N667    2.030   .     S
Cu643  O682    1.955   .     S
Cu644  O681    1.955   .     S
Cu644  O676    1.946   .     S
Cu644  O680    1.963   .     S
Cu644  N665    2.030   .     S
Cu644  O677    1.944   .     S
H646   N670    1.046   .     S
H647   N671    1.046   .     S
H648   N671    1.045   .     S
H649   N672    1.045   .     S
H650   N672    1.045   .     S
H651   N673    1.046   .     S
H653   N674    1.044   .     S
H654   N674    1.044   .     S
H655   N666    1.044   .     S
H657   N666    1.044   .     S
H658   C390    1.087   1_565 S
H660   N668    1.045   .     S
H661   N668    1.046   .     S
H662   N669    1.046   .     S
H663   N669    1.045   .     S
H664   N670    1.045   .     S
N667   N1037   1.297   .     S
N667   N1038   1.385   .     S
N673   H404    1.045   1_565 S
N674   N1037   1.385   .     S
C683   O739    1.291   .     A
C683   O737    1.294   .     A
C683   C700    1.425   .     S
C684   N731    1.437   .     S
C684   C686    1.405   .     A
C684   C695    1.416   .     A
C685   C703    1.445   .     S
C685   C704    1.405   .     A
C685   C687    1.400   .     A
C686   C688    1.393   .     A
C686   C702    1.445   .     S
C687   N732    1.439   .     S
C687   C689    1.399   .     A
C688   N733    1.439   .     S
C688   C690    1.403   .     A
C689   C691    1.414   .     A
C689   C696    1.397   .     A
C690   C697    1.400   .     A
C690   C692    1.418   .     A
C691   C693    1.426   .     A
C691   C630    1.416   1_655 S
C692   C695    1.430   .     A
C693   C704    1.413   .     A
C693   C699    1.417   .     A
C694   O740    1.291   .     A
C694   O738    1.294   .     A
C694   C701    1.425   .     S
C695   C698    1.426   .     A
C696   H707    1.084   .     S
C696   C636    1.385   1_655 S
C697   H718    1.082   .     S
C698   N734    1.434   .     S
C699   N735    1.434   .     S
C699   C635    1.389   1_655 S
C701   C452    1.330   1_565 S
C701   H473    1.087   1_565 S
C702   O741    1.296   .     A
C702   O743    1.294   .     A
C703   O742    1.296   .     A
C703   O744    1.294   .     A
C704   N730    1.438   .     S
Cu705  O740    1.944   .     S
Cu705  Cu706   2.701   .     S
Cu705  O737    1.946   .     S
Cu705  O741    1.963   .     S
Cu705  N729    2.030   .     S
Cu705  O744    1.955   .     S
Cu706  O743    1.955   .     S
Cu706  O738    1.946   .     S
Cu706  O742    1.963   .     S
Cu706  N727    2.030   .     S
Cu706  O739    1.944   .     S
H708   N732    1.046   .     S
H709   N733    1.046   .     S
H710   N733    1.045   .     S
H711   N734    1.045   .     S
H712   N734    1.045   .     S
H713   N735    1.046   .     S
H715   N736    1.044   .     S
H716   N736    1.044   .     S
H717   N728    1.044   .     S
H719   N728    1.044   .     S
H720   C452    1.087   1_565 S
H722   N730    1.045   .     S
H723   N730    1.046   .     S
H724   N731    1.046   .     S
H725   N731    1.045   .     S
H726   N732    1.045   .     S
N729   N1099   1.297   .     S
N729   N1100   1.385   .     S
N735   H466    1.045   1_565 S
N736   N1099   1.385   .     S
C745   O801    1.291   .     A
C745   O799    1.294   .     A
C745   C762    1.425   .     S
C746   N793    1.437   .     S
C746   C748    1.405   .     A
C746   C757    1.416   .     A
C747   C765    1.445   .     S
C747   C766    1.405   .     A
C747   C749    1.400   .     A
C748   C750    1.393   .     A
C748   C764    1.445   .     S
C749   N794    1.439   .     S
C749   C751    1.399   .     A
C750   N795    1.439   .     S
C750   C752    1.403   .     A
C751   C753    1.414   .     A
C751   C758    1.397   .     A
C752   C759    1.400   .     A
C752   C754    1.418   .     A
C753   C755    1.426   .     A
C753   C816    1.416   .     S
C754   C757    1.430   .     A
C754   C815    1.416   1_455 S
C755   C766    1.413   .     A
C755   C761    1.417   .     A
C756   O802    1.291   .     A
C756   O800    1.294   .     A
C756   C763    1.425   .     S
C757   C760    1.426   .     A
C758   H769    1.084   .     S
C758   C822    1.385   .     S
C759   H780    1.082   .     S
C759   C823    1.389   1_455 S
C760   N796    1.434   .     S
C760   C820    1.385   1_455 S
C761   N797    1.434   .     S
C761   C821    1.389   .     S
C762   C1011   1.330   1_545 S
C762   H1030   1.087   1_545 S
C763   C886    1.330   .     S
C763   H907    1.087   .     S
C764   O803    1.296   .     A
C764   O805    1.294   .     A
C765   O804    1.296   .     A
C765   O806    1.294   .     A
C766   N792    1.438   .     S
Cu767  O802    1.944   .     S
Cu767  Cu768   2.701   .     S
Cu767  O799    1.946   .     S
Cu767  O803    1.963   .     S
Cu767  N791    2.030   .     S
Cu767  O806    1.955   .     S
Cu768  O805    1.955   .     S
Cu768  O800    1.946   .     S
Cu768  O804    1.963   .     S
Cu768  N789    2.030   .     S
Cu768  O801    1.944   .     S
H770   N794    1.046   .     S
H771   N795    1.046   .     S
H772   N795    1.045   .     S
H773   N796    1.045   .     S
H774   N796    1.045   .     S
H775   N797    1.046   .     S
H776   N1045   1.045   1_545 S
H777   N798    1.044   .     S
H778   N798    1.044   .     S
H779   N790    1.044   .     S
H781   N790    1.044   .     S
H782   C886    1.087   .     S
H783   C1011   1.087   1_545 S
H784   N792    1.045   .     S
H785   N792    1.046   .     S
H786   N793    1.046   .     S
H787   N793    1.045   .     S
H788   N794    1.045   .     S
N791   N45     1.297   1_556 S
N791   N46     1.385   1_556 S
N797   H900    1.045   .     S
N798   N45     1.385   1_556 S
C807   O863    1.291   .     A
C807   O861    1.294   .     A
C807   C824    1.425   .     S
C808   N855    1.437   .     S
C808   C810    1.405   .     A
C808   C819    1.416   .     A
C809   C827    1.445   .     S
C809   C828    1.405   .     A
C809   C811    1.400   .     A
C810   C812    1.393   .     A
C810   C826    1.445   .     S
C811   N856    1.439   .     S
C811   C813    1.399   .     A
C812   N857    1.439   .     S
C812   C814    1.403   .     A
C813   C815    1.414   .     A
C813   C820    1.397   .     A
C814   C821    1.400   .     A
C814   C816    1.418   .     A
C815   C817    1.426   .     A
C815   C754    1.416   1_655 S
C816   C819    1.430   .     A
C817   C828    1.413   .     A
C817   C823    1.417   .     A
C818   O864    1.291   .     A
C818   O862    1.294   .     A
C818   C825    1.425   .     S
C819   C822    1.426   .     A
C820   H831    1.084   .     S
C820   C760    1.385   1_655 S
C821   H842    1.082   .     S
C822   N858    1.434   .     S
C823   N859    1.434   .     S
C823   C759    1.389   1_655 S
C824   C1073   1.330   1_545 S
C824   H1092   1.087   1_545 S
C825   C948    1.330   .     S
C825   H969    1.087   .     S
C826   O865    1.296   .     A
C826   O867    1.294   .     A
C827   O866    1.296   .     A
C827   O868    1.294   .     A
C828   N854    1.438   .     S
Cu829  O864    1.944   .     S
Cu829  Cu830   2.701   .     S
Cu829  O861    1.946   .     S
Cu829  O865    1.963   .     S
Cu829  N853    2.030   .     S
Cu829  O868    1.955   .     S
Cu830  O867    1.955   .     S
Cu830  O862    1.946   .     S
Cu830  O866    1.963   .     S
Cu830  N851    2.030   .     S
Cu830  O863    1.944   .     S
H832   N856    1.046   .     S
H833   N857    1.046   .     S
H834   N857    1.045   .     S
H835   N858    1.045   .     S
H836   N858    1.045   .     S
H837   N859    1.046   .     S
H838   N1107   1.045   1_545 S
H839   N860    1.044   .     S
H840   N860    1.044   .     S
H841   N852    1.044   .     S
H843   N852    1.044   .     S
H844   C948    1.087   .     S
H845   C1073   1.087   1_545 S
H846   N854    1.045   .     S
H847   N854    1.046   .     S
H848   N855    1.046   .     S
H849   N855    1.045   .     S
H850   N856    1.045   .     S
N853   N107    1.297   1_556 S
N853   N108    1.385   1_556 S
N859   H962    1.045   .     S
N860   N107    1.385   1_556 S
C869   O925    1.291   .     A
C869   O923    1.294   .     A
C869   C886    1.425   .     S
C870   N917    1.437   .     S
C870   C872    1.405   .     A
C870   C881    1.416   .     A
C871   C889    1.445   .     S
C871   C890    1.405   .     A
C871   C873    1.400   .     A
C872   C874    1.393   .     A
C872   C888    1.445   .     S
C873   N918    1.439   .     S
C873   C875    1.399   .     A
C874   N919    1.439   .     S
C874   C876    1.403   .     A
C875   C877    1.414   .     A
C875   C882    1.397   .     A
C876   C883    1.400   .     A
C876   C878    1.418   .     A
C877   C879    1.426   .     A
C877   C940    1.416   .     S
C878   C881    1.430   .     A
C878   C939    1.416   1_455 S
C879   C890    1.413   .     A
C879   C885    1.417   .     A
C880   O926    1.291   .     A
C880   O924    1.294   .     A
C880   C887    1.425   .     S
C881   C884    1.426   .     A
C882   H893    1.084   .     S
C882   C946    1.385   .     S
C883   H904    1.082   .     S
C883   C947    1.389   1_455 S
C884   N920    1.434   .     S
C884   C944    1.385   1_455 S
C885   N921    1.434   .     S
C885   C945    1.389   .     S
C887   C1010   1.330   .     S
C887   H1031   1.087   .     S
C888   O927    1.296   .     A
C888   O929    1.294   .     A
C889   O928    1.296   .     A
C889   O930    1.294   .     A
C890   N916    1.438   .     S
Cu891  O926    1.944   .     S
Cu891  Cu892   2.701   .     S
Cu891  O923    1.946   .     S
Cu891  O927    1.963   .     S
Cu891  N915    2.030   .     S
Cu891  O930    1.955   .     S
Cu892  O929    1.955   .     S
Cu892  O924    1.946   .     S
Cu892  O928    1.963   .     S
Cu892  N913    2.030   .     S
Cu892  O925    1.944   .     S
H894   N918    1.046   .     S
H895   N919    1.046   .     S
H896   N919    1.045   .     S
H897   N920    1.045   .     S
H898   N920    1.045   .     S
H899   N921    1.046   .     S
H901   N922    1.044   .     S
H902   N922    1.044   .     S
H903   N914    1.044   .     S
H905   N914    1.044   .     S
H906   C1010   1.087   .     S
H908   N916    1.045   .     S
H909   N916    1.046   .     S
H910   N917    1.046   .     S
H911   N917    1.045   .     S
H912   N918    1.045   .     S
N915   N169    1.297   1_556 S
N915   N170    1.385   1_556 S
N921   H1024   1.045   .     S
N922   N169    1.385   1_556 S
C931   O987    1.291   .     A
C931   O985    1.294   .     A
C931   C948    1.425   .     S
C932   N979    1.437   .     S
C932   C934    1.405   .     A
C932   C943    1.416   .     A
C933   C951    1.445   .     S
C933   C952    1.405   .     A
C933   C935    1.400   .     A
C934   C936    1.393   .     A
C934   C950    1.445   .     S
C935   N980    1.439   .     S
C935   C937    1.399   .     A
C936   N981    1.439   .     S
C936   C938    1.403   .     A
C937   C939    1.414   .     A
C937   C944    1.397   .     A
C938   C945    1.400   .     A
C938   C940    1.418   .     A
C939   C941    1.426   .     A
C939   C878    1.416   1_655 S
C940   C943    1.430   .     A
C941   C952    1.413   .     A
C941   C947    1.417   .     A
C942   O988    1.291   .     A
C942   O986    1.294   .     A
C942   C949    1.425   .     S
C943   C946    1.426   .     A
C944   H955    1.084   .     S
C944   C884    1.385   1_655 S
C945   H966    1.082   .     S
C946   N982    1.434   .     S
C947   N983    1.434   .     S
C947   C883    1.389   1_655 S
C949   C1072   1.330   .     S
C949   H1093   1.087   .     S
C950   O989    1.296   .     A
C950   O991    1.294   .     A
C951   O990    1.296   .     A
C951   O992    1.294   .     A
C952   N978    1.438   .     S
Cu953  O988    1.944   .     S
Cu953  Cu954   2.701   .     S
Cu953  O985    1.946   .     S
Cu953  O989    1.963   .     S
Cu953  N977    2.030   .     S
Cu953  O992    1.955   .     S
Cu954  O991    1.955   .     S
Cu954  O986    1.946   .     S
Cu954  O990    1.963   .     S
Cu954  N975    2.030   .     S
Cu954  O987    1.944   .     S
H956   N980    1.046   .     S
H957   N981    1.046   .     S
H958   N981    1.045   .     S
H959   N982    1.045   .     S
H960   N982    1.045   .     S
H961   N983    1.046   .     S
H963   N984    1.044   .     S
H964   N984    1.044   .     S
H965   N976    1.044   .     S
H967   N976    1.044   .     S
H968   C1072   1.087   .     S
H970   N978    1.045   .     S
H971   N978    1.046   .     S
H972   N979    1.046   .     S
H973   N979    1.045   .     S
H974   N980    1.045   .     S
N977   N231    1.297   1_556 S
N977   N232    1.385   1_556 S
N983   H1086   1.045   .     S
N984   N231    1.385   1_556 S
C993   O1049   1.291   .     A
C993   O1047   1.294   .     A
C993   C1010   1.425   .     S
C994   N1041   1.437   .     S
C994   C996    1.405   .     A
C994   C1005   1.416   .     A
C995   C1013   1.445   .     S
C995   C1014   1.405   .     A
C995   C997    1.400   .     A
C996   C998    1.393   .     A
C996   C1012   1.445   .     S
C997   N1042   1.439   .     S
C997   C999    1.399   .     A
C998   N1043   1.439   .     S
C998   C1000   1.403   .     A
C999   C1001   1.414   .     A
C999   C1006   1.397   .     A
C1000  C1007   1.400   .     A
C1000  C1002   1.418   .     A
C1001  C1003   1.426   .     A
C1001  C1064   1.416   .     S
C1002  C1005   1.430   .     A
C1002  C1063   1.416   1_455 S
C1003  C1014   1.413   .     A
C1003  C1009   1.417   .     A
C1004  O1050   1.291   .     A
C1004  O1048   1.294   .     A
C1004  C1011   1.425   .     S
C1005  C1008   1.426   .     A
C1006  H1017   1.084   .     S
C1006  C1070   1.385   .     S
C1007  H1028   1.082   .     S
C1007  C1071   1.389   1_455 S
C1008  N1044   1.434   .     S
C1008  C1068   1.385   1_455 S
C1009  N1045   1.434   .     S
C1009  C1069   1.389   .     S
C1011  C762    1.330   1_565 S
C1011  H783    1.087   1_565 S
C1012  O1051   1.296   .     A
C1012  O1053   1.294   .     A
C1013  O1052   1.296   .     A
C1013  O1054   1.294   .     A
C1014  N1040   1.438   .     S
Cu1015 O1050   1.944   .     S
Cu1015 Cu1016  2.701   .     S
Cu1015 O1047   1.946   .     S
Cu1015 O1051   1.963   .     S
Cu1015 N1039   2.030   .     S
Cu1015 O1054   1.955   .     S
Cu1016 O1053   1.955   .     S
Cu1016 O1048   1.946   .     S
Cu1016 O1052   1.963   .     S
Cu1016 N1037   2.030   .     S
Cu1016 O1049   1.944   .     S
H1018  N1042   1.046   .     S
H1019  N1043   1.046   .     S
H1020  N1043   1.045   .     S
H1021  N1044   1.045   .     S
H1022  N1044   1.045   .     S
H1023  N1045   1.046   .     S
H1025  N1046   1.044   .     S
H1026  N1046   1.044   .     S
H1027  N1038   1.044   .     S
H1029  N1038   1.044   .     S
H1030  C762    1.087   1_565 S
H1032  N1040   1.045   .     S
H1033  N1040   1.046   .     S
H1034  N1041   1.046   .     S
H1035  N1041   1.045   .     S
H1036  N1042   1.045   .     S
N1039  N293    1.297   1_556 S
N1039  N294    1.385   1_556 S
N1045  H776    1.045   1_565 S
N1046  N293    1.385   1_556 S
C1055  O1111   1.291   .     A
C1055  O1109   1.294   .     A
C1055  C1072   1.425   .     S
C1056  N1103   1.437   .     S
C1056  C1058   1.405   .     A
C1056  C1067   1.416   .     A
C1057  C1075   1.445   .     S
C1057  C1076   1.405   .     A
C1057  C1059   1.400   .     A
C1058  C1060   1.393   .     A
C1058  C1074   1.445   .     S
C1059  N1104   1.439   .     S
C1059  C1061   1.399   .     A
C1060  N1105   1.439   .     S
C1060  C1062   1.403   .     A
C1061  C1063   1.414   .     A
C1061  C1068   1.397   .     A
C1062  C1069   1.400   .     A
C1062  C1064   1.418   .     A
C1063  C1065   1.426   .     A
C1063  C1002   1.416   1_655 S
C1064  C1067   1.430   .     A
C1065  C1076   1.413   .     A
C1065  C1071   1.417   .     A
C1066  O1112   1.291   .     A
C1066  O1110   1.294   .     A
C1066  C1073   1.425   .     S
C1067  C1070   1.426   .     A
C1068  H1079   1.084   .     S
C1068  C1008   1.385   1_655 S
C1069  H1090   1.082   .     S
C1070  N1106   1.434   .     S
C1071  N1107   1.434   .     S
C1071  C1007   1.389   1_655 S
C1073  C824    1.330   1_565 S
C1073  H845    1.087   1_565 S
C1074  O1113   1.296   .     A
C1074  O1115   1.294   .     A
C1075  O1114   1.296   .     A
C1075  O1116   1.294   .     A
C1076  N1102   1.438   .     S
Cu1077 O1112   1.944   .     S
Cu1077 Cu1078  2.701   .     S
Cu1077 O1109   1.946   .     S
Cu1077 O1113   1.963   .     S
Cu1077 N1101   2.030   .     S
Cu1077 O1116   1.955   .     S
Cu1078 O1115   1.955   .     S
Cu1078 O1110   1.946   .     S
Cu1078 O1114   1.963   .     S
Cu1078 N1099   2.030   .     S
Cu1078 O1111   1.944   .     S
H1080  N1104   1.046   .     S
H1081  N1105   1.046   .     S
H1082  N1105   1.045   .     S
H1083  N1106   1.045   .     S
H1084  N1106   1.045   .     S
H1085  N1107   1.046   .     S
H1087  N1108   1.044   .     S
H1088  N1108   1.044   .     S
H1089  N1100   1.044   .     S
H1091  N1100   1.044   .     S
H1092  C824    1.087   1_565 S
H1094  N1102   1.045   .     S
H1095  N1102   1.046   .     S
H1096  N1103   1.046   .     S
H1097  N1103   1.045   .     S
H1098  N1104   1.045   .     S
N1101  N355    1.297   1_556 S
N1101  N356    1.385   1_556 S
N1107  H838    1.045   1_565 S
N1108  N355    1.385   1_556 S
