data_str_m1_o1_o2_pcu_sym.26
_audit_creation_date              2020-01-03
_audit_creation_method            'Materials Studio'
_symmetry_space_group_name_H-M    'P1'
_symmetry_Int_Tables_number       1
_symmetry_cell_setting            triclinic
loop_
_symmetry_equiv_pos_as_xyz
  x,y,z
_cell_length_a                    36.7081
_cell_length_b                    36.7081
_cell_length_c                    34.4545
_cell_angle_alpha                 90.0000
_cell_angle_beta                  90.0000
_cell_angle_gamma                 90.0000
loop_
_atom_site_label
_atom_site_type_symbol
_atom_site_fract_x
_atom_site_fract_y
_atom_site_fract_z
_atom_site_U_iso_or_equiv
_atom_site_adp_type
_atom_site_occupancy
C1     C     0.23606   0.47013   0.04156   0.00000  Uiso   1.00
C2     C     0.01394   0.27987   0.45844   0.00000  Uiso   1.00
C3     C     0.34814   0.40185   0.75000   0.00000  Uiso   1.00
C4     C     0.40186   0.15185   0.25000   0.00000  Uiso   1.00
C5     C     0.09815   0.34814   0.75000   0.00000  Uiso   1.00
C6     C     0.34815   0.40186   0.25000   0.00000  Uiso   1.00
C7     C     0.15186   0.09815   0.75000   0.00000  Uiso   1.00
C8     C     0.09814   0.15185   0.75000   0.00000  Uiso   1.00
C9     C     0.40185   0.34814   0.25000   0.00000  Uiso   1.00
C10    C     0.15185   0.40186   0.75000   0.00000  Uiso   1.00
C11    C     0.34814   0.09815   0.25000   0.00000  Uiso   1.00
C12    C     0.40186   0.34815   0.75000   0.00000  Uiso   1.00
C13    C     0.22013   0.48606   0.54156   0.00000  Uiso   1.00
C14    C     0.09815   0.15186   0.25000   0.00000  Uiso   1.00
C15    C     0.34815   0.09814   0.75000   0.00000  Uiso   1.00
C16    C     0.15186   0.40185   0.25000   0.00000  Uiso   1.00
C17    C     0.25000   0.00000   0.10260   0.00000  Uiso   1.00
C18    C     0.25000   0.00000   0.89740   0.00000  Uiso   1.00
C19    C     0.00000   0.25000   0.10260   0.00000  Uiso   1.00
C20    C     0.00000   0.25000   0.89740   0.00000  Uiso   1.00
C21    C     0.00000   0.25000   0.60260   0.00000  Uiso   1.00
C22    C     0.00000   0.25000   0.39740   0.00000  Uiso   1.00
C23    C     0.25000   0.00000   0.60260   0.00000  Uiso   1.00
C24    C     0.22013   0.01394   0.45844   0.00000  Uiso   1.00
C25    C     0.25000   0.00000   0.39740   0.00000  Uiso   1.00
C26    C     0.01394   0.22013   0.54156   0.00000  Uiso   1.00
C27    C     0.48606   0.22013   0.45844   0.00000  Uiso   1.00
C28    C     0.27987   0.01394   0.54156   0.00000  Uiso   1.00
C29    C     0.27987   0.48606   0.45844   0.00000  Uiso   1.00
C30    C     0.23602   0.46953   0.08196   0.00000  Uiso   1.00
C31    C     0.26398   0.46953   0.91804   0.00000  Uiso   1.00
C32    C     0.03047   0.23602   0.08196   0.00000  Uiso   1.00
C33    C     0.26394   0.47013   0.95844   0.00000  Uiso   1.00
C34    C     0.03047   0.26398   0.91804   0.00000  Uiso   1.00
C35    C     0.26398   0.03047   0.08196   0.00000  Uiso   1.00
C36    C     0.23602   0.03047   0.91804   0.00000  Uiso   1.00
C37    C     0.46953   0.26398   0.08196   0.00000  Uiso   1.00
C38    C     0.46953   0.23602   0.91804   0.00000  Uiso   1.00
C39    C     0.48602   0.28047   0.58196   0.00000  Uiso   1.00
C40    C     0.01398   0.28047   0.41804   0.00000  Uiso   1.00
C41    C     0.21953   0.48602   0.58196   0.00000  Uiso   1.00
C42    C     0.21953   0.01398   0.41804   0.00000  Uiso   1.00
C43    C     0.01398   0.21953   0.58196   0.00000  Uiso   1.00
C44    C     0.02987   0.23606   0.04156   0.00000  Uiso   1.00
C45    C     0.48602   0.21953   0.41804   0.00000  Uiso   1.00
C46    C     0.28047   0.01398   0.58196   0.00000  Uiso   1.00
C47    C     0.28047   0.48602   0.41804   0.00000  Uiso   1.00
C48    C     0.25000   0.00000   0.02128   0.00000  Uiso   1.00
C49    C     0.25000   0.00000   0.97872   0.00000  Uiso   1.00
C50    C     0.00000   0.25000   0.02128   0.00000  Uiso   1.00
C51    C    -0.00000   0.25000   0.97872   0.00000  Uiso   1.00
C52    C     0.00000   0.25000   0.52128   0.00000  Uiso   1.00
C53    C    -0.00000   0.25000   0.47872   0.00000  Uiso   1.00
C54    C     0.25000   0.00000   0.52128   0.00000  Uiso   1.00
C55    C     0.02987   0.26394   0.95844   0.00000  Uiso   1.00
C56    C     0.25000   0.00000   0.47872   0.00000  Uiso   1.00
C57    C     0.25000   0.00000   0.35506   0.00000  Uiso   1.00
C58    C     0.25000   0.00000   0.64494   0.00000  Uiso   1.00
C59    C     0.00000   0.25000   0.35506   0.00000  Uiso   1.00
C60    C     0.00000   0.25000   0.64494   0.00000  Uiso   1.00
C61    C     0.00000   0.25000   0.85506   0.00000  Uiso   1.00
C62    C     0.00000   0.25000   0.14494   0.00000  Uiso   1.00
C63    C     0.25000   0.00000   0.85506   0.00000  Uiso   1.00
C64    C     0.25000   0.00000   0.14494   0.00000  Uiso   1.00
C65    C     0.17992   0.07008   0.25000   0.00000  Uiso   1.00
C66    C     0.26394   0.02987   0.04156   0.00000  Uiso   1.00
C67    C     0.32008   0.42992   0.75000   0.00000  Uiso   1.00
C68    C     0.42992   0.17992   0.25000   0.00000  Uiso   1.00
C69    C     0.07008   0.32008   0.75000   0.00000  Uiso   1.00
C70    C     0.32008   0.42992   0.25000   0.00000  Uiso   1.00
C71    C     0.17992   0.07008   0.75000   0.00000  Uiso   1.00
C72    C     0.07008   0.32008   0.25000   0.00000  Uiso   1.00
C73    C     0.42992   0.17992   0.75000   0.00000  Uiso   1.00
C74    C     0.17992   0.42992   0.75000   0.00000  Uiso   1.00
C75    C     0.32008   0.07008   0.25000   0.00000  Uiso   1.00
C76    C     0.42992   0.32008   0.75000   0.00000  Uiso   1.00
C77    C     0.23606   0.02987   0.95844   0.00000  Uiso   1.00
C78    C     0.07008   0.17992   0.25000   0.00000  Uiso   1.00
C79    C     0.32008   0.07008   0.75000   0.00000  Uiso   1.00
C80    C     0.17992   0.42992   0.25000   0.00000  Uiso   1.00
C81    C     0.07008   0.17992   0.75000   0.00000  Uiso   1.00
C82    C     0.42992   0.32008   0.25000   0.00000  Uiso   1.00
C83    C     0.12188   0.40483   0.22499   0.00000  Uiso   1.00
C84    C     0.37812   0.09517   0.77501   0.00000  Uiso   1.00
C85    C     0.09517   0.12188   0.22499   0.00000  Uiso   1.00
C86    C     0.40483   0.37812   0.77501   0.00000  Uiso   1.00
C87    C     0.37812   0.09517   0.22499   0.00000  Uiso   1.00
C88    C     0.47013   0.26394   0.04156   0.00000  Uiso   1.00
C89    C     0.12188   0.40483   0.77501   0.00000  Uiso   1.00
C90    C     0.40483   0.37812   0.22499   0.00000  Uiso   1.00
C91    C     0.09517   0.12188   0.77501   0.00000  Uiso   1.00
C92    C     0.12188   0.09517   0.77501   0.00000  Uiso   1.00
C93    C     0.37812   0.40483   0.22499   0.00000  Uiso   1.00
C94    C     0.09517   0.37812   0.77501   0.00000  Uiso   1.00
C95    C     0.40483   0.12188   0.22499   0.00000  Uiso   1.00
C96    C     0.37812   0.40483   0.77501   0.00000  Uiso   1.00
C97    C     0.12188   0.09517   0.22499   0.00000  Uiso   1.00
C98    C     0.40483   0.12188   0.77501   0.00000  Uiso   1.00
C99    C     0.47013   0.23606   0.95844   0.00000  Uiso   1.00
C100   C     0.09517   0.37812   0.22499   0.00000  Uiso   1.00
C101   C     0.37188   0.15483   0.72499   0.00000  Uiso   1.00
C102   C     0.12812   0.34517   0.27501   0.00000  Uiso   1.00
C103   C     0.34517   0.37188   0.72499   0.00000  Uiso   1.00
C104   C     0.15483   0.12812   0.27501   0.00000  Uiso   1.00
C105   C     0.12812   0.34517   0.72499   0.00000  Uiso   1.00
C106   C     0.37188   0.15483   0.27501   0.00000  Uiso   1.00
C107   C     0.15483   0.12812   0.72499   0.00000  Uiso   1.00
C108   C     0.34517   0.37188   0.27501   0.00000  Uiso   1.00
C109   C     0.37188   0.34517   0.27501   0.00000  Uiso   1.00
C110   C     0.48606   0.27987   0.54156   0.00000  Uiso   1.00
C111   C     0.12812   0.15483   0.72499   0.00000  Uiso   1.00
C112   C     0.34517   0.12812   0.27501   0.00000  Uiso   1.00
C113   C     0.15483   0.37188   0.72499   0.00000  Uiso   1.00
C114   C     0.12812   0.15483   0.27501   0.00000  Uiso   1.00
C115   C     0.37188   0.34517   0.72499   0.00000  Uiso   1.00
C116   C     0.15483   0.37188   0.27501   0.00000  Uiso   1.00
C117   C     0.34517   0.12812   0.72499   0.00000  Uiso   1.00
C118   C     0.09814   0.34815   0.25000   0.00000  Uiso   1.00
C119   C     0.40185   0.15186   0.75000   0.00000  Uiso   1.00
C120   C     0.15185   0.09814   0.25000   0.00000  Uiso   1.00
H121   H     0.11904   0.42775   0.20542   0.00000  Uiso   1.00
H122   H     0.38097   0.42776   0.20543   0.00000  Uiso   1.00
H123   H     0.07225   0.38096   0.79458   0.00000  Uiso   1.00
H124   H     0.42776   0.11903   0.20543   0.00000  Uiso   1.00
H125   H     0.38096   0.42775   0.79458   0.00000  Uiso   1.00
H126   H     0.11903   0.07224   0.20543   0.00000  Uiso   1.00
H127   H     0.42775   0.11904   0.79458   0.00000  Uiso   1.00
H128   H     0.07224   0.38097   0.20543   0.00000  Uiso   1.00
H129   H     0.36903   0.17776   0.70543   0.00000  Uiso   1.00
H130   H     0.13096   0.32225   0.29458   0.00000  Uiso   1.00
H131   H     0.32224   0.36903   0.70543   0.00000  Uiso   1.00
H132   H     0.38097   0.07224   0.79457   0.00000  Uiso   1.00
H133   H     0.17775   0.13096   0.29458   0.00000  Uiso   1.00
H134   H     0.13097   0.32224   0.70543   0.00000  Uiso   1.00
H135   H     0.36904   0.17775   0.29458   0.00000  Uiso   1.00
H136   H     0.17776   0.13097   0.70543   0.00000  Uiso   1.00
H137   H     0.32225   0.36904   0.29458   0.00000  Uiso   1.00
H138   H     0.36903   0.32224   0.29457   0.00000  Uiso   1.00
H139   H     0.13096   0.17775   0.70542   0.00000  Uiso   1.00
H140   H     0.32224   0.13097   0.29457   0.00000  Uiso   1.00
H141   H     0.17775   0.36904   0.70542   0.00000  Uiso   1.00
H142   H     0.13097   0.17776   0.29457   0.00000  Uiso   1.00
H143   H     0.07225   0.11904   0.20542   0.00000  Uiso   1.00
H144   H     0.36904   0.32225   0.70542   0.00000  Uiso   1.00
H145   H     0.17776   0.36903   0.29457   0.00000  Uiso   1.00
H146   H     0.32225   0.13096   0.70542   0.00000  Uiso   1.00
H147   H     0.22510   0.44700   0.02586   0.00000  Uiso   1.00
H148   H     0.27490   0.44700   0.97414   0.00000  Uiso   1.00
H149   H     0.05300   0.22510   0.02586   0.00000  Uiso   1.00
H150   H     0.05300   0.27490   0.97414   0.00000  Uiso   1.00
H151   H     0.27490   0.05300   0.02586   0.00000  Uiso   1.00
H152   H     0.22510   0.05300   0.97414   0.00000  Uiso   1.00
H153   H     0.44700   0.27490   0.02586   0.00000  Uiso   1.00
H154   H     0.42776   0.38097   0.79457   0.00000  Uiso   1.00
H155   H     0.44700   0.22510   0.97414   0.00000  Uiso   1.00
H156   H     0.47510   0.30300   0.52586   0.00000  Uiso   1.00
H157   H     0.02490   0.30300   0.47414   0.00000  Uiso   1.00
H158   H     0.19700   0.47510   0.52586   0.00000  Uiso   1.00
H159   H     0.19700   0.02490   0.47414   0.00000  Uiso   1.00
H160   H     0.02490   0.19700   0.52586   0.00000  Uiso   1.00
H161   H     0.47510   0.19700   0.47414   0.00000  Uiso   1.00
H162   H     0.30300   0.02490   0.52586   0.00000  Uiso   1.00
H163   H     0.30300   0.47510   0.47414   0.00000  Uiso   1.00
H164   H     0.22783   0.43891   0.12774   0.00000  Uiso   1.00
H165   H     0.38096   0.07225   0.20542   0.00000  Uiso   1.00
H166   H     0.27217   0.43891   0.87226   0.00000  Uiso   1.00
H167   H     0.06109   0.22783   0.12774   0.00000  Uiso   1.00
H168   H     0.06109   0.27217   0.87226   0.00000  Uiso   1.00
H169   H     0.27217   0.06109   0.12774   0.00000  Uiso   1.00
H170   H     0.22783   0.06109   0.87226   0.00000  Uiso   1.00
H171   H     0.43891   0.27217   0.12774   0.00000  Uiso   1.00
H172   H     0.43891   0.22783   0.87226   0.00000  Uiso   1.00
H173   H     0.47783   0.31109   0.62774   0.00000  Uiso   1.00
H174   H     0.02217   0.31109   0.37226   0.00000  Uiso   1.00
H175   H     0.18891   0.47783   0.62774   0.00000  Uiso   1.00
H176   H     0.11903   0.42776   0.79457   0.00000  Uiso   1.00
H177   H     0.18891   0.02217   0.37226   0.00000  Uiso   1.00
H178   H     0.02217   0.18891   0.62774   0.00000  Uiso   1.00
H179   H     0.47783   0.18891   0.37226   0.00000  Uiso   1.00
H180   H     0.31109   0.02217   0.62774   0.00000  Uiso   1.00
H181   H     0.31109   0.47783   0.37226   0.00000  Uiso   1.00
H182   H     0.42775   0.38096   0.20542   0.00000  Uiso   1.00
H183   H     0.07224   0.11903   0.79457   0.00000  Uiso   1.00
H184   H     0.11904   0.07225   0.79458   0.00000  Uiso   1.00
O185   O     0.25000   0.00000   0.25000   0.00000  Uiso   1.00
O186   O     0.25000   0.46964   0.66317   0.00000  Uiso   1.00
O187   O     0.46964   0.25000   0.33683   0.00000  Uiso   1.00
O188   O     0.03036   0.25000   0.66317   0.00000  Uiso   1.00
O189   O    -0.00000   0.21964   0.83683   0.00000  Uiso   1.00
O190   O     0.00000   0.28036   0.16317   0.00000  Uiso   1.00
O191   O     0.28036   0.00000   0.83683   0.00000  Uiso   1.00
O192   O     0.21964   0.00000   0.16317   0.00000  Uiso   1.00
O193   O    -0.00000   0.28036   0.83683   0.00000  Uiso   1.00
O194   O    -0.00000   0.21964   0.16317   0.00000  Uiso   1.00
O195   O     0.21964   0.00000   0.83683   0.00000  Uiso   1.00
O196   O     0.25000   0.00000   0.75000   0.00000  Uiso   1.00
O197   O     0.28036   0.00000   0.16317   0.00000  Uiso   1.00
O198   O     0.20725   0.07307   0.27282   0.00000  Uiso   1.00
O199   O     0.29274   0.42693   0.72718   0.00000  Uiso   1.00
O200   O     0.42693   0.20726   0.27282   0.00000  Uiso   1.00
O201   O     0.07307   0.29275   0.72718   0.00000  Uiso   1.00
O202   O     0.29274   0.42693   0.27282   0.00000  Uiso   1.00
O203   O     0.20725   0.07307   0.72718   0.00000  Uiso   1.00
O204   O     0.07307   0.29275   0.27282   0.00000  Uiso   1.00
O205   O     0.42693   0.20726   0.72718   0.00000  Uiso   1.00
O206   O     0.20725   0.42693   0.72718   0.00000  Uiso   1.00
O207   O    -0.00000   0.25000   0.25000   0.00000  Uiso   1.00
O208   O     0.29274   0.07307   0.27282   0.00000  Uiso   1.00
O209   O     0.42693   0.29275   0.72718   0.00000  Uiso   1.00
O210   O     0.07307   0.20726   0.27282   0.00000  Uiso   1.00
O211   O     0.29274   0.07307   0.72718   0.00000  Uiso   1.00
O212   O     0.20725   0.42693   0.27282   0.00000  Uiso   1.00
O213   O     0.07307   0.20726   0.72718   0.00000  Uiso   1.00
O214   O     0.42693   0.29275   0.27282   0.00000  Uiso   1.00
O215   O     0.45725   0.32307   0.77282   0.00000  Uiso   1.00
O216   O     0.04274   0.17693   0.22718   0.00000  Uiso   1.00
O217   O     0.17693   0.45726   0.77282   0.00000  Uiso   1.00
O218   O    -0.00000   0.25000   0.75000   0.00000  Uiso   1.00
O219   O     0.32307   0.04275   0.22718   0.00000  Uiso   1.00
O220   O     0.04274   0.17693   0.77282   0.00000  Uiso   1.00
O221   O     0.45725   0.32307   0.22718   0.00000  Uiso   1.00
O222   O     0.32307   0.04275   0.77282   0.00000  Uiso   1.00
O223   O     0.17693   0.45726   0.22718   0.00000  Uiso   1.00
O224   O     0.45725   0.17693   0.22718   0.00000  Uiso   1.00
O225   O     0.04274   0.32307   0.77282   0.00000  Uiso   1.00
O226   O     0.17693   0.04275   0.22718   0.00000  Uiso   1.00
O227   O     0.32307   0.45726   0.77282   0.00000  Uiso   1.00
O228   O     0.04274   0.32307   0.22718   0.00000  Uiso   1.00
O229   O     0.25000   0.46964   0.33683   0.00000  Uiso   1.00
O230   O     0.45725   0.17693   0.77282   0.00000  Uiso   1.00
O231   O     0.32307   0.45726   0.22718   0.00000  Uiso   1.00
O232   O     0.17693   0.04275   0.77282   0.00000  Uiso   1.00
O233   O     0.22250   0.43852   0.09963   0.00000  Uiso   1.00
O234   O     0.27749   0.43852   0.90037   0.00000  Uiso   1.00
O235   O     0.06148   0.22251   0.09963   0.00000  Uiso   1.00
O236   O     0.06148   0.27750   0.90037   0.00000  Uiso   1.00
O237   O     0.27749   0.06148   0.09963   0.00000  Uiso   1.00
O238   O     0.22250   0.06148   0.90037   0.00000  Uiso   1.00
O239   O     0.43852   0.27750   0.09963   0.00000  Uiso   1.00
O240   O     0.25000   0.03036   0.66317   0.00000  Uiso   1.00
O241   O     0.43852   0.22251   0.90037   0.00000  Uiso   1.00
O242   O     0.47250   0.31148   0.59963   0.00000  Uiso   1.00
O243   O     0.02749   0.31148   0.40037   0.00000  Uiso   1.00
O244   O     0.18852   0.47251   0.59963   0.00000  Uiso   1.00
O245   O     0.18852   0.02750   0.40037   0.00000  Uiso   1.00
O246   O     0.02749   0.18852   0.59963   0.00000  Uiso   1.00
O247   O     0.47250   0.18852   0.40037   0.00000  Uiso   1.00
O248   O     0.31148   0.02750   0.59963   0.00000  Uiso   1.00
O249   O     0.31148   0.47251   0.40037   0.00000  Uiso   1.00
O250   O     0.03036   0.25000   0.33683   0.00000  Uiso   1.00
O251   O     0.46964   0.25000   0.66317   0.00000  Uiso   1.00
O252   O     0.25000   0.03036   0.33683   0.00000  Uiso   1.00
Zn253  Zn    0.20660   0.00000   0.21760   0.00000  Uiso   1.00
Zn254  Zn    0.04340   0.25000   0.28240   0.00000  Uiso   1.00
Zn255  Zn    0.25000   0.45660   0.71760   0.00000  Uiso   1.00
Zn256  Zn    0.25000   0.04340   0.28240   0.00000  Uiso   1.00
Zn257  Zn    0.04340   0.25000   0.71760   0.00000  Uiso   1.00
Zn258  Zn    0.45660   0.25000   0.28240   0.00000  Uiso   1.00
Zn259  Zn    0.25000   0.04340   0.71760   0.00000  Uiso   1.00
Zn260  Zn    0.25000   0.45660   0.28240   0.00000  Uiso   1.00
Zn261  Zn    0.29340   0.00000   0.78240   0.00000  Uiso   1.00
Zn262  Zn    0.00000   0.20660   0.21760   0.00000  Uiso   1.00
Zn263  Zn   -0.00000   0.29340   0.78240   0.00000  Uiso   1.00
Zn264  Zn    0.29340   0.00000   0.21760   0.00000  Uiso   1.00
Zn265  Zn    0.20660   0.00000   0.78240   0.00000  Uiso   1.00
Zn266  Zn   -0.00000   0.29340   0.21760   0.00000  Uiso   1.00
Zn267  Zn    0.00000   0.20660   0.78240   0.00000  Uiso   1.00
Zn268  Zn    0.45660   0.25000   0.71760   0.00000  Uiso   1.00
C269   C     0.73606   0.47013   0.04156   0.00000  Uiso   1.00
C270   C     0.51394   0.27987   0.45844   0.00000  Uiso   1.00
C271   C     0.84814   0.40185   0.75000   0.00000  Uiso   1.00
C272   C     0.90186   0.15185   0.25000   0.00000  Uiso   1.00
C273   C     0.59815   0.34814   0.75000   0.00000  Uiso   1.00
C274   C     0.84815   0.40186   0.25000   0.00000  Uiso   1.00
C275   C     0.65186   0.09815   0.75000   0.00000  Uiso   1.00
C276   C     0.59814   0.15185   0.75000   0.00000  Uiso   1.00
C277   C     0.90185   0.34814   0.25000   0.00000  Uiso   1.00
C278   C     0.65185   0.40186   0.75000   0.00000  Uiso   1.00
C279   C     0.84814   0.09815   0.25000   0.00000  Uiso   1.00
C280   C     0.90186   0.34815   0.75000   0.00000  Uiso   1.00
C281   C     0.72013   0.48606   0.54156   0.00000  Uiso   1.00
C282   C     0.59815   0.15186   0.25000   0.00000  Uiso   1.00
C283   C     0.84815   0.09814   0.75000   0.00000  Uiso   1.00
C284   C     0.65186   0.40185   0.25000   0.00000  Uiso   1.00
C285   C     0.75000   0.00000   0.10260   0.00000  Uiso   1.00
C286   C     0.75000   0.00000   0.89740   0.00000  Uiso   1.00
C287   C     0.50000   0.25000   0.10260   0.00000  Uiso   1.00
C288   C     0.50000   0.25000   0.89740   0.00000  Uiso   1.00
C289   C     0.50000   0.25000   0.60260   0.00000  Uiso   1.00
C290   C     0.50000   0.25000   0.39740   0.00000  Uiso   1.00
C291   C     0.75000   0.00000   0.60260   0.00000  Uiso   1.00
C292   C     0.72013   0.01394   0.45844   0.00000  Uiso   1.00
C293   C     0.75000   0.00000   0.39740   0.00000  Uiso   1.00
C294   C     0.51394   0.22013   0.54156   0.00000  Uiso   1.00
C295   C     0.98606   0.22013   0.45844   0.00000  Uiso   1.00
C296   C     0.77987   0.01394   0.54156   0.00000  Uiso   1.00
C297   C     0.77987   0.48606   0.45844   0.00000  Uiso   1.00
C298   C     0.73602   0.46953   0.08196   0.00000  Uiso   1.00
C299   C     0.76398   0.46953   0.91804   0.00000  Uiso   1.00
C300   C     0.53047   0.23602   0.08196   0.00000  Uiso   1.00
C301   C     0.76394   0.47013   0.95844   0.00000  Uiso   1.00
C302   C     0.53047   0.26398   0.91804   0.00000  Uiso   1.00
C303   C     0.76398   0.03047   0.08196   0.00000  Uiso   1.00
C304   C     0.73602   0.03047   0.91804   0.00000  Uiso   1.00
C305   C     0.96953   0.26398   0.08196   0.00000  Uiso   1.00
C306   C     0.96953   0.23602   0.91804   0.00000  Uiso   1.00
C307   C     0.98602   0.28047   0.58196   0.00000  Uiso   1.00
C308   C     0.51398   0.28047   0.41804   0.00000  Uiso   1.00
C309   C     0.71953   0.48602   0.58196   0.00000  Uiso   1.00
C310   C     0.71953   0.01398   0.41804   0.00000  Uiso   1.00
C311   C     0.51398   0.21953   0.58196   0.00000  Uiso   1.00
C312   C     0.52987   0.23606   0.04156   0.00000  Uiso   1.00
C313   C     0.98602   0.21953   0.41804   0.00000  Uiso   1.00
C314   C     0.78047   0.01398   0.58196   0.00000  Uiso   1.00
C315   C     0.78047   0.48602   0.41804   0.00000  Uiso   1.00
C316   C     0.75000   0.00000   0.02128   0.00000  Uiso   1.00
C317   C     0.75000   0.00000   0.97872   0.00000  Uiso   1.00
C318   C     0.50000   0.25000   0.02128   0.00000  Uiso   1.00
C319   C     0.50000   0.25000   0.97872   0.00000  Uiso   1.00
C320   C     0.50000   0.25000   0.52128   0.00000  Uiso   1.00
C321   C     0.50000   0.25000   0.47872   0.00000  Uiso   1.00
C322   C     0.75000   0.00000   0.52128   0.00000  Uiso   1.00
C323   C     0.52987   0.26394   0.95844   0.00000  Uiso   1.00
C324   C     0.75000   0.00000   0.47872   0.00000  Uiso   1.00
C325   C     0.75000   0.00000   0.35506   0.00000  Uiso   1.00
C326   C     0.75000   0.00000   0.64494   0.00000  Uiso   1.00
C327   C     0.50000   0.25000   0.35506   0.00000  Uiso   1.00
C328   C     0.50000   0.25000   0.64494   0.00000  Uiso   1.00
C329   C     0.50000   0.25000   0.85506   0.00000  Uiso   1.00
C330   C     0.50000   0.25000   0.14494   0.00000  Uiso   1.00
C331   C     0.75000   0.00000   0.85506   0.00000  Uiso   1.00
C332   C     0.75000   0.00000   0.14494   0.00000  Uiso   1.00
C333   C     0.67992   0.07008   0.25000   0.00000  Uiso   1.00
C334   C     0.76394   0.02987   0.04156   0.00000  Uiso   1.00
C335   C     0.82008   0.42992   0.75000   0.00000  Uiso   1.00
C336   C     0.92992   0.17992   0.25000   0.00000  Uiso   1.00
C337   C     0.57008   0.32008   0.75000   0.00000  Uiso   1.00
C338   C     0.82008   0.42992   0.25000   0.00000  Uiso   1.00
C339   C     0.67992   0.07008   0.75000   0.00000  Uiso   1.00
C340   C     0.57008   0.32008   0.25000   0.00000  Uiso   1.00
C341   C     0.92992   0.17992   0.75000   0.00000  Uiso   1.00
C342   C     0.67992   0.42992   0.75000   0.00000  Uiso   1.00
C343   C     0.82008   0.07008   0.25000   0.00000  Uiso   1.00
C344   C     0.92992   0.32008   0.75000   0.00000  Uiso   1.00
C345   C     0.73606   0.02987   0.95844   0.00000  Uiso   1.00
C346   C     0.57008   0.17992   0.25000   0.00000  Uiso   1.00
C347   C     0.82008   0.07008   0.75000   0.00000  Uiso   1.00
C348   C     0.67992   0.42992   0.25000   0.00000  Uiso   1.00
C349   C     0.57008   0.17992   0.75000   0.00000  Uiso   1.00
C350   C     0.92992   0.32008   0.25000   0.00000  Uiso   1.00
C351   C     0.62188   0.40483   0.22499   0.00000  Uiso   1.00
C352   C     0.87812   0.09517   0.77501   0.00000  Uiso   1.00
C353   C     0.59517   0.12188   0.22499   0.00000  Uiso   1.00
C354   C     0.90483   0.37812   0.77501   0.00000  Uiso   1.00
C355   C     0.87812   0.09517   0.22499   0.00000  Uiso   1.00
C356   C     0.97013   0.26394   0.04156   0.00000  Uiso   1.00
C357   C     0.62188   0.40483   0.77501   0.00000  Uiso   1.00
C358   C     0.90483   0.37812   0.22499   0.00000  Uiso   1.00
C359   C     0.59517   0.12188   0.77501   0.00000  Uiso   1.00
C360   C     0.62188   0.09517   0.77501   0.00000  Uiso   1.00
C361   C     0.87812   0.40483   0.22499   0.00000  Uiso   1.00
C362   C     0.59517   0.37812   0.77501   0.00000  Uiso   1.00
C363   C     0.90483   0.12188   0.22499   0.00000  Uiso   1.00
C364   C     0.87812   0.40483   0.77501   0.00000  Uiso   1.00
C365   C     0.62188   0.09517   0.22499   0.00000  Uiso   1.00
C366   C     0.90483   0.12188   0.77501   0.00000  Uiso   1.00
C367   C     0.97013   0.23606   0.95844   0.00000  Uiso   1.00
C368   C     0.59517   0.37812   0.22499   0.00000  Uiso   1.00
C369   C     0.87188   0.15483   0.72499   0.00000  Uiso   1.00
C370   C     0.62812   0.34517   0.27501   0.00000  Uiso   1.00
C371   C     0.84517   0.37188   0.72499   0.00000  Uiso   1.00
C372   C     0.65483   0.12812   0.27501   0.00000  Uiso   1.00
C373   C     0.62812   0.34517   0.72499   0.00000  Uiso   1.00
C374   C     0.87188   0.15483   0.27501   0.00000  Uiso   1.00
C375   C     0.65483   0.12812   0.72499   0.00000  Uiso   1.00
C376   C     0.84517   0.37188   0.27501   0.00000  Uiso   1.00
C377   C     0.87188   0.34517   0.27501   0.00000  Uiso   1.00
C378   C     0.98606   0.27987   0.54156   0.00000  Uiso   1.00
C379   C     0.62812   0.15483   0.72499   0.00000  Uiso   1.00
C380   C     0.84517   0.12812   0.27501   0.00000  Uiso   1.00
C381   C     0.65483   0.37188   0.72499   0.00000  Uiso   1.00
C382   C     0.62812   0.15483   0.27501   0.00000  Uiso   1.00
C383   C     0.87188   0.34517   0.72499   0.00000  Uiso   1.00
C384   C     0.65483   0.37188   0.27501   0.00000  Uiso   1.00
C385   C     0.84517   0.12812   0.72499   0.00000  Uiso   1.00
C386   C     0.59814   0.34815   0.25000   0.00000  Uiso   1.00
C387   C     0.90185   0.15186   0.75000   0.00000  Uiso   1.00
C388   C     0.65185   0.09814   0.25000   0.00000  Uiso   1.00
H389   H     0.61904   0.42775   0.20542   0.00000  Uiso   1.00
H390   H     0.88097   0.42776   0.20543   0.00000  Uiso   1.00
H391   H     0.57225   0.38096   0.79458   0.00000  Uiso   1.00
H392   H     0.92776   0.11903   0.20543   0.00000  Uiso   1.00
H393   H     0.88096   0.42775   0.79458   0.00000  Uiso   1.00
H394   H     0.61903   0.07224   0.20543   0.00000  Uiso   1.00
H395   H     0.92775   0.11904   0.79458   0.00000  Uiso   1.00
H396   H     0.57224   0.38097   0.20543   0.00000  Uiso   1.00
H397   H     0.86903   0.17776   0.70543   0.00000  Uiso   1.00
H398   H     0.63096   0.32225   0.29458   0.00000  Uiso   1.00
H399   H     0.82224   0.36903   0.70543   0.00000  Uiso   1.00
H400   H     0.88097   0.07224   0.79457   0.00000  Uiso   1.00
H401   H     0.67775   0.13096   0.29458   0.00000  Uiso   1.00
H402   H     0.63097   0.32224   0.70543   0.00000  Uiso   1.00
H403   H     0.86904   0.17775   0.29458   0.00000  Uiso   1.00
H404   H     0.67776   0.13097   0.70543   0.00000  Uiso   1.00
H405   H     0.82225   0.36904   0.29458   0.00000  Uiso   1.00
H406   H     0.86903   0.32224   0.29457   0.00000  Uiso   1.00
H407   H     0.63096   0.17775   0.70542   0.00000  Uiso   1.00
H408   H     0.82224   0.13097   0.29457   0.00000  Uiso   1.00
H409   H     0.67775   0.36904   0.70542   0.00000  Uiso   1.00
H410   H     0.63097   0.17776   0.29457   0.00000  Uiso   1.00
H411   H     0.57225   0.11904   0.20542   0.00000  Uiso   1.00
H412   H     0.86904   0.32225   0.70542   0.00000  Uiso   1.00
H413   H     0.67776   0.36903   0.29457   0.00000  Uiso   1.00
H414   H     0.82225   0.13096   0.70542   0.00000  Uiso   1.00
H415   H     0.72510   0.44700   0.02586   0.00000  Uiso   1.00
H416   H     0.77490   0.44700   0.97414   0.00000  Uiso   1.00
H417   H     0.55300   0.22510   0.02586   0.00000  Uiso   1.00
H418   H     0.55300   0.27490   0.97414   0.00000  Uiso   1.00
H419   H     0.77490   0.05300   0.02586   0.00000  Uiso   1.00
H420   H     0.72510   0.05300   0.97414   0.00000  Uiso   1.00
H421   H     0.94700   0.27490   0.02586   0.00000  Uiso   1.00
H422   H     0.92776   0.38097   0.79457   0.00000  Uiso   1.00
H423   H     0.94700   0.22510   0.97414   0.00000  Uiso   1.00
H424   H     0.97510   0.30300   0.52586   0.00000  Uiso   1.00
H425   H     0.52490   0.30300   0.47414   0.00000  Uiso   1.00
H426   H     0.69700   0.47510   0.52586   0.00000  Uiso   1.00
H427   H     0.69700   0.02490   0.47414   0.00000  Uiso   1.00
H428   H     0.52490   0.19700   0.52586   0.00000  Uiso   1.00
H429   H     0.97510   0.19700   0.47414   0.00000  Uiso   1.00
H430   H     0.80300   0.02490   0.52586   0.00000  Uiso   1.00
H431   H     0.80300   0.47510   0.47414   0.00000  Uiso   1.00
H432   H     0.72783   0.43891   0.12774   0.00000  Uiso   1.00
H433   H     0.88096   0.07225   0.20542   0.00000  Uiso   1.00
H434   H     0.77217   0.43891   0.87226   0.00000  Uiso   1.00
H435   H     0.56109   0.22783   0.12774   0.00000  Uiso   1.00
H436   H     0.56109   0.27217   0.87226   0.00000  Uiso   1.00
H437   H     0.77217   0.06109   0.12774   0.00000  Uiso   1.00
H438   H     0.72783   0.06109   0.87226   0.00000  Uiso   1.00
H439   H     0.93891   0.27217   0.12774   0.00000  Uiso   1.00
H440   H     0.93891   0.22783   0.87226   0.00000  Uiso   1.00
H441   H     0.97783   0.31109   0.62774   0.00000  Uiso   1.00
H442   H     0.52217   0.31109   0.37226   0.00000  Uiso   1.00
H443   H     0.68891   0.47783   0.62774   0.00000  Uiso   1.00
H444   H     0.61903   0.42776   0.79457   0.00000  Uiso   1.00
H445   H     0.68891   0.02217   0.37226   0.00000  Uiso   1.00
H446   H     0.52217   0.18891   0.62774   0.00000  Uiso   1.00
H447   H     0.97783   0.18891   0.37226   0.00000  Uiso   1.00
H448   H     0.81109   0.02217   0.62774   0.00000  Uiso   1.00
H449   H     0.81109   0.47783   0.37226   0.00000  Uiso   1.00
H450   H     0.92775   0.38096   0.20542   0.00000  Uiso   1.00
H451   H     0.57224   0.11903   0.79457   0.00000  Uiso   1.00
H452   H     0.61904   0.07225   0.79458   0.00000  Uiso   1.00
O453   O     0.75000   0.00000   0.25000   0.00000  Uiso   1.00
O454   O     0.75000   0.46964   0.66317   0.00000  Uiso   1.00
O455   O     0.96964   0.25000   0.33683   0.00000  Uiso   1.00
O456   O     0.53036   0.25000   0.66317   0.00000  Uiso   1.00
O457   O     0.50000   0.21964   0.83683   0.00000  Uiso   1.00
O458   O     0.50000   0.28036   0.16317   0.00000  Uiso   1.00
O459   O     0.78036   0.00000   0.83683   0.00000  Uiso   1.00
O460   O     0.71964   0.00000   0.16317   0.00000  Uiso   1.00
O461   O     0.50000   0.28036   0.83683   0.00000  Uiso   1.00
O462   O     0.50000   0.21964   0.16317   0.00000  Uiso   1.00
O463   O     0.71964   0.00000   0.83683   0.00000  Uiso   1.00
O464   O     0.75000   0.00000   0.75000   0.00000  Uiso   1.00
O465   O     0.78036   0.00000   0.16317   0.00000  Uiso   1.00
O466   O     0.70725   0.07307   0.27282   0.00000  Uiso   1.00
O467   O     0.79274   0.42693   0.72718   0.00000  Uiso   1.00
O468   O     0.92693   0.20726   0.27282   0.00000  Uiso   1.00
O469   O     0.57307   0.29275   0.72718   0.00000  Uiso   1.00
O470   O     0.79274   0.42693   0.27282   0.00000  Uiso   1.00
O471   O     0.70725   0.07307   0.72718   0.00000  Uiso   1.00
O472   O     0.57307   0.29275   0.27282   0.00000  Uiso   1.00
O473   O     0.92693   0.20726   0.72718   0.00000  Uiso   1.00
O474   O     0.70725   0.42693   0.72718   0.00000  Uiso   1.00
O475   O     0.50000   0.25000   0.25000   0.00000  Uiso   1.00
O476   O     0.79274   0.07307   0.27282   0.00000  Uiso   1.00
O477   O     0.92693   0.29275   0.72718   0.00000  Uiso   1.00
O478   O     0.57307   0.20726   0.27282   0.00000  Uiso   1.00
O479   O     0.79274   0.07307   0.72718   0.00000  Uiso   1.00
O480   O     0.70725   0.42693   0.27282   0.00000  Uiso   1.00
O481   O     0.57307   0.20726   0.72718   0.00000  Uiso   1.00
O482   O     0.92693   0.29275   0.27282   0.00000  Uiso   1.00
O483   O     0.95725   0.32307   0.77282   0.00000  Uiso   1.00
O484   O     0.54274   0.17693   0.22718   0.00000  Uiso   1.00
O485   O     0.67693   0.45726   0.77282   0.00000  Uiso   1.00
O486   O     0.50000   0.25000   0.75000   0.00000  Uiso   1.00
O487   O     0.82307   0.04275   0.22718   0.00000  Uiso   1.00
O488   O     0.54274   0.17693   0.77282   0.00000  Uiso   1.00
O489   O     0.95725   0.32307   0.22718   0.00000  Uiso   1.00
O490   O     0.82307   0.04275   0.77282   0.00000  Uiso   1.00
O491   O     0.67693   0.45726   0.22718   0.00000  Uiso   1.00
O492   O     0.95725   0.17693   0.22718   0.00000  Uiso   1.00
O493   O     0.54274   0.32307   0.77282   0.00000  Uiso   1.00
O494   O     0.67693   0.04275   0.22718   0.00000  Uiso   1.00
O495   O     0.82307   0.45726   0.77282   0.00000  Uiso   1.00
O496   O     0.54274   0.32307   0.22718   0.00000  Uiso   1.00
O497   O     0.75000   0.46964   0.33683   0.00000  Uiso   1.00
O498   O     0.95725   0.17693   0.77282   0.00000  Uiso   1.00
O499   O     0.82307   0.45726   0.22718   0.00000  Uiso   1.00
O500   O     0.67693   0.04275   0.77282   0.00000  Uiso   1.00
O501   O     0.72250   0.43852   0.09963   0.00000  Uiso   1.00
O502   O     0.77749   0.43852   0.90037   0.00000  Uiso   1.00
O503   O     0.56148   0.22251   0.09963   0.00000  Uiso   1.00
O504   O     0.56148   0.27750   0.90037   0.00000  Uiso   1.00
O505   O     0.77749   0.06148   0.09963   0.00000  Uiso   1.00
O506   O     0.72250   0.06148   0.90037   0.00000  Uiso   1.00
O507   O     0.93852   0.27750   0.09963   0.00000  Uiso   1.00
O508   O     0.75000   0.03036   0.66317   0.00000  Uiso   1.00
O509   O     0.93852   0.22251   0.90037   0.00000  Uiso   1.00
O510   O     0.97250   0.31148   0.59963   0.00000  Uiso   1.00
O511   O     0.52749   0.31148   0.40037   0.00000  Uiso   1.00
O512   O     0.68852   0.47251   0.59963   0.00000  Uiso   1.00
O513   O     0.68852   0.02750   0.40037   0.00000  Uiso   1.00
O514   O     0.52749   0.18852   0.59963   0.00000  Uiso   1.00
O515   O     0.97250   0.18852   0.40037   0.00000  Uiso   1.00
O516   O     0.81148   0.02750   0.59963   0.00000  Uiso   1.00
O517   O     0.81148   0.47251   0.40037   0.00000  Uiso   1.00
O518   O     0.53036   0.25000   0.33683   0.00000  Uiso   1.00
O519   O     0.96964   0.25000   0.66317   0.00000  Uiso   1.00
O520   O     0.75000   0.03036   0.33683   0.00000  Uiso   1.00
Zn521  Zn    0.70660   0.00000   0.21760   0.00000  Uiso   1.00
Zn522  Zn    0.54340   0.25000   0.28240   0.00000  Uiso   1.00
Zn523  Zn    0.75000   0.45660   0.71760   0.00000  Uiso   1.00
Zn524  Zn    0.75000   0.04340   0.28240   0.00000  Uiso   1.00
Zn525  Zn    0.54340   0.25000   0.71760   0.00000  Uiso   1.00
Zn526  Zn    0.95660   0.25000   0.28240   0.00000  Uiso   1.00
Zn527  Zn    0.75000   0.04340   0.71760   0.00000  Uiso   1.00
Zn528  Zn    0.75000   0.45660   0.28240   0.00000  Uiso   1.00
Zn529  Zn    0.79340   0.00000   0.78240   0.00000  Uiso   1.00
Zn530  Zn    0.50000   0.20660   0.21760   0.00000  Uiso   1.00
Zn531  Zn    0.50000   0.29340   0.78240   0.00000  Uiso   1.00
Zn532  Zn    0.79340   0.00000   0.21760   0.00000  Uiso   1.00
Zn533  Zn    0.70660   0.00000   0.78240   0.00000  Uiso   1.00
Zn534  Zn    0.50000   0.29340   0.21760   0.00000  Uiso   1.00
Zn535  Zn    0.50000   0.20660   0.78240   0.00000  Uiso   1.00
Zn536  Zn    0.95660   0.25000   0.71760   0.00000  Uiso   1.00
C537   C     0.23606   0.97013   0.04156   0.00000  Uiso   1.00
C538   C     0.01394   0.77987   0.45844   0.00000  Uiso   1.00
C539   C     0.34814   0.90185   0.75000   0.00000  Uiso   1.00
C540   C     0.40186   0.65185   0.25000   0.00000  Uiso   1.00
C541   C     0.09815   0.84814   0.75000   0.00000  Uiso   1.00
C542   C     0.34815   0.90186   0.25000   0.00000  Uiso   1.00
C543   C     0.15186   0.59815   0.75000   0.00000  Uiso   1.00
C544   C     0.09814   0.65185   0.75000   0.00000  Uiso   1.00
C545   C     0.40185   0.84814   0.25000   0.00000  Uiso   1.00
C546   C     0.15185   0.90186   0.75000   0.00000  Uiso   1.00
C547   C     0.34814   0.59815   0.25000   0.00000  Uiso   1.00
C548   C     0.40186   0.84815   0.75000   0.00000  Uiso   1.00
C549   C     0.22013   0.98606   0.54156   0.00000  Uiso   1.00
C550   C     0.09815   0.65186   0.25000   0.00000  Uiso   1.00
C551   C     0.34815   0.59814   0.75000   0.00000  Uiso   1.00
C552   C     0.15186   0.90185   0.25000   0.00000  Uiso   1.00
C553   C     0.25000   0.50000   0.10260   0.00000  Uiso   1.00
C554   C     0.25000   0.50000   0.89740   0.00000  Uiso   1.00
C555   C     0.00000   0.75000   0.10260   0.00000  Uiso   1.00
C556   C     0.00000   0.75000   0.89740   0.00000  Uiso   1.00
C557   C     0.00000   0.75000   0.60260   0.00000  Uiso   1.00
C558   C     0.00000   0.75000   0.39740   0.00000  Uiso   1.00
C559   C     0.25000   0.50000   0.60260   0.00000  Uiso   1.00
C560   C     0.22013   0.51394   0.45844   0.00000  Uiso   1.00
C561   C     0.25000   0.50000   0.39740   0.00000  Uiso   1.00
C562   C     0.01394   0.72013   0.54156   0.00000  Uiso   1.00
C563   C     0.48606   0.72013   0.45844   0.00000  Uiso   1.00
C564   C     0.27987   0.51394   0.54156   0.00000  Uiso   1.00
C565   C     0.27987   0.98606   0.45844   0.00000  Uiso   1.00
C566   C     0.23602   0.96953   0.08196   0.00000  Uiso   1.00
C567   C     0.26398   0.96953   0.91804   0.00000  Uiso   1.00
C568   C     0.03047   0.73602   0.08196   0.00000  Uiso   1.00
C569   C     0.26394   0.97013   0.95844   0.00000  Uiso   1.00
C570   C     0.03047   0.76398   0.91804   0.00000  Uiso   1.00
C571   C     0.26398   0.53047   0.08196   0.00000  Uiso   1.00
C572   C     0.23602   0.53047   0.91804   0.00000  Uiso   1.00
C573   C     0.46953   0.76398   0.08196   0.00000  Uiso   1.00
C574   C     0.46953   0.73602   0.91804   0.00000  Uiso   1.00
C575   C     0.48602   0.78047   0.58196   0.00000  Uiso   1.00
C576   C     0.01398   0.78047   0.41804   0.00000  Uiso   1.00
C577   C     0.21953   0.98602   0.58196   0.00000  Uiso   1.00
C578   C     0.21953   0.51398   0.41804   0.00000  Uiso   1.00
C579   C     0.01398   0.71953   0.58196   0.00000  Uiso   1.00
C580   C     0.02987   0.73606   0.04156   0.00000  Uiso   1.00
C581   C     0.48602   0.71953   0.41804   0.00000  Uiso   1.00
C582   C     0.28047   0.51398   0.58196   0.00000  Uiso   1.00
C583   C     0.28047   0.98602   0.41804   0.00000  Uiso   1.00
C584   C     0.25000   0.50000   0.02128   0.00000  Uiso   1.00
C585   C     0.25000   0.50000   0.97872   0.00000  Uiso   1.00
C586   C     0.00000   0.75000   0.02128   0.00000  Uiso   1.00
C587   C    -0.00000   0.75000   0.97872   0.00000  Uiso   1.00
C588   C     0.00000   0.75000   0.52128   0.00000  Uiso   1.00
C589   C    -0.00000   0.75000   0.47872   0.00000  Uiso   1.00
C590   C     0.25000   0.50000   0.52128   0.00000  Uiso   1.00
C591   C     0.02987   0.76394   0.95844   0.00000  Uiso   1.00
C592   C     0.25000   0.50000   0.47872   0.00000  Uiso   1.00
C593   C     0.25000   0.50000   0.35506   0.00000  Uiso   1.00
C594   C     0.25000   0.50000   0.64494   0.00000  Uiso   1.00
C595   C     0.00000   0.75000   0.35506   0.00000  Uiso   1.00
C596   C     0.00000   0.75000   0.64494   0.00000  Uiso   1.00
C597   C     0.00000   0.75000   0.85506   0.00000  Uiso   1.00
C598   C     0.00000   0.75000   0.14494   0.00000  Uiso   1.00
C599   C     0.25000   0.50000   0.85506   0.00000  Uiso   1.00
C600   C     0.25000   0.50000   0.14494   0.00000  Uiso   1.00
C601   C     0.17992   0.57008   0.25000   0.00000  Uiso   1.00
C602   C     0.26394   0.52987   0.04156   0.00000  Uiso   1.00
C603   C     0.32008   0.92992   0.75000   0.00000  Uiso   1.00
C604   C     0.42992   0.67992   0.25000   0.00000  Uiso   1.00
C605   C     0.07008   0.82008   0.75000   0.00000  Uiso   1.00
C606   C     0.32008   0.92992   0.25000   0.00000  Uiso   1.00
C607   C     0.17992   0.57008   0.75000   0.00000  Uiso   1.00
C608   C     0.07008   0.82008   0.25000   0.00000  Uiso   1.00
C609   C     0.42992   0.67992   0.75000   0.00000  Uiso   1.00
C610   C     0.17992   0.92992   0.75000   0.00000  Uiso   1.00
C611   C     0.32008   0.57008   0.25000   0.00000  Uiso   1.00
C612   C     0.42992   0.82008   0.75000   0.00000  Uiso   1.00
C613   C     0.23606   0.52987   0.95844   0.00000  Uiso   1.00
C614   C     0.07008   0.67992   0.25000   0.00000  Uiso   1.00
C615   C     0.32008   0.57008   0.75000   0.00000  Uiso   1.00
C616   C     0.17992   0.92992   0.25000   0.00000  Uiso   1.00
C617   C     0.07008   0.67992   0.75000   0.00000  Uiso   1.00
C618   C     0.42992   0.82008   0.25000   0.00000  Uiso   1.00
C619   C     0.12188   0.90483   0.22499   0.00000  Uiso   1.00
C620   C     0.37812   0.59517   0.77501   0.00000  Uiso   1.00
C621   C     0.09517   0.62188   0.22499   0.00000  Uiso   1.00
C622   C     0.40483   0.87812   0.77501   0.00000  Uiso   1.00
C623   C     0.37812   0.59517   0.22499   0.00000  Uiso   1.00
C624   C     0.47013   0.76394   0.04156   0.00000  Uiso   1.00
C625   C     0.12188   0.90483   0.77501   0.00000  Uiso   1.00
C626   C     0.40483   0.87812   0.22499   0.00000  Uiso   1.00
C627   C     0.09517   0.62188   0.77501   0.00000  Uiso   1.00
C628   C     0.12188   0.59517   0.77501   0.00000  Uiso   1.00
C629   C     0.37812   0.90483   0.22499   0.00000  Uiso   1.00
C630   C     0.09517   0.87812   0.77501   0.00000  Uiso   1.00
C631   C     0.40483   0.62188   0.22499   0.00000  Uiso   1.00
C632   C     0.37812   0.90483   0.77501   0.00000  Uiso   1.00
C633   C     0.12188   0.59517   0.22499   0.00000  Uiso   1.00
C634   C     0.40483   0.62188   0.77501   0.00000  Uiso   1.00
C635   C     0.47013   0.73606   0.95844   0.00000  Uiso   1.00
C636   C     0.09517   0.87812   0.22499   0.00000  Uiso   1.00
C637   C     0.37188   0.65483   0.72499   0.00000  Uiso   1.00
C638   C     0.12812   0.84517   0.27501   0.00000  Uiso   1.00
C639   C     0.34517   0.87188   0.72499   0.00000  Uiso   1.00
C640   C     0.15483   0.62812   0.27501   0.00000  Uiso   1.00
C641   C     0.12812   0.84517   0.72499   0.00000  Uiso   1.00
C642   C     0.37188   0.65483   0.27501   0.00000  Uiso   1.00
C643   C     0.15483   0.62812   0.72499   0.00000  Uiso   1.00
C644   C     0.34517   0.87188   0.27501   0.00000  Uiso   1.00
C645   C     0.37188   0.84517   0.27501   0.00000  Uiso   1.00
C646   C     0.48606   0.77987   0.54156   0.00000  Uiso   1.00
C647   C     0.12812   0.65483   0.72499   0.00000  Uiso   1.00
C648   C     0.34517   0.62812   0.27501   0.00000  Uiso   1.00
C649   C     0.15483   0.87188   0.72499   0.00000  Uiso   1.00
C650   C     0.12812   0.65483   0.27501   0.00000  Uiso   1.00
C651   C     0.37188   0.84517   0.72499   0.00000  Uiso   1.00
C652   C     0.15483   0.87188   0.27501   0.00000  Uiso   1.00
C653   C     0.34517   0.62812   0.72499   0.00000  Uiso   1.00
C654   C     0.09814   0.84815   0.25000   0.00000  Uiso   1.00
C655   C     0.40185   0.65186   0.75000   0.00000  Uiso   1.00
C656   C     0.15185   0.59814   0.25000   0.00000  Uiso   1.00
H657   H     0.11904   0.92775   0.20542   0.00000  Uiso   1.00
H658   H     0.38097   0.92776   0.20543   0.00000  Uiso   1.00
H659   H     0.07225   0.88096   0.79458   0.00000  Uiso   1.00
H660   H     0.42776   0.61903   0.20543   0.00000  Uiso   1.00
H661   H     0.38096   0.92775   0.79458   0.00000  Uiso   1.00
H662   H     0.11903   0.57224   0.20543   0.00000  Uiso   1.00
H663   H     0.42775   0.61904   0.79458   0.00000  Uiso   1.00
H664   H     0.07224   0.88097   0.20543   0.00000  Uiso   1.00
H665   H     0.36903   0.67776   0.70543   0.00000  Uiso   1.00
H666   H     0.13096   0.82225   0.29458   0.00000  Uiso   1.00
H667   H     0.32224   0.86903   0.70543   0.00000  Uiso   1.00
H668   H     0.38097   0.57224   0.79457   0.00000  Uiso   1.00
H669   H     0.17775   0.63096   0.29458   0.00000  Uiso   1.00
H670   H     0.13097   0.82224   0.70543   0.00000  Uiso   1.00
H671   H     0.36904   0.67775   0.29458   0.00000  Uiso   1.00
H672   H     0.17776   0.63097   0.70543   0.00000  Uiso   1.00
H673   H     0.32225   0.86904   0.29458   0.00000  Uiso   1.00
H674   H     0.36903   0.82224   0.29457   0.00000  Uiso   1.00
H675   H     0.13096   0.67775   0.70542   0.00000  Uiso   1.00
H676   H     0.32224   0.63097   0.29457   0.00000  Uiso   1.00
H677   H     0.17775   0.86904   0.70542   0.00000  Uiso   1.00
H678   H     0.13097   0.67776   0.29457   0.00000  Uiso   1.00
H679   H     0.07225   0.61904   0.20542   0.00000  Uiso   1.00
H680   H     0.36904   0.82225   0.70542   0.00000  Uiso   1.00
H681   H     0.17776   0.86903   0.29457   0.00000  Uiso   1.00
H682   H     0.32225   0.63096   0.70542   0.00000  Uiso   1.00
H683   H     0.22510   0.94700   0.02586   0.00000  Uiso   1.00
H684   H     0.27490   0.94700   0.97414   0.00000  Uiso   1.00
H685   H     0.05300   0.72510   0.02586   0.00000  Uiso   1.00
H686   H     0.05300   0.77490   0.97414   0.00000  Uiso   1.00
H687   H     0.27490   0.55300   0.02586   0.00000  Uiso   1.00
H688   H     0.22510   0.55300   0.97414   0.00000  Uiso   1.00
H689   H     0.44700   0.77490   0.02586   0.00000  Uiso   1.00
H690   H     0.42776   0.88097   0.79457   0.00000  Uiso   1.00
H691   H     0.44700   0.72510   0.97414   0.00000  Uiso   1.00
H692   H     0.47510   0.80300   0.52586   0.00000  Uiso   1.00
H693   H     0.02490   0.80300   0.47414   0.00000  Uiso   1.00
H694   H     0.19700   0.97510   0.52586   0.00000  Uiso   1.00
H695   H     0.19700   0.52490   0.47414   0.00000  Uiso   1.00
H696   H     0.02490   0.69700   0.52586   0.00000  Uiso   1.00
H697   H     0.47510   0.69700   0.47414   0.00000  Uiso   1.00
H698   H     0.30300   0.52490   0.52586   0.00000  Uiso   1.00
H699   H     0.30300   0.97510   0.47414   0.00000  Uiso   1.00
H700   H     0.22783   0.93891   0.12774   0.00000  Uiso   1.00
H701   H     0.38096   0.57225   0.20542   0.00000  Uiso   1.00
H702   H     0.27217   0.93891   0.87226   0.00000  Uiso   1.00
H703   H     0.06109   0.72783   0.12774   0.00000  Uiso   1.00
H704   H     0.06109   0.77217   0.87226   0.00000  Uiso   1.00
H705   H     0.27217   0.56109   0.12774   0.00000  Uiso   1.00
H706   H     0.22783   0.56109   0.87226   0.00000  Uiso   1.00
H707   H     0.43891   0.77217   0.12774   0.00000  Uiso   1.00
H708   H     0.43891   0.72783   0.87226   0.00000  Uiso   1.00
H709   H     0.47783   0.81109   0.62774   0.00000  Uiso   1.00
H710   H     0.02217   0.81109   0.37226   0.00000  Uiso   1.00
H711   H     0.18891   0.97783   0.62774   0.00000  Uiso   1.00
H712   H     0.11903   0.92776   0.79457   0.00000  Uiso   1.00
H713   H     0.18891   0.52217   0.37226   0.00000  Uiso   1.00
H714   H     0.02217   0.68891   0.62774   0.00000  Uiso   1.00
H715   H     0.47783   0.68891   0.37226   0.00000  Uiso   1.00
H716   H     0.31109   0.52217   0.62774   0.00000  Uiso   1.00
H717   H     0.31109   0.97783   0.37226   0.00000  Uiso   1.00
H718   H     0.42775   0.88096   0.20542   0.00000  Uiso   1.00
H719   H     0.07224   0.61903   0.79457   0.00000  Uiso   1.00
H720   H     0.11904   0.57225   0.79458   0.00000  Uiso   1.00
O721   O     0.25000   0.50000   0.25000   0.00000  Uiso   1.00
O722   O     0.25000   0.96964   0.66317   0.00000  Uiso   1.00
O723   O     0.46964   0.75000   0.33683   0.00000  Uiso   1.00
O724   O     0.03036   0.75000   0.66317   0.00000  Uiso   1.00
O725   O    -0.00000   0.71964   0.83683   0.00000  Uiso   1.00
O726   O     0.00000   0.78036   0.16317   0.00000  Uiso   1.00
O727   O     0.28036   0.50000   0.83683   0.00000  Uiso   1.00
O728   O     0.21964   0.50000   0.16317   0.00000  Uiso   1.00
O729   O    -0.00000   0.78036   0.83683   0.00000  Uiso   1.00
O730   O    -0.00000   0.71964   0.16317   0.00000  Uiso   1.00
O731   O     0.21964   0.50000   0.83683   0.00000  Uiso   1.00
O732   O     0.25000   0.50000   0.75000   0.00000  Uiso   1.00
O733   O     0.28036   0.50000   0.16317   0.00000  Uiso   1.00
O734   O     0.20725   0.57307   0.27282   0.00000  Uiso   1.00
O735   O     0.29274   0.92693   0.72718   0.00000  Uiso   1.00
O736   O     0.42693   0.70726   0.27282   0.00000  Uiso   1.00
O737   O     0.07307   0.79275   0.72718   0.00000  Uiso   1.00
O738   O     0.29274   0.92693   0.27282   0.00000  Uiso   1.00
O739   O     0.20725   0.57307   0.72718   0.00000  Uiso   1.00
O740   O     0.07307   0.79275   0.27282   0.00000  Uiso   1.00
O741   O     0.42693   0.70726   0.72718   0.00000  Uiso   1.00
O742   O     0.20725   0.92693   0.72718   0.00000  Uiso   1.00
O743   O    -0.00000   0.75000   0.25000   0.00000  Uiso   1.00
O744   O     0.29274   0.57307   0.27282   0.00000  Uiso   1.00
O745   O     0.42693   0.79275   0.72718   0.00000  Uiso   1.00
O746   O     0.07307   0.70726   0.27282   0.00000  Uiso   1.00
O747   O     0.29274   0.57307   0.72718   0.00000  Uiso   1.00
O748   O     0.20725   0.92693   0.27282   0.00000  Uiso   1.00
O749   O     0.07307   0.70726   0.72718   0.00000  Uiso   1.00
O750   O     0.42693   0.79275   0.27282   0.00000  Uiso   1.00
O751   O     0.45725   0.82307   0.77282   0.00000  Uiso   1.00
O752   O     0.04274   0.67693   0.22718   0.00000  Uiso   1.00
O753   O     0.17693   0.95726   0.77282   0.00000  Uiso   1.00
O754   O    -0.00000   0.75000   0.75000   0.00000  Uiso   1.00
O755   O     0.32307   0.54275   0.22718   0.00000  Uiso   1.00
O756   O     0.04274   0.67693   0.77282   0.00000  Uiso   1.00
O757   O     0.45725   0.82307   0.22718   0.00000  Uiso   1.00
O758   O     0.32307   0.54275   0.77282   0.00000  Uiso   1.00
O759   O     0.17693   0.95726   0.22718   0.00000  Uiso   1.00
O760   O     0.45725   0.67693   0.22718   0.00000  Uiso   1.00
O761   O     0.04274   0.82307   0.77282   0.00000  Uiso   1.00
O762   O     0.17693   0.54275   0.22718   0.00000  Uiso   1.00
O763   O     0.32307   0.95726   0.77282   0.00000  Uiso   1.00
O764   O     0.04274   0.82307   0.22718   0.00000  Uiso   1.00
O765   O     0.25000   0.96964   0.33683   0.00000  Uiso   1.00
O766   O     0.45725   0.67693   0.77282   0.00000  Uiso   1.00
O767   O     0.32307   0.95726   0.22718   0.00000  Uiso   1.00
O768   O     0.17693   0.54275   0.77282   0.00000  Uiso   1.00
O769   O     0.22250   0.93852   0.09963   0.00000  Uiso   1.00
O770   O     0.27749   0.93852   0.90037   0.00000  Uiso   1.00
O771   O     0.06148   0.72251   0.09963   0.00000  Uiso   1.00
O772   O     0.06148   0.77750   0.90037   0.00000  Uiso   1.00
O773   O     0.27749   0.56148   0.09963   0.00000  Uiso   1.00
O774   O     0.22250   0.56148   0.90037   0.00000  Uiso   1.00
O775   O     0.43852   0.77750   0.09963   0.00000  Uiso   1.00
O776   O     0.25000   0.53036   0.66317   0.00000  Uiso   1.00
O777   O     0.43852   0.72251   0.90037   0.00000  Uiso   1.00
O778   O     0.47250   0.81148   0.59963   0.00000  Uiso   1.00
O779   O     0.02749   0.81148   0.40037   0.00000  Uiso   1.00
O780   O     0.18852   0.97251   0.59963   0.00000  Uiso   1.00
O781   O     0.18852   0.52750   0.40037   0.00000  Uiso   1.00
O782   O     0.02749   0.68852   0.59963   0.00000  Uiso   1.00
O783   O     0.47250   0.68852   0.40037   0.00000  Uiso   1.00
O784   O     0.31148   0.52750   0.59963   0.00000  Uiso   1.00
O785   O     0.31148   0.97251   0.40037   0.00000  Uiso   1.00
O786   O     0.03036   0.75000   0.33683   0.00000  Uiso   1.00
O787   O     0.46964   0.75000   0.66317   0.00000  Uiso   1.00
O788   O     0.25000   0.53036   0.33683   0.00000  Uiso   1.00
Zn789  Zn    0.20660   0.50000   0.21760   0.00000  Uiso   1.00
Zn790  Zn    0.04340   0.75000   0.28240   0.00000  Uiso   1.00
Zn791  Zn    0.25000   0.95660   0.71760   0.00000  Uiso   1.00
Zn792  Zn    0.25000   0.54340   0.28240   0.00000  Uiso   1.00
Zn793  Zn    0.04340   0.75000   0.71760   0.00000  Uiso   1.00
Zn794  Zn    0.45660   0.75000   0.28240   0.00000  Uiso   1.00
Zn795  Zn    0.25000   0.54340   0.71760   0.00000  Uiso   1.00
Zn796  Zn    0.25000   0.95660   0.28240   0.00000  Uiso   1.00
Zn797  Zn    0.29340   0.50000   0.78240   0.00000  Uiso   1.00
Zn798  Zn    0.00000   0.70660   0.21760   0.00000  Uiso   1.00
Zn799  Zn   -0.00000   0.79340   0.78240   0.00000  Uiso   1.00
Zn800  Zn    0.29340   0.50000   0.21760   0.00000  Uiso   1.00
Zn801  Zn    0.20660   0.50000   0.78240   0.00000  Uiso   1.00
Zn802  Zn   -0.00000   0.79340   0.21760   0.00000  Uiso   1.00
Zn803  Zn    0.00000   0.70660   0.78240   0.00000  Uiso   1.00
Zn804  Zn    0.45660   0.75000   0.71760   0.00000  Uiso   1.00
C805   C     0.73606   0.97013   0.04156   0.00000  Uiso   1.00
C806   C     0.51394   0.77987   0.45844   0.00000  Uiso   1.00
C807   C     0.84814   0.90185   0.75000   0.00000  Uiso   1.00
C808   C     0.90186   0.65185   0.25000   0.00000  Uiso   1.00
C809   C     0.59815   0.84814   0.75000   0.00000  Uiso   1.00
C810   C     0.84815   0.90186   0.25000   0.00000  Uiso   1.00
C811   C     0.65186   0.59815   0.75000   0.00000  Uiso   1.00
C812   C     0.59814   0.65185   0.75000   0.00000  Uiso   1.00
C813   C     0.90185   0.84814   0.25000   0.00000  Uiso   1.00
C814   C     0.65185   0.90186   0.75000   0.00000  Uiso   1.00
C815   C     0.84814   0.59815   0.25000   0.00000  Uiso   1.00
C816   C     0.90186   0.84815   0.75000   0.00000  Uiso   1.00
C817   C     0.72013   0.98606   0.54156   0.00000  Uiso   1.00
C818   C     0.59815   0.65186   0.25000   0.00000  Uiso   1.00
C819   C     0.84815   0.59814   0.75000   0.00000  Uiso   1.00
C820   C     0.65186   0.90185   0.25000   0.00000  Uiso   1.00
C821   C     0.75000   0.50000   0.10260   0.00000  Uiso   1.00
C822   C     0.75000   0.50000   0.89740   0.00000  Uiso   1.00
C823   C     0.50000   0.75000   0.10260   0.00000  Uiso   1.00
C824   C     0.50000   0.75000   0.89740   0.00000  Uiso   1.00
C825   C     0.50000   0.75000   0.60260   0.00000  Uiso   1.00
C826   C     0.50000   0.75000   0.39740   0.00000  Uiso   1.00
C827   C     0.75000   0.50000   0.60260   0.00000  Uiso   1.00
C828   C     0.72013   0.51394   0.45844   0.00000  Uiso   1.00
C829   C     0.75000   0.50000   0.39740   0.00000  Uiso   1.00
C830   C     0.51394   0.72013   0.54156   0.00000  Uiso   1.00
C831   C     0.98606   0.72013   0.45844   0.00000  Uiso   1.00
C832   C     0.77987   0.51394   0.54156   0.00000  Uiso   1.00
C833   C     0.77987   0.98606   0.45844   0.00000  Uiso   1.00
C834   C     0.73602   0.96953   0.08196   0.00000  Uiso   1.00
C835   C     0.76398   0.96953   0.91804   0.00000  Uiso   1.00
C836   C     0.53047   0.73602   0.08196   0.00000  Uiso   1.00
C837   C     0.76394   0.97013   0.95844   0.00000  Uiso   1.00
C838   C     0.53047   0.76398   0.91804   0.00000  Uiso   1.00
C839   C     0.76398   0.53047   0.08196   0.00000  Uiso   1.00
C840   C     0.73602   0.53047   0.91804   0.00000  Uiso   1.00
C841   C     0.96953   0.76398   0.08196   0.00000  Uiso   1.00
C842   C     0.96953   0.73602   0.91804   0.00000  Uiso   1.00
C843   C     0.98602   0.78047   0.58196   0.00000  Uiso   1.00
C844   C     0.51398   0.78047   0.41804   0.00000  Uiso   1.00
C845   C     0.71953   0.98602   0.58196   0.00000  Uiso   1.00
C846   C     0.71953   0.51398   0.41804   0.00000  Uiso   1.00
C847   C     0.51398   0.71953   0.58196   0.00000  Uiso   1.00
C848   C     0.52987   0.73606   0.04156   0.00000  Uiso   1.00
C849   C     0.98602   0.71953   0.41804   0.00000  Uiso   1.00
C850   C     0.78047   0.51398   0.58196   0.00000  Uiso   1.00
C851   C     0.78047   0.98602   0.41804   0.00000  Uiso   1.00
C852   C     0.75000   0.50000   0.02128   0.00000  Uiso   1.00
C853   C     0.75000   0.50000   0.97872   0.00000  Uiso   1.00
C854   C     0.50000   0.75000   0.02128   0.00000  Uiso   1.00
C855   C     0.50000   0.75000   0.97872   0.00000  Uiso   1.00
C856   C     0.50000   0.75000   0.52128   0.00000  Uiso   1.00
C857   C     0.50000   0.75000   0.47872   0.00000  Uiso   1.00
C858   C     0.75000   0.50000   0.52128   0.00000  Uiso   1.00
C859   C     0.52987   0.76394   0.95844   0.00000  Uiso   1.00
C860   C     0.75000   0.50000   0.47872   0.00000  Uiso   1.00
C861   C     0.75000   0.50000   0.35506   0.00000  Uiso   1.00
C862   C     0.75000   0.50000   0.64494   0.00000  Uiso   1.00
C863   C     0.50000   0.75000   0.35506   0.00000  Uiso   1.00
C864   C     0.50000   0.75000   0.64494   0.00000  Uiso   1.00
C865   C     0.50000   0.75000   0.85506   0.00000  Uiso   1.00
C866   C     0.50000   0.75000   0.14494   0.00000  Uiso   1.00
C867   C     0.75000   0.50000   0.85506   0.00000  Uiso   1.00
C868   C     0.75000   0.50000   0.14494   0.00000  Uiso   1.00
C869   C     0.67992   0.57008   0.25000   0.00000  Uiso   1.00
C870   C     0.76394   0.52987   0.04156   0.00000  Uiso   1.00
C871   C     0.82008   0.92992   0.75000   0.00000  Uiso   1.00
C872   C     0.92992   0.67992   0.25000   0.00000  Uiso   1.00
C873   C     0.57008   0.82008   0.75000   0.00000  Uiso   1.00
C874   C     0.82008   0.92992   0.25000   0.00000  Uiso   1.00
C875   C     0.67992   0.57008   0.75000   0.00000  Uiso   1.00
C876   C     0.57008   0.82008   0.25000   0.00000  Uiso   1.00
C877   C     0.92992   0.67992   0.75000   0.00000  Uiso   1.00
C878   C     0.67992   0.92992   0.75000   0.00000  Uiso   1.00
C879   C     0.82008   0.57008   0.25000   0.00000  Uiso   1.00
C880   C     0.92992   0.82008   0.75000   0.00000  Uiso   1.00
C881   C     0.73606   0.52987   0.95844   0.00000  Uiso   1.00
C882   C     0.57008   0.67992   0.25000   0.00000  Uiso   1.00
C883   C     0.82008   0.57008   0.75000   0.00000  Uiso   1.00
C884   C     0.67992   0.92992   0.25000   0.00000  Uiso   1.00
C885   C     0.57008   0.67992   0.75000   0.00000  Uiso   1.00
C886   C     0.92992   0.82008   0.25000   0.00000  Uiso   1.00
C887   C     0.62188   0.90483   0.22499   0.00000  Uiso   1.00
C888   C     0.87812   0.59517   0.77501   0.00000  Uiso   1.00
C889   C     0.59517   0.62188   0.22499   0.00000  Uiso   1.00
C890   C     0.90483   0.87812   0.77501   0.00000  Uiso   1.00
C891   C     0.87812   0.59517   0.22499   0.00000  Uiso   1.00
C892   C     0.97013   0.76394   0.04156   0.00000  Uiso   1.00
C893   C     0.62188   0.90483   0.77501   0.00000  Uiso   1.00
C894   C     0.90483   0.87812   0.22499   0.00000  Uiso   1.00
C895   C     0.59517   0.62188   0.77501   0.00000  Uiso   1.00
C896   C     0.62188   0.59517   0.77501   0.00000  Uiso   1.00
C897   C     0.87812   0.90483   0.22499   0.00000  Uiso   1.00
C898   C     0.59517   0.87812   0.77501   0.00000  Uiso   1.00
C899   C     0.90483   0.62188   0.22499   0.00000  Uiso   1.00
C900   C     0.87812   0.90483   0.77501   0.00000  Uiso   1.00
C901   C     0.62188   0.59517   0.22499   0.00000  Uiso   1.00
C902   C     0.90483   0.62188   0.77501   0.00000  Uiso   1.00
C903   C     0.97013   0.73606   0.95844   0.00000  Uiso   1.00
C904   C     0.59517   0.87812   0.22499   0.00000  Uiso   1.00
C905   C     0.87188   0.65483   0.72499   0.00000  Uiso   1.00
C906   C     0.62812   0.84517   0.27501   0.00000  Uiso   1.00
C907   C     0.84517   0.87188   0.72499   0.00000  Uiso   1.00
C908   C     0.65483   0.62812   0.27501   0.00000  Uiso   1.00
C909   C     0.62812   0.84517   0.72499   0.00000  Uiso   1.00
C910   C     0.87188   0.65483   0.27501   0.00000  Uiso   1.00
C911   C     0.65483   0.62812   0.72499   0.00000  Uiso   1.00
C912   C     0.84517   0.87188   0.27501   0.00000  Uiso   1.00
C913   C     0.87188   0.84517   0.27501   0.00000  Uiso   1.00
C914   C     0.98606   0.77987   0.54156   0.00000  Uiso   1.00
C915   C     0.62812   0.65483   0.72499   0.00000  Uiso   1.00
C916   C     0.84517   0.62812   0.27501   0.00000  Uiso   1.00
C917   C     0.65483   0.87188   0.72499   0.00000  Uiso   1.00
C918   C     0.62812   0.65483   0.27501   0.00000  Uiso   1.00
C919   C     0.87188   0.84517   0.72499   0.00000  Uiso   1.00
C920   C     0.65483   0.87188   0.27501   0.00000  Uiso   1.00
C921   C     0.84517   0.62812   0.72499   0.00000  Uiso   1.00
C922   C     0.59814   0.84815   0.25000   0.00000  Uiso   1.00
C923   C     0.90185   0.65186   0.75000   0.00000  Uiso   1.00
C924   C     0.65185   0.59814   0.25000   0.00000  Uiso   1.00
H925   H     0.61904   0.92775   0.20542   0.00000  Uiso   1.00
H926   H     0.88097   0.92776   0.20543   0.00000  Uiso   1.00
H927   H     0.57225   0.88096   0.79458   0.00000  Uiso   1.00
H928   H     0.92776   0.61903   0.20543   0.00000  Uiso   1.00
H929   H     0.88096   0.92775   0.79458   0.00000  Uiso   1.00
H930   H     0.61903   0.57224   0.20543   0.00000  Uiso   1.00
H931   H     0.92775   0.61904   0.79458   0.00000  Uiso   1.00
H932   H     0.57224   0.88097   0.20543   0.00000  Uiso   1.00
H933   H     0.86903   0.67776   0.70543   0.00000  Uiso   1.00
H934   H     0.63096   0.82225   0.29458   0.00000  Uiso   1.00
H935   H     0.82224   0.86903   0.70543   0.00000  Uiso   1.00
H936   H     0.88097   0.57224   0.79457   0.00000  Uiso   1.00
H937   H     0.67775   0.63096   0.29458   0.00000  Uiso   1.00
H938   H     0.63097   0.82224   0.70543   0.00000  Uiso   1.00
H939   H     0.86904   0.67775   0.29458   0.00000  Uiso   1.00
H940   H     0.67776   0.63097   0.70543   0.00000  Uiso   1.00
H941   H     0.82225   0.86904   0.29458   0.00000  Uiso   1.00
H942   H     0.86903   0.82224   0.29457   0.00000  Uiso   1.00
H943   H     0.63096   0.67775   0.70542   0.00000  Uiso   1.00
H944   H     0.82224   0.63097   0.29457   0.00000  Uiso   1.00
H945   H     0.67775   0.86904   0.70542   0.00000  Uiso   1.00
H946   H     0.63097   0.67776   0.29457   0.00000  Uiso   1.00
H947   H     0.57225   0.61904   0.20542   0.00000  Uiso   1.00
H948   H     0.86904   0.82225   0.70542   0.00000  Uiso   1.00
H949   H     0.67776   0.86903   0.29457   0.00000  Uiso   1.00
H950   H     0.82225   0.63096   0.70542   0.00000  Uiso   1.00
H951   H     0.72510   0.94700   0.02586   0.00000  Uiso   1.00
H952   H     0.77490   0.94700   0.97414   0.00000  Uiso   1.00
H953   H     0.55300   0.72510   0.02586   0.00000  Uiso   1.00
H954   H     0.55300   0.77490   0.97414   0.00000  Uiso   1.00
H955   H     0.77490   0.55300   0.02586   0.00000  Uiso   1.00
H956   H     0.72510   0.55300   0.97414   0.00000  Uiso   1.00
H957   H     0.94700   0.77490   0.02586   0.00000  Uiso   1.00
H958   H     0.92776   0.88097   0.79457   0.00000  Uiso   1.00
H959   H     0.94700   0.72510   0.97414   0.00000  Uiso   1.00
H960   H     0.97510   0.80300   0.52586   0.00000  Uiso   1.00
H961   H     0.52490   0.80300   0.47414   0.00000  Uiso   1.00
H962   H     0.69700   0.97510   0.52586   0.00000  Uiso   1.00
H963   H     0.69700   0.52490   0.47414   0.00000  Uiso   1.00
H964   H     0.52490   0.69700   0.52586   0.00000  Uiso   1.00
H965   H     0.97510   0.69700   0.47414   0.00000  Uiso   1.00
H966   H     0.80300   0.52490   0.52586   0.00000  Uiso   1.00
H967   H     0.80300   0.97510   0.47414   0.00000  Uiso   1.00
H968   H     0.72783   0.93891   0.12774   0.00000  Uiso   1.00
H969   H     0.88096   0.57225   0.20542   0.00000  Uiso   1.00
H970   H     0.77217   0.93891   0.87226   0.00000  Uiso   1.00
H971   H     0.56109   0.72783   0.12774   0.00000  Uiso   1.00
H972   H     0.56109   0.77217   0.87226   0.00000  Uiso   1.00
H973   H     0.77217   0.56109   0.12774   0.00000  Uiso   1.00
H974   H     0.72783   0.56109   0.87226   0.00000  Uiso   1.00
H975   H     0.93891   0.77217   0.12774   0.00000  Uiso   1.00
H976   H     0.93891   0.72783   0.87226   0.00000  Uiso   1.00
H977   H     0.97783   0.81109   0.62774   0.00000  Uiso   1.00
H978   H     0.52217   0.81109   0.37226   0.00000  Uiso   1.00
H979   H     0.68891   0.97783   0.62774   0.00000  Uiso   1.00
H980   H     0.61903   0.92776   0.79457   0.00000  Uiso   1.00
H981   H     0.68891   0.52217   0.37226   0.00000  Uiso   1.00
H982   H     0.52217   0.68891   0.62774   0.00000  Uiso   1.00
H983   H     0.97783   0.68891   0.37226   0.00000  Uiso   1.00
H984   H     0.81109   0.52217   0.62774   0.00000  Uiso   1.00
H985   H     0.81109   0.97783   0.37226   0.00000  Uiso   1.00
H986   H     0.92775   0.88096   0.20542   0.00000  Uiso   1.00
H987   H     0.57224   0.61903   0.79457   0.00000  Uiso   1.00
H988   H     0.61904   0.57225   0.79458   0.00000  Uiso   1.00
O989   O     0.75000   0.50000   0.25000   0.00000  Uiso   1.00
O990   O     0.75000   0.96964   0.66317   0.00000  Uiso   1.00
O991   O     0.96964   0.75000   0.33683   0.00000  Uiso   1.00
O992   O     0.53036   0.75000   0.66317   0.00000  Uiso   1.00
O993   O     0.50000   0.71964   0.83683   0.00000  Uiso   1.00
O994   O     0.50000   0.78036   0.16317   0.00000  Uiso   1.00
O995   O     0.78036   0.50000   0.83683   0.00000  Uiso   1.00
O996   O     0.71964   0.50000   0.16317   0.00000  Uiso   1.00
O997   O     0.50000   0.78036   0.83683   0.00000  Uiso   1.00
O998   O     0.50000   0.71964   0.16317   0.00000  Uiso   1.00
O999   O     0.71964   0.50000   0.83683   0.00000  Uiso   1.00
O1000  O     0.75000   0.50000   0.75000   0.00000  Uiso   1.00
O1001  O     0.78036   0.50000   0.16317   0.00000  Uiso   1.00
O1002  O     0.70725   0.57307   0.27282   0.00000  Uiso   1.00
O1003  O     0.79274   0.92693   0.72718   0.00000  Uiso   1.00
O1004  O     0.92693   0.70726   0.27282   0.00000  Uiso   1.00
O1005  O     0.57307   0.79275   0.72718   0.00000  Uiso   1.00
O1006  O     0.79274   0.92693   0.27282   0.00000  Uiso   1.00
O1007  O     0.70725   0.57307   0.72718   0.00000  Uiso   1.00
O1008  O     0.57307   0.79275   0.27282   0.00000  Uiso   1.00
O1009  O     0.92693   0.70726   0.72718   0.00000  Uiso   1.00
O1010  O     0.70725   0.92693   0.72718   0.00000  Uiso   1.00
O1011  O     0.50000   0.75000   0.25000   0.00000  Uiso   1.00
O1012  O     0.79274   0.57307   0.27282   0.00000  Uiso   1.00
O1013  O     0.92693   0.79275   0.72718   0.00000  Uiso   1.00
O1014  O     0.57307   0.70726   0.27282   0.00000  Uiso   1.00
O1015  O     0.79274   0.57307   0.72718   0.00000  Uiso   1.00
O1016  O     0.70725   0.92693   0.27282   0.00000  Uiso   1.00
O1017  O     0.57307   0.70726   0.72718   0.00000  Uiso   1.00
O1018  O     0.92693   0.79275   0.27282   0.00000  Uiso   1.00
O1019  O     0.95725   0.82307   0.77282   0.00000  Uiso   1.00
O1020  O     0.54274   0.67693   0.22718   0.00000  Uiso   1.00
O1021  O     0.67693   0.95726   0.77282   0.00000  Uiso   1.00
O1022  O     0.50000   0.75000   0.75000   0.00000  Uiso   1.00
O1023  O     0.82307   0.54275   0.22718   0.00000  Uiso   1.00
O1024  O     0.54274   0.67693   0.77282   0.00000  Uiso   1.00
O1025  O     0.95725   0.82307   0.22718   0.00000  Uiso   1.00
O1026  O     0.82307   0.54275   0.77282   0.00000  Uiso   1.00
O1027  O     0.67693   0.95726   0.22718   0.00000  Uiso   1.00
O1028  O     0.95725   0.67693   0.22718   0.00000  Uiso   1.00
O1029  O     0.54274   0.82307   0.77282   0.00000  Uiso   1.00
O1030  O     0.67693   0.54275   0.22718   0.00000  Uiso   1.00
O1031  O     0.82307   0.95726   0.77282   0.00000  Uiso   1.00
O1032  O     0.54274   0.82307   0.22718   0.00000  Uiso   1.00
O1033  O     0.75000   0.96964   0.33683   0.00000  Uiso   1.00
O1034  O     0.95725   0.67693   0.77282   0.00000  Uiso   1.00
O1035  O     0.82307   0.95726   0.22718   0.00000  Uiso   1.00
O1036  O     0.67693   0.54275   0.77282   0.00000  Uiso   1.00
O1037  O     0.72250   0.93852   0.09963   0.00000  Uiso   1.00
O1038  O     0.77749   0.93852   0.90037   0.00000  Uiso   1.00
O1039  O     0.56148   0.72251   0.09963   0.00000  Uiso   1.00
O1040  O     0.56148   0.77750   0.90037   0.00000  Uiso   1.00
O1041  O     0.77749   0.56148   0.09963   0.00000  Uiso   1.00
O1042  O     0.72250   0.56148   0.90037   0.00000  Uiso   1.00
O1043  O     0.93852   0.77750   0.09963   0.00000  Uiso   1.00
O1044  O     0.75000   0.53036   0.66317   0.00000  Uiso   1.00
O1045  O     0.93852   0.72251   0.90037   0.00000  Uiso   1.00
O1046  O     0.97250   0.81148   0.59963   0.00000  Uiso   1.00
O1047  O     0.52749   0.81148   0.40037   0.00000  Uiso   1.00
O1048  O     0.68852   0.97251   0.59963   0.00000  Uiso   1.00
O1049  O     0.68852   0.52750   0.40037   0.00000  Uiso   1.00
O1050  O     0.52749   0.68852   0.59963   0.00000  Uiso   1.00
O1051  O     0.97250   0.68852   0.40037   0.00000  Uiso   1.00
O1052  O     0.81148   0.52750   0.59963   0.00000  Uiso   1.00
O1053  O     0.81148   0.97251   0.40037   0.00000  Uiso   1.00
O1054  O     0.53036   0.75000   0.33683   0.00000  Uiso   1.00
O1055  O     0.96964   0.75000   0.66317   0.00000  Uiso   1.00
O1056  O     0.75000   0.53036   0.33683   0.00000  Uiso   1.00
Zn1057 Zn    0.70660   0.50000   0.21760   0.00000  Uiso   1.00
Zn1058 Zn    0.54340   0.75000   0.28240   0.00000  Uiso   1.00
Zn1059 Zn    0.75000   0.95660   0.71760   0.00000  Uiso   1.00
Zn1060 Zn    0.75000   0.54340   0.28240   0.00000  Uiso   1.00
Zn1061 Zn    0.54340   0.75000   0.71760   0.00000  Uiso   1.00
Zn1062 Zn    0.95660   0.75000   0.28240   0.00000  Uiso   1.00
Zn1063 Zn    0.75000   0.54340   0.71760   0.00000  Uiso   1.00
Zn1064 Zn    0.75000   0.95660   0.28240   0.00000  Uiso   1.00
Zn1065 Zn    0.79340   0.50000   0.78240   0.00000  Uiso   1.00
Zn1066 Zn    0.50000   0.70660   0.21760   0.00000  Uiso   1.00
Zn1067 Zn    0.50000   0.79340   0.78240   0.00000  Uiso   1.00
Zn1068 Zn    0.79340   0.50000   0.21760   0.00000  Uiso   1.00
Zn1069 Zn    0.70660   0.50000   0.78240   0.00000  Uiso   1.00
Zn1070 Zn    0.50000   0.79340   0.21760   0.00000  Uiso   1.00
Zn1071 Zn    0.50000   0.70660   0.78240   0.00000  Uiso   1.00
Zn1072 Zn    0.95660   0.75000   0.71760   0.00000  Uiso   1.00
loop_
_geom_bond_atom_site_label_1
_geom_bond_atom_site_label_2
_geom_bond_distance
_geom_bond_site_symmetry_2
_ccdc_geom_bond_type
C1     H147    1.084   .     S
C1     C30     1.392   .     A
C1     C584    1.397   .     S
C2     H157    1.084   .     S
C2     C40     1.392   .     A
C2     C53     1.397   .     S
C3     C96     1.402   .     A
C3     C103    1.402   .     A
C3     C67     1.457   .     S
C4     C68     1.457   .     S
C4     C106    1.402   .     A
C4     C95     1.402   .     A
C5     C94     1.402   .     A
C5     C105    1.402   .     A
C5     C69     1.457   .     S
C6     C93     1.402   .     A
C6     C70     1.457   .     S
C6     C108    1.402   .     A
C7     C71     1.457   .     S
C7     C92     1.402   .     A
C7     C107    1.402   .     A
C8     C81     1.457   .     S
C8     C111    1.402   .     A
C8     C91     1.402   .     A
C9     C109    1.402   .     A
C9     C90     1.402   .     A
C9     C82     1.457   .     S
C10    C89     1.402   .     A
C10    C74     1.457   .     S
C10    C113    1.402   .     A
C11    C112    1.402   .     A
C11    C87     1.402   .     A
C11    C75     1.457   .     S
C12    C115    1.402   .     A
C12    C76     1.457   .     S
C12    C86     1.402   .     A
C13    C41     1.392   .     A
C13    H158    1.084   .     S
C13    C590    1.397   .     S
C14    C114    1.402   .     A
C14    C85     1.402   .     A
C14    C78     1.457   .     S
C15    C79     1.457   .     S
C15    C117    1.402   .     A
C15    C84     1.402   .     A
C16    C116    1.402   .     A
C16    C83     1.402   .     A
C16    C80     1.457   .     S
C17    C64     1.459   .     S
C17    C35     1.421   .     A
C17    C566    1.421   1_545 S
C18    C36     1.421   .     A
C18    C567    1.421   1_545 S
C18    C63     1.459   .     S
C19    C32     1.421   .     A
C19    C62     1.459   .     S
C19    C305    1.421   1_455 S
C20    C61     1.459   .     S
C20    C34     1.421   .     A
C20    C306    1.421   1_455 S
C21    C60     1.459   .     S
C21    C43     1.421   .     A
C21    C307    1.421   1_455 S
C22    C40     1.421   .     A
C22    C59     1.459   .     S
C22    C313    1.421   1_455 S
C23    C46     1.421   .     A
C23    C58     1.459   .     S
C23    C577    1.421   1_545 S
C24    C42     1.392   .     A
C24    H159    1.084   .     S
C24    C56     1.397   .     A
C25    C583    1.421   1_545 A
C25    C42     1.421   .     S
C25    C57     1.459   .     S
C26    C52     1.397   .     A
C26    C43     1.392   .     A
C26    H160    1.084   .     S
C27    C45     1.392   .     A
C27    C321    1.397   .     A
C27    H161    1.084   .     S
C28    C46     1.392   .     A
C28    H162    1.084   .     S
C28    C54     1.397   .     A
C29    C47     1.392   .     A
C29    H163    1.084   .     S
C29    C592    1.397   .     S
C30    O233    1.383   .     S
C30    C553    1.421   .     S
C31    C33     1.392   .     A
C31    O234    1.383   .     S
C31    C554    1.421   .     S
C32    C44     1.392   .     A
C32    O235    1.383   .     S
C33    H148    1.084   .     S
C33    C585    1.397   .     S
C34    O236    1.383   .     S
C34    C55     1.392   .     A
C35    O237    1.383   .     S
C35    C66     1.392   .     A
C36    C77     1.392   .     A
C36    O238    1.383   .     S
C37    C88     1.392   .     A
C37    O239    1.383   .     S
C37    C287    1.421   .     S
C38    C99     1.392   .     A
C38    O241    1.383   .     S
C38    C288    1.421   .     S
C39    C110    1.392   .     A
C39    O242    1.383   .     S
C39    C289    1.421   .     S
C40    O243    1.383   .     S
C41    O244    1.383   .     S
C41    C559    1.421   .     S
C42    O245    1.383   .     S
C43    O246    1.383   .     S
C44    C50     1.397   .     A
C44    H149    1.084   .     S
C45    O247    1.383   .     S
C45    C290    1.421   .     S
C46    O248    1.383   .     S
C47    C561    1.421   .     A
C47    O249    1.383   .     S
C48    C66     1.397   .     A
C48    C537    1.397   1_545 S
C48    C49     1.467   1_554 S
C49    C77     1.397   .     A
C49    C48     1.467   1_556 S
C49    C569    1.397   1_545 S
C50    C51     1.467   1_554 S
C50    C356    1.397   1_455 S
C51    C367    1.397   1_455 A
C51    C50     1.467   1_556 S
C51    C55     1.397   .     S
C52    C53     1.467   .     S
C52    C378    1.397   1_455 S
C53    C295    1.397   1_455 A
C54    C56     1.467   .     S
C54    C549    1.397   1_545 S
C55    H150    1.084   .     S
C56    C565    1.397   1_545 S
C57    O252    1.279   .     A
C57    O765    1.279   1_545 S
C58    O240    1.279   .     A
C58    O722    1.279   1_545 S
C59    O250    1.279   .     A
C59    O455    1.279   1_455 S
C60    O188    1.279   .     A
C60    O519    1.279   1_455 S
C61    O189    1.279   .     S
C61    O193    1.279   .     S
C62    O190    1.279   .     A
C62    O194    1.279   .     S
C63    O191    1.279   .     S
C63    O195    1.279   .     S
C64    O192    1.279   .     A
C64    O197    1.279   .     A
C65    C120    1.457   .     S
C65    O226    1.280   .     A
C65    O198    1.280   .     A
C66    H151    1.084   .     S
C67    O227    1.280   .     A
C67    O199    1.280   .     A
C68    O224    1.280   .     A
C68    O200    1.280   .     A
C69    O201    1.280   .     A
C69    O225    1.280   .     A
C70    O231    1.280   .     A
C70    O202    1.280   .     A
C71    O232    1.280   .     A
C71    O203    1.280   .     A
C72    O204    1.280   .     A
C72    O228    1.280   .     A
C72    C118    1.457   .     S
C73    C119    1.457   .     S
C73    O230    1.280   .     A
C73    O205    1.280   .     A
C74    O206    1.280   .     A
C74    O217    1.280   .     A
C75    O208    1.280   .     A
C75    O219    1.280   .     A
C76    O215    1.280   .     A
C76    O209    1.280   .     A
C77    H152    1.084   .     S
C78    O210    1.280   .     A
C78    O216    1.280   .     A
C79    O222    1.280   .     A
C79    O211    1.280   .     A
C80    O212    1.280   .     A
C80    O223    1.280   .     A
C81    O213    1.280   .     A
C81    O220    1.280   .     A
C82    O221    1.280   .     A
C82    O214    1.280   .     A
C83    H121    1.083   .     S
C83    C100    1.387   .     A
C84    C98     1.387   .     A
C84    H132    1.083   .     S
C85    H143    1.083   .     S
C85    C97     1.387   .     A
C86    C96     1.387   .     A
C86    H154    1.083   .     S
C87    C95     1.387   .     A
C87    H165    1.083   .     S
C88    H153    1.084   .     S
C88    C318    1.397   .     S
C89    C94     1.387   .     A
C89    H176    1.083   .     S
C90    H182    1.083   .     S
C90    C93     1.387   .     A
C91    H183    1.083   .     S
C91    C92     1.387   .     A
C92    H184    1.083   .     S
C93    H122    1.083   .     S
C94    H123    1.083   .     S
C95    H124    1.083   .     S
C96    H125    1.083   .     S
C97    H126    1.083   .     S
C97    C120    1.402   .     A
C98    C119    1.402   .     A
C98    H127    1.083   .     S
C99    H155    1.084   .     S
C99    C319    1.397   .     A
C100   H128    1.083   .     S
C100   C118    1.402   .     A
C101   C119    1.402   .     A
C101   C117    1.387   .     A
C101   H129    1.083   .     S
C102   C118    1.402   .     A
C102   C116    1.387   .     A
C102   H130    1.083   .     S
C103   C115    1.387   .     A
C103   H131    1.083   .     S
C104   H133    1.083   .     S
C104   C114    1.387   .     A
C104   C120    1.402   .     A
C105   C113    1.387   .     A
C105   H134    1.083   .     S
C106   C112    1.387   .     A
C106   H135    1.083   .     S
C107   H136    1.083   .     S
C107   C111    1.387   .     A
C108   C109    1.387   .     A
C108   H137    1.083   .     S
C109   H138    1.083   .     S
C110   H156    1.084   .     S
C110   C320    1.397   .     S
C111   H139    1.083   .     S
C112   H140    1.083   .     S
C113   H141    1.083   .     S
C114   H142    1.083   .     S
C115   H144    1.083   .     S
C116   H145    1.083   .     S
C117   H146    1.083   .     S
H164   O233    0.988   .     S
H166   O234    0.988   .     S
H167   O235    0.988   .     S
H168   O236    0.988   .     S
H169   O237    0.988   .     S
H170   O238    0.988   .     S
H171   O239    0.988   .     S
H172   O241    0.988   .     S
H173   O242    0.988   .     S
H174   O243    0.988   .     S
H175   O244    0.988   .     S
H177   O245    0.988   .     S
H178   O246    0.988   .     S
H179   O247    0.988   .     S
H180   O248    0.988   .     S
H181   O249    0.988   .     S
O185   Zn256   1.945   .     S
O185   Zn253   1.945   .     S
O185   Zn796   1.945   1_545 S
O185   Zn264   1.945   .     S
O186   Zn255   1.935   .     S
O186   C594    1.279   .     S
O187   Zn258   1.935   .     S
O187   C327    1.279   .     S
O188   Zn257   1.935   .     S
O189   Zn267   1.935   .     S
O190   Zn266   1.935   .     S
O191   Zn261   1.935   .     S
O192   Zn253   1.935   .     S
O193   Zn263   1.935   .     S
O194   Zn262   1.935   .     S
O195   Zn265   1.935   .     S
O196   Zn261   1.945   .     S
O196   Zn265   1.945   .     S
O196   Zn259   1.945   .     S
O196   Zn791   1.945   1_545 S
O197   Zn264   1.935   .     S
O198   Zn256   1.938   .     S
O199   Zn255   1.938   .     S
O200   Zn258   1.938   .     S
O201   Zn257   1.938   .     S
O202   Zn260   1.938   .     S
O203   Zn259   1.938   .     S
O204   Zn254   1.938   .     S
O205   Zn268   1.938   .     S
O206   Zn255   1.938   .     S
O207   Zn266   1.945   .     S
O207   Zn526   1.945   1_455 S
O207   Zn254   1.945   .     S
O207   Zn262   1.945   .     S
O208   Zn256   1.938   .     S
O209   Zn268   1.938   .     S
O210   Zn254   1.938   .     S
O211   Zn259   1.938   .     S
O212   Zn260   1.938   .     S
O213   Zn257   1.938   .     S
O214   Zn258   1.938   .     S
O215   Zn531   1.938   .     S
O216   Zn262   1.938   .     S
O217   Zn801   1.938   .     S
O218   Zn536   1.945   1_455 S
O218   Zn263   1.945   .     S
O218   Zn257   1.945   .     S
O218   Zn267   1.945   .     S
O219   Zn264   1.938   .     S
O220   Zn267   1.938   .     S
O221   Zn534   1.938   .     S
O222   Zn261   1.938   .     S
O223   Zn789   1.938   .     S
O224   Zn530   1.938   .     S
O225   Zn263   1.938   .     S
O226   Zn253   1.938   .     S
O227   Zn797   1.938   .     S
O228   Zn266   1.938   .     S
O229   Zn260   1.935   .     S
O229   C593    1.279   .     S
O230   Zn535   1.938   .     S
O231   Zn800   1.938   .     S
O232   Zn265   1.938   .     S
O240   Zn259   1.935   .     S
O250   Zn254   1.935   .     S
O251   Zn268   1.935   .     S
O251   C328    1.279   .     S
O252   Zn256   1.935   .     S
Zn253  O759    1.938   1_545 S
Zn255  O732    1.945   .     S
Zn258  O475    1.945   .     S
Zn260  O721    1.945   .     S
Zn261  O763    1.938   1_545 S
Zn262  O492    1.938   1_455 S
Zn263  O483    1.938   1_455 S
Zn264  O767    1.938   1_545 S
Zn265  O753    1.938   1_545 S
Zn266  O489    1.938   1_455 S
Zn267  O498    1.938   1_455 S
Zn268  O486    1.945   .     S
C269   H415    1.084   .     S
C269   C298    1.392   .     A
C269   C852    1.397   .     S
C270   H425    1.084   .     S
C270   C308    1.392   .     A
C270   C321    1.397   .     S
C271   C364    1.402   .     A
C271   C371    1.402   .     A
C271   C335    1.457   .     S
C272   C336    1.457   .     S
C272   C374    1.402   .     A
C272   C363    1.402   .     A
C273   C362    1.402   .     A
C273   C373    1.402   .     A
C273   C337    1.457   .     S
C274   C361    1.402   .     A
C274   C338    1.457   .     S
C274   C376    1.402   .     A
C275   C339    1.457   .     S
C275   C360    1.402   .     A
C275   C375    1.402   .     A
C276   C349    1.457   .     S
C276   C379    1.402   .     A
C276   C359    1.402   .     A
C277   C377    1.402   .     A
C277   C358    1.402   .     A
C277   C350    1.457   .     S
C278   C357    1.402   .     A
C278   C342    1.457   .     S
C278   C381    1.402   .     A
C279   C380    1.402   .     A
C279   C355    1.402   .     A
C279   C343    1.457   .     S
C280   C383    1.402   .     A
C280   C344    1.457   .     S
C280   C354    1.402   .     A
C281   C309    1.392   .     A
C281   H426    1.084   .     S
C281   C858    1.397   .     S
C282   C382    1.402   .     A
C282   C353    1.402   .     A
C282   C346    1.457   .     S
C283   C347    1.457   .     S
C283   C385    1.402   .     A
C283   C352    1.402   .     A
C284   C384    1.402   .     A
C284   C351    1.402   .     A
C284   C348    1.457   .     S
C285   C332    1.459   .     S
C285   C303    1.421   .     A
C285   C834    1.421   1_545 S
C286   C304    1.421   .     A
C286   C835    1.421   1_545 S
C286   C331    1.459   .     S
C287   C300    1.421   .     A
C287   C330    1.459   .     S
C288   C329    1.459   .     S
C288   C302    1.421   .     A
C289   C328    1.459   .     S
C289   C311    1.421   .     A
C290   C308    1.421   .     A
C290   C327    1.459   .     S
C291   C314    1.421   .     A
C291   C326    1.459   .     S
C291   C845    1.421   1_545 S
C292   C310    1.392   .     A
C292   H427    1.084   .     S
C292   C324    1.397   .     A
C293   C851    1.421   1_545 A
C293   C310    1.421   .     S
C293   C325    1.459   .     S
C294   C320    1.397   .     A
C294   C311    1.392   .     A
C294   H428    1.084   .     S
C295   C313    1.392   .     A
C295   C53     1.397   1_655 A
C295   H429    1.084   .     S
C296   C314    1.392   .     A
C296   H430    1.084   .     S
C296   C322    1.397   .     A
C297   C315    1.392   .     A
C297   H431    1.084   .     S
C297   C860    1.397   .     S
C298   O501    1.383   .     S
C298   C821    1.421   .     S
C299   C301    1.392   .     A
C299   O502    1.383   .     S
C299   C822    1.421   .     S
C300   C312    1.392   .     A
C300   O503    1.383   .     S
C301   H416    1.084   .     S
C301   C853    1.397   .     S
C302   O504    1.383   .     S
C302   C323    1.392   .     A
C303   O505    1.383   .     S
C303   C334    1.392   .     A
C304   C345    1.392   .     A
C304   O506    1.383   .     S
C305   C356    1.392   .     A
C305   O507    1.383   .     S
C305   C19     1.421   1_655 S
C306   C367    1.392   .     A
C306   O509    1.383   .     S
C306   C20     1.421   1_655 S
C307   C378    1.392   .     A
C307   O510    1.383   .     S
C307   C21     1.421   1_655 S
C308   O511    1.383   .     S
C309   O512    1.383   .     S
C309   C827    1.421   .     S
C310   O513    1.383   .     S
C311   O514    1.383   .     S
C312   C318    1.397   .     A
C312   H417    1.084   .     S
C313   O515    1.383   .     S
C313   C22     1.421   1_655 S
C314   O516    1.383   .     S
C315   C829    1.421   .     A
C315   O517    1.383   .     S
C316   C334    1.397   .     A
C316   C805    1.397   1_545 S
C316   C317    1.467   1_554 S
C317   C345    1.397   .     A
C317   C316    1.467   1_556 S
C317   C837    1.397   1_545 S
C318   C319    1.467   1_554 S
C319   C318    1.467   1_556 S
C319   C323    1.397   .     S
C320   C321    1.467   .     S
C322   C324    1.467   .     S
C322   C817    1.397   1_545 S
C323   H418    1.084   .     S
C324   C833    1.397   1_545 S
C325   O520    1.279   .     A
C325   O1033   1.279   1_545 S
C326   O508    1.279   .     A
C326   O990    1.279   1_545 S
C327   O518    1.279   .     A
C328   O456    1.279   .     A
C329   O457    1.279   .     S
C329   O461    1.279   .     S
C330   O458    1.279   .     A
C330   O462    1.279   .     S
C331   O459    1.279   .     S
C331   O463    1.279   .     S
C332   O460    1.279   .     A
C332   O465    1.279   .     A
C333   C388    1.457   .     S
C333   O494    1.280   .     A
C333   O466    1.280   .     A
C334   H419    1.084   .     S
C335   O495    1.280   .     A
C335   O467    1.280   .     A
C336   O492    1.280   .     A
C336   O468    1.280   .     A
C337   O469    1.280   .     A
C337   O493    1.280   .     A
C338   O499    1.280   .     A
C338   O470    1.280   .     A
C339   O500    1.280   .     A
C339   O471    1.280   .     A
C340   O472    1.280   .     A
C340   O496    1.280   .     A
C340   C386    1.457   .     S
C341   C387    1.457   .     S
C341   O498    1.280   .     A
C341   O473    1.280   .     A
C342   O474    1.280   .     A
C342   O485    1.280   .     A
C343   O476    1.280   .     A
C343   O487    1.280   .     A
C344   O483    1.280   .     A
C344   O477    1.280   .     A
C345   H420    1.084   .     S
C346   O478    1.280   .     A
C346   O484    1.280   .     A
C347   O490    1.280   .     A
C347   O479    1.280   .     A
C348   O480    1.280   .     A
C348   O491    1.280   .     A
C349   O481    1.280   .     A
C349   O488    1.280   .     A
C350   O489    1.280   .     A
C350   O482    1.280   .     A
C351   H389    1.083   .     S
C351   C368    1.387   .     A
C352   C366    1.387   .     A
C352   H400    1.083   .     S
C353   H411    1.083   .     S
C353   C365    1.387   .     A
C354   C364    1.387   .     A
C354   H422    1.083   .     S
C355   C363    1.387   .     A
C355   H433    1.083   .     S
C356   H421    1.084   .     S
C356   C50     1.397   1_655 S
C357   C362    1.387   .     A
C357   H444    1.083   .     S
C358   H450    1.083   .     S
C358   C361    1.387   .     A
C359   H451    1.083   .     S
C359   C360    1.387   .     A
C360   H452    1.083   .     S
C361   H390    1.083   .     S
C362   H391    1.083   .     S
C363   H392    1.083   .     S
C364   H393    1.083   .     S
C365   H394    1.083   .     S
C365   C388    1.402   .     A
C366   C387    1.402   .     A
C366   H395    1.083   .     S
C367   H423    1.084   .     S
C367   C51     1.397   1_655 A
C368   H396    1.083   .     S
C368   C386    1.402   .     A
C369   C387    1.402   .     A
C369   C385    1.387   .     A
C369   H397    1.083   .     S
C370   C386    1.402   .     A
C370   C384    1.387   .     A
C370   H398    1.083   .     S
C371   C383    1.387   .     A
C371   H399    1.083   .     S
C372   H401    1.083   .     S
C372   C382    1.387   .     A
C372   C388    1.402   .     A
C373   C381    1.387   .     A
C373   H402    1.083   .     S
C374   C380    1.387   .     A
C374   H403    1.083   .     S
C375   H404    1.083   .     S
C375   C379    1.387   .     A
C376   C377    1.387   .     A
C376   H405    1.083   .     S
C377   H406    1.083   .     S
C378   H424    1.084   .     S
C378   C52     1.397   1_655 S
C379   H407    1.083   .     S
C380   H408    1.083   .     S
C381   H409    1.083   .     S
C382   H410    1.083   .     S
C383   H412    1.083   .     S
C384   H413    1.083   .     S
C385   H414    1.083   .     S
H432   O501    0.988   .     S
H434   O502    0.988   .     S
H435   O503    0.988   .     S
H436   O504    0.988   .     S
H437   O505    0.988   .     S
H438   O506    0.988   .     S
H439   O507    0.988   .     S
H440   O509    0.988   .     S
H441   O510    0.988   .     S
H442   O511    0.988   .     S
H443   O512    0.988   .     S
H445   O513    0.988   .     S
H446   O514    0.988   .     S
H447   O515    0.988   .     S
H448   O516    0.988   .     S
H449   O517    0.988   .     S
O453   Zn524   1.945   .     S
O453   Zn521   1.945   .     S
O453   Zn1064  1.945   1_545 S
O453   Zn532   1.945   .     S
O454   Zn523   1.935   .     S
O454   C862    1.279   .     S
O455   Zn526   1.935   .     S
O455   C59     1.279   1_655 S
O456   Zn525   1.935   .     S
O457   Zn535   1.935   .     S
O458   Zn534   1.935   .     S
O459   Zn529   1.935   .     S
O460   Zn521   1.935   .     S
O461   Zn531   1.935   .     S
O462   Zn530   1.935   .     S
O463   Zn533   1.935   .     S
O464   Zn529   1.945   .     S
O464   Zn533   1.945   .     S
O464   Zn527   1.945   .     S
O464   Zn1059  1.945   1_545 S
O465   Zn532   1.935   .     S
O466   Zn524   1.938   .     S
O467   Zn523   1.938   .     S
O468   Zn526   1.938   .     S
O469   Zn525   1.938   .     S
O470   Zn528   1.938   .     S
O471   Zn527   1.938   .     S
O472   Zn522   1.938   .     S
O473   Zn536   1.938   .     S
O474   Zn523   1.938   .     S
O475   Zn534   1.945   .     S
O475   Zn522   1.945   .     S
O475   Zn530   1.945   .     S
O476   Zn524   1.938   .     S
O477   Zn536   1.938   .     S
O478   Zn522   1.938   .     S
O479   Zn527   1.938   .     S
O480   Zn528   1.938   .     S
O481   Zn525   1.938   .     S
O482   Zn526   1.938   .     S
O483   Zn263   1.938   1_655 S
O484   Zn530   1.938   .     S
O485   Zn1069  1.938   .     S
O486   Zn531   1.945   .     S
O486   Zn525   1.945   .     S
O486   Zn535   1.945   .     S
O487   Zn532   1.938   .     S
O488   Zn535   1.938   .     S
O489   Zn266   1.938   1_655 S
O490   Zn529   1.938   .     S
O491   Zn1057  1.938   .     S
O492   Zn262   1.938   1_655 S
O493   Zn531   1.938   .     S
O494   Zn521   1.938   .     S
O495   Zn1065  1.938   .     S
O496   Zn534   1.938   .     S
O497   Zn528   1.935   .     S
O497   C861    1.279   .     S
O498   Zn267   1.938   1_655 S
O499   Zn1068  1.938   .     S
O500   Zn533   1.938   .     S
O508   Zn527   1.935   .     S
O518   Zn522   1.935   .     S
O519   Zn536   1.935   .     S
O519   C60     1.279   1_655 S
O520   Zn524   1.935   .     S
Zn521  O1027   1.938   1_545 S
Zn523  O1000   1.945   .     S
Zn526  O207    1.945   1_655 S
Zn528  O989    1.945   .     S
Zn529  O1031   1.938   1_545 S
Zn532  O1035   1.938   1_545 S
Zn533  O1021   1.938   1_545 S
Zn536  O218    1.945   1_655 S
C537   H683    1.084   .     S
C537   C566    1.392   .     A
C537   C48     1.397   1_565 S
C538   H693    1.084   .     S
C538   C576    1.392   .     A
C538   C589    1.397   .     S
C539   C632    1.402   .     A
C539   C639    1.402   .     A
C539   C603    1.457   .     S
C540   C604    1.457   .     S
C540   C642    1.402   .     A
C540   C631    1.402   .     A
C541   C630    1.402   .     A
C541   C641    1.402   .     A
C541   C605    1.457   .     S
C542   C629    1.402   .     A
C542   C606    1.457   .     S
C542   C644    1.402   .     A
C543   C607    1.457   .     S
C543   C628    1.402   .     A
C543   C643    1.402   .     A
C544   C617    1.457   .     S
C544   C647    1.402   .     A
C544   C627    1.402   .     A
C545   C645    1.402   .     A
C545   C626    1.402   .     A
C545   C618    1.457   .     S
C546   C625    1.402   .     A
C546   C610    1.457   .     S
C546   C649    1.402   .     A
C547   C648    1.402   .     A
C547   C623    1.402   .     A
C547   C611    1.457   .     S
C548   C651    1.402   .     A
C548   C612    1.457   .     S
C548   C622    1.402   .     A
C549   C577    1.392   .     A
C549   H694    1.084   .     S
C549   C54     1.397   1_565 S
C550   C650    1.402   .     A
C550   C621    1.402   .     A
C550   C614    1.457   .     S
C551   C615    1.457   .     S
C551   C653    1.402   .     A
C551   C620    1.402   .     A
C552   C652    1.402   .     A
C552   C619    1.402   .     A
C552   C616    1.457   .     S
C553   C600    1.459   .     S
C553   C571    1.421   .     A
C554   C572    1.421   .     A
C554   C599    1.459   .     S
C555   C568    1.421   .     A
C555   C598    1.459   .     S
C555   C841    1.421   1_455 S
C556   C597    1.459   .     S
C556   C570    1.421   .     A
C556   C842    1.421   1_455 S
C557   C596    1.459   .     S
C557   C579    1.421   .     A
C557   C843    1.421   1_455 S
C558   C576    1.421   .     A
C558   C595    1.459   .     S
C558   C849    1.421   1_455 S
C559   C582    1.421   .     A
C559   C594    1.459   .     S
C560   C578    1.392   .     A
C560   H695    1.084   .     S
C560   C592    1.397   .     A
C561   C578    1.421   .     S
C561   C593    1.459   .     S
C562   C588    1.397   .     A
C562   C579    1.392   .     A
C562   H696    1.084   .     S
C563   C581    1.392   .     A
C563   C857    1.397   .     A
C563   H697    1.084   .     S
C564   C582    1.392   .     A
C564   H698    1.084   .     S
C564   C590    1.397   .     A
C565   C583    1.392   .     A
C565   H699    1.084   .     S
C565   C56     1.397   1_565 S
C566   O769    1.383   .     S
C566   C17     1.421   1_565 S
C567   C569    1.392   .     A
C567   O770    1.383   .     S
C567   C18     1.421   1_565 S
C568   C580    1.392   .     A
C568   O771    1.383   .     S
C569   H684    1.084   .     S
C569   C49     1.397   1_565 S
C570   O772    1.383   .     S
C570   C591    1.392   .     A
C571   O773    1.383   .     S
C571   C602    1.392   .     A
C572   C613    1.392   .     A
C572   O774    1.383   .     S
C573   C624    1.392   .     A
C573   O775    1.383   .     S
C573   C823    1.421   .     S
C574   C635    1.392   .     A
C574   O777    1.383   .     S
C574   C824    1.421   .     S
C575   C646    1.392   .     A
C575   O778    1.383   .     S
C575   C825    1.421   .     S
C576   O779    1.383   .     S
C577   O780    1.383   .     S
C577   C23     1.421   1_565 S
C578   O781    1.383   .     S
C579   O782    1.383   .     S
C580   C586    1.397   .     A
C580   H685    1.084   .     S
C581   O783    1.383   .     S
C581   C826    1.421   .     S
C582   O784    1.383   .     S
C583   C25     1.421   1_565 A
C583   O785    1.383   .     S
C584   C602    1.397   .     A
C584   C585    1.467   1_554 S
C585   C613    1.397   .     A
C585   C584    1.467   1_556 S
C586   C587    1.467   1_554 S
C586   C892    1.397   1_455 S
C587   C903    1.397   1_455 A
C587   C586    1.467   1_556 S
C587   C591    1.397   .     S
C588   C589    1.467   .     S
C588   C914    1.397   1_455 S
C589   C831    1.397   1_455 A
C590   C592    1.467   .     S
C591   H686    1.084   .     S
C593   O788    1.279   .     A
C594   O776    1.279   .     A
C595   O786    1.279   .     A
C595   O991    1.279   1_455 S
C596   O724    1.279   .     A
C596   O1055   1.279   1_455 S
C597   O725    1.279   .     S
C597   O729    1.279   .     S
C598   O726    1.279   .     A
C598   O730    1.279   .     S
C599   O727    1.279   .     S
C599   O731    1.279   .     S
C600   O728    1.279   .     A
C600   O733    1.279   .     A
C601   C656    1.457   .     S
C601   O762    1.280   .     A
C601   O734    1.280   .     A
C602   H687    1.084   .     S
C603   O763    1.280   .     A
C603   O735    1.280   .     A
C604   O760    1.280   .     A
C604   O736    1.280   .     A
C605   O737    1.280   .     A
C605   O761    1.280   .     A
C606   O767    1.280   .     A
C606   O738    1.280   .     A
C607   O768    1.280   .     A
C607   O739    1.280   .     A
C608   O740    1.280   .     A
C608   O764    1.280   .     A
C608   C654    1.457   .     S
C609   C655    1.457   .     S
C609   O766    1.280   .     A
C609   O741    1.280   .     A
C610   O742    1.280   .     A
C610   O753    1.280   .     A
C611   O744    1.280   .     A
C611   O755    1.280   .     A
C612   O751    1.280   .     A
C612   O745    1.280   .     A
C613   H688    1.084   .     S
C614   O746    1.280   .     A
C614   O752    1.280   .     A
C615   O758    1.280   .     A
C615   O747    1.280   .     A
C616   O748    1.280   .     A
C616   O759    1.280   .     A
C617   O749    1.280   .     A
C617   O756    1.280   .     A
C618   O757    1.280   .     A
C618   O750    1.280   .     A
C619   H657    1.083   .     S
C619   C636    1.387   .     A
C620   C634    1.387   .     A
C620   H668    1.083   .     S
C621   H679    1.083   .     S
C621   C633    1.387   .     A
C622   C632    1.387   .     A
C622   H690    1.083   .     S
C623   C631    1.387   .     A
C623   H701    1.083   .     S
C624   H689    1.084   .     S
C624   C854    1.397   .     S
C625   C630    1.387   .     A
C625   H712    1.083   .     S
C626   H718    1.083   .     S
C626   C629    1.387   .     A
C627   H719    1.083   .     S
C627   C628    1.387   .     A
C628   H720    1.083   .     S
C629   H658    1.083   .     S
C630   H659    1.083   .     S
C631   H660    1.083   .     S
C632   H661    1.083   .     S
C633   H662    1.083   .     S
C633   C656    1.402   .     A
C634   C655    1.402   .     A
C634   H663    1.083   .     S
C635   H691    1.084   .     S
C635   C855    1.397   .     A
C636   H664    1.083   .     S
C636   C654    1.402   .     A
C637   C655    1.402   .     A
C637   C653    1.387   .     A
C637   H665    1.083   .     S
C638   C654    1.402   .     A
C638   C652    1.387   .     A
C638   H666    1.083   .     S
C639   C651    1.387   .     A
C639   H667    1.083   .     S
C640   H669    1.083   .     S
C640   C650    1.387   .     A
C640   C656    1.402   .     A
C641   C649    1.387   .     A
C641   H670    1.083   .     S
C642   C648    1.387   .     A
C642   H671    1.083   .     S
C643   H672    1.083   .     S
C643   C647    1.387   .     A
C644   C645    1.387   .     A
C644   H673    1.083   .     S
C645   H674    1.083   .     S
C646   H692    1.084   .     S
C646   C856    1.397   .     S
C647   H675    1.083   .     S
C648   H676    1.083   .     S
C649   H677    1.083   .     S
C650   H678    1.083   .     S
C651   H680    1.083   .     S
C652   H681    1.083   .     S
C653   H682    1.083   .     S
H700   O769    0.988   .     S
H702   O770    0.988   .     S
H703   O771    0.988   .     S
H704   O772    0.988   .     S
H705   O773    0.988   .     S
H706   O774    0.988   .     S
H707   O775    0.988   .     S
H708   O777    0.988   .     S
H709   O778    0.988   .     S
H710   O779    0.988   .     S
H711   O780    0.988   .     S
H713   O781    0.988   .     S
H714   O782    0.988   .     S
H715   O783    0.988   .     S
H716   O784    0.988   .     S
H717   O785    0.988   .     S
O721   Zn792   1.945   .     S
O721   Zn789   1.945   .     S
O721   Zn800   1.945   .     S
O722   Zn791   1.935   .     S
O722   C58     1.279   1_565 S
O723   Zn794   1.935   .     S
O723   C863    1.279   .     S
O724   Zn793   1.935   .     S
O725   Zn803   1.935   .     S
O726   Zn802   1.935   .     S
O727   Zn797   1.935   .     S
O728   Zn789   1.935   .     S
O729   Zn799   1.935   .     S
O730   Zn798   1.935   .     S
O731   Zn801   1.935   .     S
O732   Zn797   1.945   .     S
O732   Zn801   1.945   .     S
O732   Zn795   1.945   .     S
O733   Zn800   1.935   .     S
O734   Zn792   1.938   .     S
O735   Zn791   1.938   .     S
O736   Zn794   1.938   .     S
O737   Zn793   1.938   .     S
O738   Zn796   1.938   .     S
O739   Zn795   1.938   .     S
O740   Zn790   1.938   .     S
O741   Zn804   1.938   .     S
O742   Zn791   1.938   .     S
O743   Zn802   1.945   .     S
O743   Zn1062  1.945   1_455 S
O743   Zn790   1.945   .     S
O743   Zn798   1.945   .     S
O744   Zn792   1.938   .     S
O745   Zn804   1.938   .     S
O746   Zn790   1.938   .     S
O747   Zn795   1.938   .     S
O748   Zn796   1.938   .     S
O749   Zn793   1.938   .     S
O750   Zn794   1.938   .     S
O751   Zn1067  1.938   .     S
O752   Zn798   1.938   .     S
O753   Zn265   1.938   1_565 S
O754   Zn1072  1.945   1_455 S
O754   Zn799   1.945   .     S
O754   Zn793   1.945   .     S
O754   Zn803   1.945   .     S
O755   Zn800   1.938   .     S
O756   Zn803   1.938   .     S
O757   Zn1070  1.938   .     S
O758   Zn797   1.938   .     S
O759   Zn253   1.938   1_565 S
O760   Zn1066  1.938   .     S
O761   Zn799   1.938   .     S
O762   Zn789   1.938   .     S
O763   Zn261   1.938   1_565 S
O764   Zn802   1.938   .     S
O765   Zn796   1.935   .     S
O765   C57     1.279   1_565 S
O766   Zn1071  1.938   .     S
O767   Zn264   1.938   1_565 S
O768   Zn801   1.938   .     S
O776   Zn795   1.935   .     S
O786   Zn790   1.935   .     S
O787   Zn804   1.935   .     S
O787   C864    1.279   .     S
O788   Zn792   1.935   .     S
Zn791  O196    1.945   1_565 S
Zn794  O1011   1.945   .     S
Zn796  O185    1.945   1_565 S
Zn798  O1028   1.938   1_455 S
Zn799  O1019   1.938   1_455 S
Zn802  O1025   1.938   1_455 S
Zn803  O1034   1.938   1_455 S
Zn804  O1022   1.945   .     S
C805   H951    1.084   .     S
C805   C834    1.392   .     A
C805   C316    1.397   1_565 S
C806   H961    1.084   .     S
C806   C844    1.392   .     A
C806   C857    1.397   .     S
C807   C900    1.402   .     A
C807   C907    1.402   .     A
C807   C871    1.457   .     S
C808   C872    1.457   .     S
C808   C910    1.402   .     A
C808   C899    1.402   .     A
C809   C898    1.402   .     A
C809   C909    1.402   .     A
C809   C873    1.457   .     S
C810   C897    1.402   .     A
C810   C874    1.457   .     S
C810   C912    1.402   .     A
C811   C875    1.457   .     S
C811   C896    1.402   .     A
C811   C911    1.402   .     A
C812   C885    1.457   .     S
C812   C915    1.402   .     A
C812   C895    1.402   .     A
C813   C913    1.402   .     A
C813   C894    1.402   .     A
C813   C886    1.457   .     S
C814   C893    1.402   .     A
C814   C878    1.457   .     S
C814   C917    1.402   .     A
C815   C916    1.402   .     A
C815   C891    1.402   .     A
C815   C879    1.457   .     S
C816   C919    1.402   .     A
C816   C880    1.457   .     S
C816   C890    1.402   .     A
C817   C845    1.392   .     A
C817   H962    1.084   .     S
C817   C322    1.397   1_565 S
C818   C918    1.402   .     A
C818   C889    1.402   .     A
C818   C882    1.457   .     S
C819   C883    1.457   .     S
C819   C921    1.402   .     A
C819   C888    1.402   .     A
C820   C920    1.402   .     A
C820   C887    1.402   .     A
C820   C884    1.457   .     S
C821   C868    1.459   .     S
C821   C839    1.421   .     A
C822   C840    1.421   .     A
C822   C867    1.459   .     S
C823   C836    1.421   .     A
C823   C866    1.459   .     S
C824   C865    1.459   .     S
C824   C838    1.421   .     A
C825   C864    1.459   .     S
C825   C847    1.421   .     A
C826   C844    1.421   .     A
C826   C863    1.459   .     S
C827   C850    1.421   .     A
C827   C862    1.459   .     S
C828   C846    1.392   .     A
C828   H963    1.084   .     S
C828   C860    1.397   .     A
C829   C846    1.421   .     S
C829   C861    1.459   .     S
C830   C856    1.397   .     A
C830   C847    1.392   .     A
C830   H964    1.084   .     S
C831   C849    1.392   .     A
C831   C589    1.397   1_655 A
C831   H965    1.084   .     S
C832   C850    1.392   .     A
C832   H966    1.084   .     S
C832   C858    1.397   .     A
C833   C851    1.392   .     A
C833   H967    1.084   .     S
C833   C324    1.397   1_565 S
C834   O1037   1.383   .     S
C834   C285    1.421   1_565 S
C835   C837    1.392   .     A
C835   O1038   1.383   .     S
C835   C286    1.421   1_565 S
C836   C848    1.392   .     A
C836   O1039   1.383   .     S
C837   H952    1.084   .     S
C837   C317    1.397   1_565 S
C838   O1040   1.383   .     S
C838   C859    1.392   .     A
C839   O1041   1.383   .     S
C839   C870    1.392   .     A
C840   C881    1.392   .     A
C840   O1042   1.383   .     S
C841   C892    1.392   .     A
C841   O1043   1.383   .     S
C841   C555    1.421   1_655 S
C842   C903    1.392   .     A
C842   O1045   1.383   .     S
C842   C556    1.421   1_655 S
C843   C914    1.392   .     A
C843   O1046   1.383   .     S
C843   C557    1.421   1_655 S
C844   O1047   1.383   .     S
C845   O1048   1.383   .     S
C845   C291    1.421   1_565 S
C846   O1049   1.383   .     S
C847   O1050   1.383   .     S
C848   C854    1.397   .     A
C848   H953    1.084   .     S
C849   O1051   1.383   .     S
C849   C558    1.421   1_655 S
C850   O1052   1.383   .     S
C851   C293    1.421   1_565 A
C851   O1053   1.383   .     S
C852   C870    1.397   .     A
C852   C853    1.467   1_554 S
C853   C881    1.397   .     A
C853   C852    1.467   1_556 S
C854   C855    1.467   1_554 S
C855   C854    1.467   1_556 S
C855   C859    1.397   .     S
C856   C857    1.467   .     S
C858   C860    1.467   .     S
C859   H954    1.084   .     S
C861   O1056   1.279   .     A
C862   O1044   1.279   .     A
C863   O1054   1.279   .     A
C864   O992    1.279   .     A
C865   O993    1.279   .     S
C865   O997    1.279   .     S
C866   O994    1.279   .     A
C866   O998    1.279   .     S
C867   O995    1.279   .     S
C867   O999    1.279   .     S
C868   O996    1.279   .     A
C868   O1001   1.279   .     A
C869   C924    1.457   .     S
C869   O1030   1.280   .     A
C869   O1002   1.280   .     A
C870   H955    1.084   .     S
C871   O1031   1.280   .     A
C871   O1003   1.280   .     A
C872   O1028   1.280   .     A
C872   O1004   1.280   .     A
C873   O1005   1.280   .     A
C873   O1029   1.280   .     A
C874   O1035   1.280   .     A
C874   O1006   1.280   .     A
C875   O1036   1.280   .     A
C875   O1007   1.280   .     A
C876   O1008   1.280   .     A
C876   O1032   1.280   .     A
C876   C922    1.457   .     S
C877   C923    1.457   .     S
C877   O1034   1.280   .     A
C877   O1009   1.280   .     A
C878   O1010   1.280   .     A
C878   O1021   1.280   .     A
C879   O1012   1.280   .     A
C879   O1023   1.280   .     A
C880   O1019   1.280   .     A
C880   O1013   1.280   .     A
C881   H956    1.084   .     S
C882   O1014   1.280   .     A
C882   O1020   1.280   .     A
C883   O1026   1.280   .     A
C883   O1015   1.280   .     A
C884   O1016   1.280   .     A
C884   O1027   1.280   .     A
C885   O1017   1.280   .     A
C885   O1024   1.280   .     A
C886   O1025   1.280   .     A
C886   O1018   1.280   .     A
C887   H925    1.083   .     S
C887   C904    1.387   .     A
C888   C902    1.387   .     A
C888   H936    1.083   .     S
C889   H947    1.083   .     S
C889   C901    1.387   .     A
C890   C900    1.387   .     A
C890   H958    1.083   .     S
C891   C899    1.387   .     A
C891   H969    1.083   .     S
C892   H957    1.084   .     S
C892   C586    1.397   1_655 S
C893   C898    1.387   .     A
C893   H980    1.083   .     S
C894   H986    1.083   .     S
C894   C897    1.387   .     A
C895   H987    1.083   .     S
C895   C896    1.387   .     A
C896   H988    1.083   .     S
C897   H926    1.083   .     S
C898   H927    1.083   .     S
C899   H928    1.083   .     S
C900   H929    1.083   .     S
C901   H930    1.083   .     S
C901   C924    1.402   .     A
C902   C923    1.402   .     A
C902   H931    1.083   .     S
C903   H959    1.084   .     S
C903   C587    1.397   1_655 A
C904   H932    1.083   .     S
C904   C922    1.402   .     A
C905   C923    1.402   .     A
C905   C921    1.387   .     A
C905   H933    1.083   .     S
C906   C922    1.402   .     A
C906   C920    1.387   .     A
C906   H934    1.083   .     S
C907   C919    1.387   .     A
C907   H935    1.083   .     S
C908   H937    1.083   .     S
C908   C918    1.387   .     A
C908   C924    1.402   .     A
C909   C917    1.387   .     A
C909   H938    1.083   .     S
C910   C916    1.387   .     A
C910   H939    1.083   .     S
C911   H940    1.083   .     S
C911   C915    1.387   .     A
C912   C913    1.387   .     A
C912   H941    1.083   .     S
C913   H942    1.083   .     S
C914   H960    1.084   .     S
C914   C588    1.397   1_655 S
C915   H943    1.083   .     S
C916   H944    1.083   .     S
C917   H945    1.083   .     S
C918   H946    1.083   .     S
C919   H948    1.083   .     S
C920   H949    1.083   .     S
C921   H950    1.083   .     S
H968   O1037   0.988   .     S
H970   O1038   0.988   .     S
H971   O1039   0.988   .     S
H972   O1040   0.988   .     S
H973   O1041   0.988   .     S
H974   O1042   0.988   .     S
H975   O1043   0.988   .     S
H976   O1045   0.988   .     S
H977   O1046   0.988   .     S
H978   O1047   0.988   .     S
H979   O1048   0.988   .     S
H981   O1049   0.988   .     S
H982   O1050   0.988   .     S
H983   O1051   0.988   .     S
H984   O1052   0.988   .     S
H985   O1053   0.988   .     S
O989   Zn1060  1.945   .     S
O989   Zn1057  1.945   .     S
O989   Zn1068  1.945   .     S
O990   Zn1059  1.935   .     S
O990   C326    1.279   1_565 S
O991   Zn1062  1.935   .     S
O991   C595    1.279   1_655 S
O992   Zn1061  1.935   .     S
O993   Zn1071  1.935   .     S
O994   Zn1070  1.935   .     S
O995   Zn1065  1.935   .     S
O996   Zn1057  1.935   .     S
O997   Zn1067  1.935   .     S
O998   Zn1066  1.935   .     S
O999   Zn1069  1.935   .     S
O1000  Zn1065  1.945   .     S
O1000  Zn1069  1.945   .     S
O1000  Zn1063  1.945   .     S
O1001  Zn1068  1.935   .     S
O1002  Zn1060  1.938   .     S
O1003  Zn1059  1.938   .     S
O1004  Zn1062  1.938   .     S
O1005  Zn1061  1.938   .     S
O1006  Zn1064  1.938   .     S
O1007  Zn1063  1.938   .     S
O1008  Zn1058  1.938   .     S
O1009  Zn1072  1.938   .     S
O1010  Zn1059  1.938   .     S
O1011  Zn1070  1.945   .     S
O1011  Zn1058  1.945   .     S
O1011  Zn1066  1.945   .     S
O1012  Zn1060  1.938   .     S
O1013  Zn1072  1.938   .     S
O1014  Zn1058  1.938   .     S
O1015  Zn1063  1.938   .     S
O1016  Zn1064  1.938   .     S
O1017  Zn1061  1.938   .     S
O1018  Zn1062  1.938   .     S
O1019  Zn799   1.938   1_655 S
O1020  Zn1066  1.938   .     S
O1021  Zn533   1.938   1_565 S
O1022  Zn1067  1.945   .     S
O1022  Zn1061  1.945   .     S
O1022  Zn1071  1.945   .     S
O1023  Zn1068  1.938   .     S
O1024  Zn1071  1.938   .     S
O1025  Zn802   1.938   1_655 S
O1026  Zn1065  1.938   .     S
O1027  Zn521   1.938   1_565 S
O1028  Zn798   1.938   1_655 S
O1029  Zn1067  1.938   .     S
O1030  Zn1057  1.938   .     S
O1031  Zn529   1.938   1_565 S
O1032  Zn1070  1.938   .     S
O1033  Zn1064  1.935   .     S
O1033  C325    1.279   1_565 S
O1034  Zn803   1.938   1_655 S
O1035  Zn532   1.938   1_565 S
O1036  Zn1069  1.938   .     S
O1044  Zn1063  1.935   .     S
O1054  Zn1058  1.935   .     S
O1055  Zn1072  1.935   .     S
O1055  C596    1.279   1_655 S
O1056  Zn1060  1.935   .     S
Zn1059 O464    1.945   1_565 S
Zn1062 O743    1.945   1_655 S
Zn1064 O453    1.945   1_565 S
Zn1072 O754    1.945   1_655 S
