data_str_m3_o1_o2_pcu_sym.25
_audit_creation_date              2020-01-03
_audit_creation_method            'Materials Studio'
_symmetry_space_group_name_H-M    'P1'
_symmetry_Int_Tables_number       1
_symmetry_cell_setting            triclinic
loop_
_symmetry_equiv_pos_as_xyz
  x,y,z
_cell_length_a                    32.1045
_cell_length_b                    29.4702
_cell_length_c                    29.9431
_cell_angle_alpha                 89.9875
_cell_angle_beta                  89.9332
_cell_angle_gamma                 89.9977
loop_
_atom_site_label
_atom_site_type_symbol
_atom_site_fract_x
_atom_site_fract_y
_atom_site_fract_z
_atom_site_U_iso_or_equiv
_atom_site_adp_type
_atom_site_occupancy
C1     C     0.08660   0.16667   0.25000   0.00000  Uiso   1.00
C2     C     0.31204   0.20802   0.24842   0.00000  Uiso   1.00
C3     C     0.31204   0.12532   0.25164   0.00000  Uiso   1.00
C4     C     0.02129   0.20803   0.24892   0.00000  Uiso   1.00
C5     C     0.14514   0.19942   0.04618   0.00000  Uiso   1.00
C6     C     0.14492   0.13356   0.45377   0.00000  Uiso   1.00
C7     C     0.19090   0.19910   0.45332   0.00000  Uiso   1.00
C8     C     0.19108   0.13385   0.04672   0.00000  Uiso   1.00
C9     C     0.14358   0.19902   0.09245   0.00000  Uiso   1.00
C10    C     0.14302   0.13444   0.40752   0.00000  Uiso   1.00
C11    C     0.19148   0.19879   0.40701   0.00000  Uiso   1.00
C12    C     0.24673   0.16667   0.25001   0.00000  Uiso   1.00
C13    C     0.19201   0.13464   0.09301   0.00000  Uiso   1.00
C14    C     0.16744   0.16674   0.11586   0.00000  Uiso   1.00
C15    C     0.16700   0.16667   0.38414   0.00000  Uiso   1.00
C16    C     0.16818   0.16648   0.02385   0.00000  Uiso   1.00
C17    C     0.16824   0.16619   0.47614   0.00000  Uiso   1.00
C18    C     0.29086   0.16667   0.25003   0.00000  Uiso   1.00
C19    C     0.04247   0.16667   0.25001   0.00000  Uiso   1.00
C20    C     0.07812   0.21845   0.11440   0.00000  Uiso   1.00
C21    C     0.05231   0.25539   0.13714   0.00000  Uiso   1.00
C22    C     0.00589   0.24424   0.13609   0.00000  Uiso   1.00
C23    C     0.16686   0.16668   0.16389   0.00000  Uiso   1.00
C24    C     0.07687   0.11811   0.38589   0.00000  Uiso   1.00
C25    C     0.04925   0.08200   0.36441   0.00000  Uiso   1.00
C26    C     0.00336   0.09549   0.36598   0.00000  Uiso   1.00
C27    C     0.25658   0.21829   0.38390   0.00000  Uiso   1.00
C28    C     0.28191   0.25488   0.35999   0.00000  Uiso   1.00
C29    C     0.32840   0.24399   0.36060   0.00000  Uiso   1.00
C30    C     0.25779   0.11811   0.11577   0.00000  Uiso   1.00
C31    C     0.28486   0.08240   0.13868   0.00000  Uiso   1.00
C32    C     0.33085   0.09551   0.13749   0.00000  Uiso   1.00
C33    C     0.16663   0.16667   0.33611   0.00000  Uiso   1.00
C34    C     0.19000   0.02400   0.21972   0.00000  Uiso   1.00
C35    C     0.14327   0.30932   0.28023   0.00000  Uiso   1.00
C36    C     0.14333   0.02399   0.28027   0.00000  Uiso   1.00
C37    C     0.19006   0.30933   0.21977   0.00000  Uiso   1.00
C38    C     0.02129   0.12530   0.25111   0.00000  Uiso   1.00
H39    H     0.20854   0.04221   0.19549   0.00000  Uiso   1.00
H40    H     0.29590   0.24026   0.24692   0.00000  Uiso   1.00
H41    H     0.29590   0.09307   0.25316   0.00000  Uiso   1.00
H42    H     0.03742   0.24031   0.24831   0.00000  Uiso   1.00
H43    H     0.07388   0.18600   0.13303   0.00000  Uiso   1.00
H44    H     0.06654   0.21425   0.07955   0.00000  Uiso   1.00
H45    H     0.06262   0.25907   0.17235   0.00000  Uiso   1.00
H46    H     0.05751   0.28829   0.11983   0.00000  Uiso   1.00
H47    H     0.32798   0.24257   0.10106   0.00000  Uiso   1.00
H48    H     0.32154   0.27105   0.15398   0.00000  Uiso   1.00
H49    H     0.33318   0.21122   0.15266   0.00000  Uiso   1.00
H50    H     0.12456   0.29109   0.30436   0.00000  Uiso   1.00
H51    H     0.07377   0.15030   0.36660   0.00000  Uiso   1.00
H52    H     0.06580   0.12369   0.42078   0.00000  Uiso   1.00
H53    H     0.05881   0.07713   0.32910   0.00000  Uiso   1.00
H54    H     0.05333   0.04924   0.38229   0.00000  Uiso   1.00
H55    H     0.32606   0.09886   0.40114   0.00000  Uiso   1.00
H56    H     0.31765   0.06902   0.34929   0.00000  Uiso   1.00
H57    H     0.33179   0.12821   0.34843   0.00000  Uiso   1.00
H58    H     0.26061   0.18553   0.36577   0.00000  Uiso   1.00
H59    H     0.26875   0.21475   0.41858   0.00000  Uiso   1.00
H60    H     0.27114   0.25773   0.32486   0.00000  Uiso   1.00
H61    H     0.12479   0.04219   0.30450   0.00000  Uiso   1.00
H62    H     0.27678   0.28812   0.37667   0.00000  Uiso   1.00
H63    H     0.00676   0.24316   0.39548   0.00000  Uiso   1.00
H64    H     0.01239   0.27051   0.34187   0.00000  Uiso   1.00
H65    H     0.00105   0.21065   0.34466   0.00000  Uiso   1.00
H66    H     0.26071   0.15074   0.13437   0.00000  Uiso   1.00
H67    H     0.26949   0.12280   0.08099   0.00000  Uiso   1.00
H68    H     0.27478   0.07860   0.17395   0.00000  Uiso   1.00
H69    H     0.28082   0.04919   0.12164   0.00000  Uiso   1.00
H70    H     0.00867   0.09781   0.10243   0.00000  Uiso   1.00
H71    H     0.01615   0.06937   0.15521   0.00000  Uiso   1.00
H72    H     0.20877   0.29111   0.19564   0.00000  Uiso   1.00
H73    H     0.00238   0.12867   0.15422   0.00000  Uiso   1.00
H74    H     0.12779   0.22477   0.02768   0.00000  Uiso   1.00
H75    H     0.12737   0.10832   0.47223   0.00000  Uiso   1.00
H76    H     0.20852   0.22450   0.47145   0.00000  Uiso   1.00
H77    H     0.20887   0.10853   0.02864   0.00000  Uiso   1.00
H78    H     0.03743   0.09303   0.25169   0.00000  Uiso   1.00
N79    N     0.16667   0.28573   0.25000   0.00000  Uiso   1.00
N80    N     0.16667   0.04760   0.25000   0.00000  Uiso   1.00
O81    O     0.10559   0.20487   0.24999   0.00000  Uiso   1.00
O82    O     0.11866   0.10304   0.38523   0.00000  Uiso   1.00
O83    O     0.21422   0.23125   0.38416   0.00000  Uiso   1.00
O84    O     0.21593   0.10325   0.11587   0.00000  Uiso   1.00
O85    O     0.22774   0.12846   0.25000   0.00000  Uiso   1.00
O86    O     0.22774   0.20487   0.25000   0.00000  Uiso   1.00
O87    O     0.10559   0.12846   0.24999   0.00000  Uiso   1.00
O88    O     0.16666   0.20489   0.18453   0.00000  Uiso   1.00
O89    O     0.16667   0.12845   0.31547   0.00000  Uiso   1.00
O90    O     0.16667   0.20489   0.31547   0.00000  Uiso   1.00
O91    O     0.16666   0.12845   0.18453   0.00000  Uiso   1.00
O92    O     0.12045   0.23152   0.11477   0.00000  Uiso   1.00
Zn93   Zn    0.16667   0.21771   0.25000   0.00000  Uiso   1.00
Zn94   Zn    0.16667   0.11563   0.25000   0.00000  Uiso   1.00
C95    C     0.41994   0.16667   0.25000   0.00000  Uiso   1.00
C96    C     0.64537   0.20802   0.24842   0.00000  Uiso   1.00
C97    C     0.64537   0.12532   0.25164   0.00000  Uiso   1.00
C98    C     0.35462   0.20803   0.24892   0.00000  Uiso   1.00
C99    C     0.47847   0.19942   0.04618   0.00000  Uiso   1.00
C100   C     0.47825   0.13356   0.45377   0.00000  Uiso   1.00
C101   C     0.52423   0.19910   0.45332   0.00000  Uiso   1.00
C102   C     0.52441   0.13385   0.04672   0.00000  Uiso   1.00
C103   C     0.47692   0.19902   0.09245   0.00000  Uiso   1.00
C104   C     0.47635   0.13444   0.40752   0.00000  Uiso   1.00
C105   C     0.52481   0.19879   0.40701   0.00000  Uiso   1.00
C106   C     0.58006   0.16667   0.25001   0.00000  Uiso   1.00
C107   C     0.52534   0.13464   0.09301   0.00000  Uiso   1.00
C108   C     0.50077   0.16674   0.11586   0.00000  Uiso   1.00
C109   C     0.50033   0.16667   0.38414   0.00000  Uiso   1.00
C110   C     0.50152   0.16648   0.02385   0.00000  Uiso   1.00
C111   C     0.50158   0.16619   0.47614   0.00000  Uiso   1.00
C112   C     0.62419   0.16667   0.25003   0.00000  Uiso   1.00
C113   C     0.37580   0.16667   0.25001   0.00000  Uiso   1.00
C114   C     0.41146   0.21845   0.11440   0.00000  Uiso   1.00
C115   C     0.38565   0.25539   0.13714   0.00000  Uiso   1.00
C116   C     0.33922   0.24424   0.13609   0.00000  Uiso   1.00
C117   C     0.50019   0.16668   0.16389   0.00000  Uiso   1.00
C118   C     0.41020   0.11811   0.38589   0.00000  Uiso   1.00
C119   C     0.38258   0.08200   0.36441   0.00000  Uiso   1.00
C120   C     0.33669   0.09549   0.36598   0.00000  Uiso   1.00
C121   C     0.58991   0.21829   0.38390   0.00000  Uiso   1.00
C122   C     0.61524   0.25488   0.35999   0.00000  Uiso   1.00
C123   C     0.66173   0.24399   0.36060   0.00000  Uiso   1.00
C124   C     0.59112   0.11811   0.11577   0.00000  Uiso   1.00
C125   C     0.61819   0.08240   0.13868   0.00000  Uiso   1.00
C126   C     0.66419   0.09551   0.13749   0.00000  Uiso   1.00
C127   C     0.49996   0.16667   0.33611   0.00000  Uiso   1.00
C128   C     0.52333   0.02400   0.21972   0.00000  Uiso   1.00
C129   C     0.47661   0.30932   0.28023   0.00000  Uiso   1.00
C130   C     0.47667   0.02399   0.28027   0.00000  Uiso   1.00
C131   C     0.52339   0.30933   0.21977   0.00000  Uiso   1.00
C132   C     0.35462   0.12530   0.25111   0.00000  Uiso   1.00
H133   H     0.54187   0.04221   0.19549   0.00000  Uiso   1.00
H134   H     0.62923   0.24026   0.24692   0.00000  Uiso   1.00
H135   H     0.62923   0.09307   0.25316   0.00000  Uiso   1.00
H136   H     0.37076   0.24031   0.24831   0.00000  Uiso   1.00
H137   H     0.40721   0.18600   0.13303   0.00000  Uiso   1.00
H138   H     0.39988   0.21425   0.07955   0.00000  Uiso   1.00
H139   H     0.39596   0.25907   0.17235   0.00000  Uiso   1.00
H140   H     0.39084   0.28829   0.11983   0.00000  Uiso   1.00
H141   H     0.66131   0.24257   0.10106   0.00000  Uiso   1.00
H142   H     0.65488   0.27105   0.15398   0.00000  Uiso   1.00
H143   H     0.66651   0.21122   0.15266   0.00000  Uiso   1.00
H144   H     0.45790   0.29109   0.30436   0.00000  Uiso   1.00
H145   H     0.40710   0.15030   0.36660   0.00000  Uiso   1.00
H146   H     0.39914   0.12369   0.42078   0.00000  Uiso   1.00
H147   H     0.39215   0.07713   0.32910   0.00000  Uiso   1.00
H148   H     0.38667   0.04924   0.38229   0.00000  Uiso   1.00
H149   H     0.65939   0.09886   0.40114   0.00000  Uiso   1.00
H150   H     0.65098   0.06902   0.34929   0.00000  Uiso   1.00
H151   H     0.66513   0.12821   0.34843   0.00000  Uiso   1.00
H152   H     0.59394   0.18553   0.36577   0.00000  Uiso   1.00
H153   H     0.60208   0.21475   0.41858   0.00000  Uiso   1.00
H154   H     0.60447   0.25773   0.32486   0.00000  Uiso   1.00
H155   H     0.45812   0.04219   0.30450   0.00000  Uiso   1.00
H156   H     0.61011   0.28812   0.37667   0.00000  Uiso   1.00
H157   H     0.34010   0.24316   0.39548   0.00000  Uiso   1.00
H158   H     0.34572   0.27051   0.34187   0.00000  Uiso   1.00
H159   H     0.33438   0.21065   0.34466   0.00000  Uiso   1.00
H160   H     0.59404   0.15074   0.13437   0.00000  Uiso   1.00
H161   H     0.60282   0.12280   0.08099   0.00000  Uiso   1.00
H162   H     0.60811   0.07860   0.17395   0.00000  Uiso   1.00
H163   H     0.61415   0.04919   0.12164   0.00000  Uiso   1.00
H164   H     0.34200   0.09781   0.10243   0.00000  Uiso   1.00
H165   H     0.34949   0.06937   0.15521   0.00000  Uiso   1.00
H166   H     0.54210   0.29111   0.19564   0.00000  Uiso   1.00
H167   H     0.33572   0.12867   0.15422   0.00000  Uiso   1.00
H168   H     0.46113   0.22477   0.02768   0.00000  Uiso   1.00
H169   H     0.46070   0.10832   0.47223   0.00000  Uiso   1.00
H170   H     0.54185   0.22450   0.47145   0.00000  Uiso   1.00
H171   H     0.54220   0.10853   0.02864   0.00000  Uiso   1.00
H172   H     0.37076   0.09303   0.25169   0.00000  Uiso   1.00
N173   N     0.50000   0.28573   0.25000   0.00000  Uiso   1.00
N174   N     0.50000   0.04760   0.25000   0.00000  Uiso   1.00
O175   O     0.43892   0.20487   0.24999   0.00000  Uiso   1.00
O176   O     0.45199   0.10304   0.38523   0.00000  Uiso   1.00
O177   O     0.54755   0.23125   0.38416   0.00000  Uiso   1.00
O178   O     0.54927   0.10325   0.11587   0.00000  Uiso   1.00
O179   O     0.56108   0.12846   0.25000   0.00000  Uiso   1.00
O180   O     0.56108   0.20487   0.25000   0.00000  Uiso   1.00
O181   O     0.43892   0.12846   0.24999   0.00000  Uiso   1.00
O182   O     0.50000   0.20489   0.18453   0.00000  Uiso   1.00
O183   O     0.50000   0.12845   0.31547   0.00000  Uiso   1.00
O184   O     0.50000   0.20489   0.31547   0.00000  Uiso   1.00
O185   O     0.50000   0.12845   0.18453   0.00000  Uiso   1.00
O186   O     0.45378   0.23152   0.11477   0.00000  Uiso   1.00
Zn187  Zn    0.50000   0.21771   0.25000   0.00000  Uiso   1.00
Zn188  Zn    0.50000   0.11563   0.25000   0.00000  Uiso   1.00
C189   C     0.75327   0.16667   0.25000   0.00000  Uiso   1.00
C190   C     0.97870   0.20802   0.24842   0.00000  Uiso   1.00
C191   C     0.97870   0.12532   0.25164   0.00000  Uiso   1.00
C192   C     0.68796   0.20803   0.24892   0.00000  Uiso   1.00
C193   C     0.81180   0.19942   0.04618   0.00000  Uiso   1.00
C194   C     0.81159   0.13356   0.45377   0.00000  Uiso   1.00
C195   C     0.85757   0.19910   0.45332   0.00000  Uiso   1.00
C196   C     0.85774   0.13385   0.04672   0.00000  Uiso   1.00
C197   C     0.81025   0.19902   0.09245   0.00000  Uiso   1.00
C198   C     0.80969   0.13444   0.40752   0.00000  Uiso   1.00
C199   C     0.85814   0.19879   0.40701   0.00000  Uiso   1.00
C200   C     0.91339   0.16667   0.25001   0.00000  Uiso   1.00
C201   C     0.85867   0.13464   0.09301   0.00000  Uiso   1.00
C202   C     0.83410   0.16674   0.11586   0.00000  Uiso   1.00
C203   C     0.83366   0.16667   0.38414   0.00000  Uiso   1.00
C204   C     0.83485   0.16648   0.02385   0.00000  Uiso   1.00
C205   C     0.83491   0.16619   0.47614   0.00000  Uiso   1.00
C206   C     0.95752   0.16667   0.25003   0.00000  Uiso   1.00
C207   C     0.70914   0.16667   0.25001   0.00000  Uiso   1.00
C208   C     0.74479   0.21845   0.11440   0.00000  Uiso   1.00
C209   C     0.71898   0.25539   0.13714   0.00000  Uiso   1.00
C210   C     0.67256   0.24424   0.13609   0.00000  Uiso   1.00
C211   C     0.83352   0.16668   0.16389   0.00000  Uiso   1.00
C212   C     0.74354   0.11811   0.38589   0.00000  Uiso   1.00
C213   C     0.71592   0.08200   0.36441   0.00000  Uiso   1.00
C214   C     0.67003   0.09549   0.36598   0.00000  Uiso   1.00
C215   C     0.92325   0.21829   0.38390   0.00000  Uiso   1.00
C216   C     0.94858   0.25488   0.35999   0.00000  Uiso   1.00
C217   C     0.99507   0.24399   0.36060   0.00000  Uiso   1.00
C218   C     0.92446   0.11811   0.11577   0.00000  Uiso   1.00
C219   C     0.95153   0.08240   0.13868   0.00000  Uiso   1.00
C220   C     0.99752   0.09551   0.13749   0.00000  Uiso   1.00
C221   C     0.83330   0.16667   0.33611   0.00000  Uiso   1.00
C222   C     0.85666   0.02400   0.21972   0.00000  Uiso   1.00
C223   C     0.80994   0.30932   0.28023   0.00000  Uiso   1.00
C224   C     0.81000   0.02399   0.28027   0.00000  Uiso   1.00
C225   C     0.85673   0.30933   0.21977   0.00000  Uiso   1.00
C226   C     0.68796   0.12530   0.25111   0.00000  Uiso   1.00
H227   H     0.87520   0.04221   0.19549   0.00000  Uiso   1.00
H228   H     0.96256   0.24026   0.24692   0.00000  Uiso   1.00
H229   H     0.96256   0.09307   0.25316   0.00000  Uiso   1.00
H230   H     0.70409   0.24031   0.24831   0.00000  Uiso   1.00
H231   H     0.74055   0.18600   0.13303   0.00000  Uiso   1.00
H232   H     0.73321   0.21425   0.07955   0.00000  Uiso   1.00
H233   H     0.72929   0.25907   0.17235   0.00000  Uiso   1.00
H234   H     0.72418   0.28829   0.11983   0.00000  Uiso   1.00
H235   H     0.99465   0.24257   0.10106   0.00000  Uiso   1.00
H236   H     0.98821   0.27105   0.15398   0.00000  Uiso   1.00
H237   H     0.99985   0.21122   0.15266   0.00000  Uiso   1.00
H238   H     0.79123   0.29109   0.30436   0.00000  Uiso   1.00
H239   H     0.74043   0.15030   0.36660   0.00000  Uiso   1.00
H240   H     0.73247   0.12369   0.42078   0.00000  Uiso   1.00
H241   H     0.72548   0.07713   0.32910   0.00000  Uiso   1.00
H242   H     0.72000   0.04924   0.38229   0.00000  Uiso   1.00
H243   H     0.99273   0.09886   0.40114   0.00000  Uiso   1.00
H244   H     0.98432   0.06902   0.34929   0.00000  Uiso   1.00
H245   H     0.99846   0.12821   0.34843   0.00000  Uiso   1.00
H246   H     0.92727   0.18553   0.36577   0.00000  Uiso   1.00
H247   H     0.93542   0.21475   0.41858   0.00000  Uiso   1.00
H248   H     0.93781   0.25773   0.32486   0.00000  Uiso   1.00
H249   H     0.79145   0.04219   0.30450   0.00000  Uiso   1.00
H250   H     0.94344   0.28812   0.37667   0.00000  Uiso   1.00
H251   H     0.67343   0.24316   0.39548   0.00000  Uiso   1.00
H252   H     0.67905   0.27051   0.34187   0.00000  Uiso   1.00
H253   H     0.66772   0.21065   0.34466   0.00000  Uiso   1.00
H254   H     0.92737   0.15074   0.13437   0.00000  Uiso   1.00
H255   H     0.93615   0.12280   0.08099   0.00000  Uiso   1.00
H256   H     0.94144   0.07860   0.17395   0.00000  Uiso   1.00
H257   H     0.94748   0.04919   0.12164   0.00000  Uiso   1.00
H258   H     0.67534   0.09781   0.10243   0.00000  Uiso   1.00
H259   H     0.68282   0.06937   0.15521   0.00000  Uiso   1.00
H260   H     0.87543   0.29111   0.19564   0.00000  Uiso   1.00
H261   H     0.66905   0.12867   0.15422   0.00000  Uiso   1.00
H262   H     0.79446   0.22477   0.02768   0.00000  Uiso   1.00
H263   H     0.79404   0.10832   0.47223   0.00000  Uiso   1.00
H264   H     0.87518   0.22450   0.47145   0.00000  Uiso   1.00
H265   H     0.87554   0.10853   0.02864   0.00000  Uiso   1.00
H266   H     0.70409   0.09303   0.25169   0.00000  Uiso   1.00
N267   N     0.83333   0.28573   0.25000   0.00000  Uiso   1.00
N268   N     0.83333   0.04760   0.25000   0.00000  Uiso   1.00
O269   O     0.77226   0.20487   0.24999   0.00000  Uiso   1.00
O270   O     0.78532   0.10304   0.38523   0.00000  Uiso   1.00
O271   O     0.88089   0.23125   0.38416   0.00000  Uiso   1.00
O272   O     0.88260   0.10325   0.11587   0.00000  Uiso   1.00
O273   O     0.89441   0.12846   0.25000   0.00000  Uiso   1.00
O274   O     0.89441   0.20487   0.25000   0.00000  Uiso   1.00
O275   O     0.77226   0.12846   0.24999   0.00000  Uiso   1.00
O276   O     0.83333   0.20489   0.18453   0.00000  Uiso   1.00
O277   O     0.83334   0.12845   0.31547   0.00000  Uiso   1.00
O278   O     0.83334   0.20489   0.31547   0.00000  Uiso   1.00
O279   O     0.83333   0.12845   0.18453   0.00000  Uiso   1.00
O280   O     0.78712   0.23152   0.11477   0.00000  Uiso   1.00
Zn281  Zn    0.83333   0.21771   0.25000   0.00000  Uiso   1.00
Zn282  Zn    0.83333   0.11563   0.25000   0.00000  Uiso   1.00
C283   C     0.08660   0.50000   0.25000   0.00000  Uiso   1.00
C284   C     0.31204   0.54135   0.24842   0.00000  Uiso   1.00
C285   C     0.31204   0.45865   0.25164   0.00000  Uiso   1.00
C286   C     0.02129   0.54137   0.24892   0.00000  Uiso   1.00
C287   C     0.14514   0.53275   0.04618   0.00000  Uiso   1.00
C288   C     0.14492   0.46690   0.45377   0.00000  Uiso   1.00
C289   C     0.19090   0.53243   0.45332   0.00000  Uiso   1.00
C290   C     0.19108   0.46718   0.04672   0.00000  Uiso   1.00
C291   C     0.14358   0.53236   0.09245   0.00000  Uiso   1.00
C292   C     0.14302   0.46777   0.40752   0.00000  Uiso   1.00
C293   C     0.19148   0.53212   0.40701   0.00000  Uiso   1.00
C294   C     0.24673   0.50000   0.25001   0.00000  Uiso   1.00
C295   C     0.19201   0.46797   0.09301   0.00000  Uiso   1.00
C296   C     0.16744   0.50008   0.11586   0.00000  Uiso   1.00
C297   C     0.16700   0.50000   0.38414   0.00000  Uiso   1.00
C298   C     0.16818   0.49982   0.02385   0.00000  Uiso   1.00
C299   C     0.16824   0.49952   0.47614   0.00000  Uiso   1.00
C300   C     0.29086   0.50000   0.25003   0.00000  Uiso   1.00
C301   C     0.04247   0.50000   0.25001   0.00000  Uiso   1.00
C302   C     0.07812   0.55179   0.11440   0.00000  Uiso   1.00
C303   C     0.05231   0.58873   0.13714   0.00000  Uiso   1.00
C304   C     0.00589   0.57757   0.13609   0.00000  Uiso   1.00
C305   C     0.16686   0.50002   0.16389   0.00000  Uiso   1.00
C306   C     0.07687   0.45144   0.38589   0.00000  Uiso   1.00
C307   C     0.04925   0.41533   0.36441   0.00000  Uiso   1.00
C308   C     0.00336   0.42882   0.36598   0.00000  Uiso   1.00
C309   C     0.25658   0.55163   0.38390   0.00000  Uiso   1.00
C310   C     0.28191   0.58821   0.35999   0.00000  Uiso   1.00
C311   C     0.32840   0.57733   0.36060   0.00000  Uiso   1.00
C312   C     0.25779   0.45144   0.11577   0.00000  Uiso   1.00
C313   C     0.28486   0.41574   0.13868   0.00000  Uiso   1.00
C314   C     0.33085   0.42884   0.13749   0.00000  Uiso   1.00
C315   C     0.16663   0.50000   0.33611   0.00000  Uiso   1.00
C316   C     0.19000   0.35733   0.21972   0.00000  Uiso   1.00
C317   C     0.14327   0.64265   0.28023   0.00000  Uiso   1.00
C318   C     0.14333   0.35732   0.28027   0.00000  Uiso   1.00
C319   C     0.19006   0.64266   0.21977   0.00000  Uiso   1.00
C320   C     0.02129   0.45863   0.25111   0.00000  Uiso   1.00
H321   H     0.20854   0.37554   0.19549   0.00000  Uiso   1.00
H322   H     0.29590   0.57360   0.24692   0.00000  Uiso   1.00
H323   H     0.29590   0.42640   0.25316   0.00000  Uiso   1.00
H324   H     0.03742   0.57364   0.24831   0.00000  Uiso   1.00
H325   H     0.07388   0.51934   0.13303   0.00000  Uiso   1.00
H326   H     0.06654   0.54758   0.07955   0.00000  Uiso   1.00
H327   H     0.06262   0.59241   0.17235   0.00000  Uiso   1.00
H328   H     0.05751   0.62163   0.11983   0.00000  Uiso   1.00
H329   H     0.32798   0.57591   0.10106   0.00000  Uiso   1.00
H330   H     0.32154   0.60439   0.15398   0.00000  Uiso   1.00
H331   H     0.33318   0.54455   0.15266   0.00000  Uiso   1.00
H332   H     0.12456   0.62442   0.30436   0.00000  Uiso   1.00
H333   H     0.07377   0.48363   0.36660   0.00000  Uiso   1.00
H334   H     0.06580   0.45703   0.42078   0.00000  Uiso   1.00
H335   H     0.05881   0.41047   0.32910   0.00000  Uiso   1.00
H336   H     0.05333   0.38257   0.38229   0.00000  Uiso   1.00
H337   H     0.32606   0.43219   0.40114   0.00000  Uiso   1.00
H338   H     0.31765   0.40235   0.34929   0.00000  Uiso   1.00
H339   H     0.33179   0.46154   0.34843   0.00000  Uiso   1.00
H340   H     0.26061   0.51886   0.36577   0.00000  Uiso   1.00
H341   H     0.26875   0.54808   0.41858   0.00000  Uiso   1.00
H342   H     0.27114   0.59106   0.32486   0.00000  Uiso   1.00
H343   H     0.12479   0.37553   0.30450   0.00000  Uiso   1.00
H344   H     0.27678   0.62145   0.37667   0.00000  Uiso   1.00
H345   H     0.00676   0.57650   0.39548   0.00000  Uiso   1.00
H346   H     0.01239   0.60384   0.34187   0.00000  Uiso   1.00
H347   H     0.00105   0.54398   0.34466   0.00000  Uiso   1.00
H348   H     0.26071   0.48407   0.13437   0.00000  Uiso   1.00
H349   H     0.26949   0.45614   0.08099   0.00000  Uiso   1.00
H350   H     0.27478   0.41194   0.17395   0.00000  Uiso   1.00
H351   H     0.28082   0.38252   0.12164   0.00000  Uiso   1.00
H352   H     0.00867   0.43114   0.10243   0.00000  Uiso   1.00
H353   H     0.01615   0.40271   0.15521   0.00000  Uiso   1.00
H354   H     0.20877   0.62444   0.19564   0.00000  Uiso   1.00
H355   H     0.00238   0.46201   0.15422   0.00000  Uiso   1.00
H356   H     0.12779   0.55810   0.02768   0.00000  Uiso   1.00
H357   H     0.12737   0.44165   0.47223   0.00000  Uiso   1.00
H358   H     0.20852   0.55783   0.47145   0.00000  Uiso   1.00
H359   H     0.20887   0.44186   0.02864   0.00000  Uiso   1.00
H360   H     0.03743   0.42636   0.25169   0.00000  Uiso   1.00
N361   N     0.16667   0.61907   0.25000   0.00000  Uiso   1.00
N362   N     0.16667   0.38093   0.25000   0.00000  Uiso   1.00
O363   O     0.10559   0.53821   0.24999   0.00000  Uiso   1.00
O364   O     0.11866   0.43637   0.38523   0.00000  Uiso   1.00
O365   O     0.21422   0.56458   0.38416   0.00000  Uiso   1.00
O366   O     0.21593   0.43658   0.11587   0.00000  Uiso   1.00
O367   O     0.22774   0.46179   0.25000   0.00000  Uiso   1.00
O368   O     0.22774   0.53821   0.25000   0.00000  Uiso   1.00
O369   O     0.10559   0.46179   0.24999   0.00000  Uiso   1.00
O370   O     0.16666   0.53822   0.18453   0.00000  Uiso   1.00
O371   O     0.16667   0.46178   0.31547   0.00000  Uiso   1.00
O372   O     0.16667   0.53822   0.31547   0.00000  Uiso   1.00
O373   O     0.16666   0.46178   0.18453   0.00000  Uiso   1.00
O374   O     0.12045   0.56486   0.11477   0.00000  Uiso   1.00
Zn375  Zn    0.16667   0.55104   0.25000   0.00000  Uiso   1.00
Zn376  Zn    0.16667   0.44896   0.25000   0.00000  Uiso   1.00
C377   C     0.41994   0.50000   0.25000   0.00000  Uiso   1.00
C378   C     0.64537   0.54135   0.24842   0.00000  Uiso   1.00
C379   C     0.64537   0.45865   0.25164   0.00000  Uiso   1.00
C380   C     0.35462   0.54137   0.24892   0.00000  Uiso   1.00
C381   C     0.47847   0.53275   0.04618   0.00000  Uiso   1.00
C382   C     0.47825   0.46690   0.45377   0.00000  Uiso   1.00
C383   C     0.52423   0.53243   0.45332   0.00000  Uiso   1.00
C384   C     0.52441   0.46718   0.04672   0.00000  Uiso   1.00
C385   C     0.47692   0.53236   0.09245   0.00000  Uiso   1.00
C386   C     0.47635   0.46777   0.40752   0.00000  Uiso   1.00
C387   C     0.52481   0.53212   0.40701   0.00000  Uiso   1.00
C388   C     0.58006   0.50000   0.25001   0.00000  Uiso   1.00
C389   C     0.52534   0.46797   0.09301   0.00000  Uiso   1.00
C390   C     0.50077   0.50008   0.11586   0.00000  Uiso   1.00
C391   C     0.50033   0.50000   0.38414   0.00000  Uiso   1.00
C392   C     0.50152   0.49982   0.02385   0.00000  Uiso   1.00
C393   C     0.50158   0.49952   0.47614   0.00000  Uiso   1.00
C394   C     0.62419   0.50000   0.25003   0.00000  Uiso   1.00
C395   C     0.37580   0.50000   0.25001   0.00000  Uiso   1.00
C396   C     0.41146   0.55179   0.11440   0.00000  Uiso   1.00
C397   C     0.38565   0.58873   0.13714   0.00000  Uiso   1.00
C398   C     0.33922   0.57757   0.13609   0.00000  Uiso   1.00
C399   C     0.50019   0.50002   0.16389   0.00000  Uiso   1.00
C400   C     0.41020   0.45144   0.38589   0.00000  Uiso   1.00
C401   C     0.38258   0.41533   0.36441   0.00000  Uiso   1.00
C402   C     0.33669   0.42882   0.36598   0.00000  Uiso   1.00
C403   C     0.58991   0.55163   0.38390   0.00000  Uiso   1.00
C404   C     0.61524   0.58821   0.35999   0.00000  Uiso   1.00
C405   C     0.66173   0.57733   0.36060   0.00000  Uiso   1.00
C406   C     0.59112   0.45144   0.11577   0.00000  Uiso   1.00
C407   C     0.61819   0.41574   0.13868   0.00000  Uiso   1.00
C408   C     0.66419   0.42884   0.13749   0.00000  Uiso   1.00
C409   C     0.49996   0.50000   0.33611   0.00000  Uiso   1.00
C410   C     0.52333   0.35733   0.21972   0.00000  Uiso   1.00
C411   C     0.47661   0.64265   0.28023   0.00000  Uiso   1.00
C412   C     0.47667   0.35732   0.28027   0.00000  Uiso   1.00
C413   C     0.52339   0.64266   0.21977   0.00000  Uiso   1.00
C414   C     0.35462   0.45863   0.25111   0.00000  Uiso   1.00
H415   H     0.54187   0.37554   0.19549   0.00000  Uiso   1.00
H416   H     0.62923   0.57360   0.24692   0.00000  Uiso   1.00
H417   H     0.62923   0.42640   0.25316   0.00000  Uiso   1.00
H418   H     0.37076   0.57364   0.24831   0.00000  Uiso   1.00
H419   H     0.40721   0.51934   0.13303   0.00000  Uiso   1.00
H420   H     0.39988   0.54758   0.07955   0.00000  Uiso   1.00
H421   H     0.39596   0.59241   0.17235   0.00000  Uiso   1.00
H422   H     0.39084   0.62163   0.11983   0.00000  Uiso   1.00
H423   H     0.66131   0.57591   0.10106   0.00000  Uiso   1.00
H424   H     0.65488   0.60439   0.15398   0.00000  Uiso   1.00
H425   H     0.66651   0.54455   0.15266   0.00000  Uiso   1.00
H426   H     0.45790   0.62442   0.30436   0.00000  Uiso   1.00
H427   H     0.40710   0.48363   0.36660   0.00000  Uiso   1.00
H428   H     0.39914   0.45703   0.42078   0.00000  Uiso   1.00
H429   H     0.39215   0.41047   0.32910   0.00000  Uiso   1.00
H430   H     0.38667   0.38257   0.38229   0.00000  Uiso   1.00
H431   H     0.65939   0.43219   0.40114   0.00000  Uiso   1.00
H432   H     0.65098   0.40235   0.34929   0.00000  Uiso   1.00
H433   H     0.66513   0.46154   0.34843   0.00000  Uiso   1.00
H434   H     0.59394   0.51886   0.36577   0.00000  Uiso   1.00
H435   H     0.60208   0.54808   0.41858   0.00000  Uiso   1.00
H436   H     0.60447   0.59106   0.32486   0.00000  Uiso   1.00
H437   H     0.45812   0.37553   0.30450   0.00000  Uiso   1.00
H438   H     0.61011   0.62145   0.37667   0.00000  Uiso   1.00
H439   H     0.34010   0.57650   0.39548   0.00000  Uiso   1.00
H440   H     0.34572   0.60384   0.34187   0.00000  Uiso   1.00
H441   H     0.33438   0.54398   0.34466   0.00000  Uiso   1.00
H442   H     0.59404   0.48407   0.13437   0.00000  Uiso   1.00
H443   H     0.60282   0.45614   0.08099   0.00000  Uiso   1.00
H444   H     0.60811   0.41194   0.17395   0.00000  Uiso   1.00
H445   H     0.61415   0.38252   0.12164   0.00000  Uiso   1.00
H446   H     0.34200   0.43114   0.10243   0.00000  Uiso   1.00
H447   H     0.34949   0.40271   0.15521   0.00000  Uiso   1.00
H448   H     0.54210   0.62444   0.19564   0.00000  Uiso   1.00
H449   H     0.33572   0.46201   0.15422   0.00000  Uiso   1.00
H450   H     0.46113   0.55810   0.02768   0.00000  Uiso   1.00
H451   H     0.46070   0.44165   0.47223   0.00000  Uiso   1.00
H452   H     0.54185   0.55783   0.47145   0.00000  Uiso   1.00
H453   H     0.54220   0.44186   0.02864   0.00000  Uiso   1.00
H454   H     0.37076   0.42636   0.25169   0.00000  Uiso   1.00
N455   N     0.50000   0.61907   0.25000   0.00000  Uiso   1.00
N456   N     0.50000   0.38093   0.25000   0.00000  Uiso   1.00
O457   O     0.43892   0.53821   0.24999   0.00000  Uiso   1.00
O458   O     0.45199   0.43637   0.38523   0.00000  Uiso   1.00
O459   O     0.54755   0.56458   0.38416   0.00000  Uiso   1.00
O460   O     0.54927   0.43658   0.11587   0.00000  Uiso   1.00
O461   O     0.56108   0.46179   0.25000   0.00000  Uiso   1.00
O462   O     0.56108   0.53821   0.25000   0.00000  Uiso   1.00
O463   O     0.43892   0.46179   0.24999   0.00000  Uiso   1.00
O464   O     0.50000   0.53822   0.18453   0.00000  Uiso   1.00
O465   O     0.50000   0.46178   0.31547   0.00000  Uiso   1.00
O466   O     0.50000   0.53822   0.31547   0.00000  Uiso   1.00
O467   O     0.50000   0.46178   0.18453   0.00000  Uiso   1.00
O468   O     0.45378   0.56486   0.11477   0.00000  Uiso   1.00
Zn469  Zn    0.50000   0.55104   0.25000   0.00000  Uiso   1.00
Zn470  Zn    0.50000   0.44896   0.25000   0.00000  Uiso   1.00
C471   C     0.75327   0.50000   0.25000   0.00000  Uiso   1.00
C472   C     0.97870   0.54135   0.24842   0.00000  Uiso   1.00
C473   C     0.97870   0.45865   0.25164   0.00000  Uiso   1.00
C474   C     0.68796   0.54137   0.24892   0.00000  Uiso   1.00
C475   C     0.81180   0.53275   0.04618   0.00000  Uiso   1.00
C476   C     0.81159   0.46690   0.45377   0.00000  Uiso   1.00
C477   C     0.85757   0.53243   0.45332   0.00000  Uiso   1.00
C478   C     0.85774   0.46718   0.04672   0.00000  Uiso   1.00
C479   C     0.81025   0.53236   0.09245   0.00000  Uiso   1.00
C480   C     0.80969   0.46777   0.40752   0.00000  Uiso   1.00
C481   C     0.85814   0.53212   0.40701   0.00000  Uiso   1.00
C482   C     0.91339   0.50000   0.25001   0.00000  Uiso   1.00
C483   C     0.85867   0.46797   0.09301   0.00000  Uiso   1.00
C484   C     0.83410   0.50008   0.11586   0.00000  Uiso   1.00
C485   C     0.83366   0.50000   0.38414   0.00000  Uiso   1.00
C486   C     0.83485   0.49982   0.02385   0.00000  Uiso   1.00
C487   C     0.83491   0.49952   0.47614   0.00000  Uiso   1.00
C488   C     0.95752   0.50000   0.25003   0.00000  Uiso   1.00
C489   C     0.70914   0.50000   0.25001   0.00000  Uiso   1.00
C490   C     0.74479   0.55179   0.11440   0.00000  Uiso   1.00
C491   C     0.71898   0.58873   0.13714   0.00000  Uiso   1.00
C492   C     0.67256   0.57757   0.13609   0.00000  Uiso   1.00
C493   C     0.83352   0.50002   0.16389   0.00000  Uiso   1.00
C494   C     0.74354   0.45144   0.38589   0.00000  Uiso   1.00
C495   C     0.71592   0.41533   0.36441   0.00000  Uiso   1.00
C496   C     0.67003   0.42882   0.36598   0.00000  Uiso   1.00
C497   C     0.92325   0.55163   0.38390   0.00000  Uiso   1.00
C498   C     0.94858   0.58821   0.35999   0.00000  Uiso   1.00
C499   C     0.99507   0.57733   0.36060   0.00000  Uiso   1.00
C500   C     0.92446   0.45144   0.11577   0.00000  Uiso   1.00
C501   C     0.95153   0.41574   0.13868   0.00000  Uiso   1.00
C502   C     0.99752   0.42884   0.13749   0.00000  Uiso   1.00
C503   C     0.83330   0.50000   0.33611   0.00000  Uiso   1.00
C504   C     0.85666   0.35733   0.21972   0.00000  Uiso   1.00
C505   C     0.80994   0.64265   0.28023   0.00000  Uiso   1.00
C506   C     0.81000   0.35732   0.28027   0.00000  Uiso   1.00
C507   C     0.85673   0.64266   0.21977   0.00000  Uiso   1.00
C508   C     0.68796   0.45863   0.25111   0.00000  Uiso   1.00
H509   H     0.87520   0.37554   0.19549   0.00000  Uiso   1.00
H510   H     0.96256   0.57360   0.24692   0.00000  Uiso   1.00
H511   H     0.96256   0.42640   0.25316   0.00000  Uiso   1.00
H512   H     0.70409   0.57364   0.24831   0.00000  Uiso   1.00
H513   H     0.74055   0.51934   0.13303   0.00000  Uiso   1.00
H514   H     0.73321   0.54758   0.07955   0.00000  Uiso   1.00
H515   H     0.72929   0.59241   0.17235   0.00000  Uiso   1.00
H516   H     0.72418   0.62163   0.11983   0.00000  Uiso   1.00
H517   H     0.99465   0.57591   0.10106   0.00000  Uiso   1.00
H518   H     0.98821   0.60439   0.15398   0.00000  Uiso   1.00
H519   H     0.99985   0.54455   0.15266   0.00000  Uiso   1.00
H520   H     0.79123   0.62442   0.30436   0.00000  Uiso   1.00
H521   H     0.74043   0.48363   0.36660   0.00000  Uiso   1.00
H522   H     0.73247   0.45703   0.42078   0.00000  Uiso   1.00
H523   H     0.72548   0.41047   0.32910   0.00000  Uiso   1.00
H524   H     0.72000   0.38257   0.38229   0.00000  Uiso   1.00
H525   H     0.99273   0.43219   0.40114   0.00000  Uiso   1.00
H526   H     0.98432   0.40235   0.34929   0.00000  Uiso   1.00
H527   H     0.99846   0.46154   0.34843   0.00000  Uiso   1.00
H528   H     0.92727   0.51886   0.36577   0.00000  Uiso   1.00
H529   H     0.93542   0.54808   0.41858   0.00000  Uiso   1.00
H530   H     0.93781   0.59106   0.32486   0.00000  Uiso   1.00
H531   H     0.79145   0.37553   0.30450   0.00000  Uiso   1.00
H532   H     0.94344   0.62145   0.37667   0.00000  Uiso   1.00
H533   H     0.67343   0.57650   0.39548   0.00000  Uiso   1.00
H534   H     0.67905   0.60384   0.34187   0.00000  Uiso   1.00
H535   H     0.66772   0.54398   0.34466   0.00000  Uiso   1.00
H536   H     0.92737   0.48407   0.13437   0.00000  Uiso   1.00
H537   H     0.93615   0.45614   0.08099   0.00000  Uiso   1.00
H538   H     0.94144   0.41194   0.17395   0.00000  Uiso   1.00
H539   H     0.94748   0.38252   0.12164   0.00000  Uiso   1.00
H540   H     0.67534   0.43114   0.10243   0.00000  Uiso   1.00
H541   H     0.68282   0.40271   0.15521   0.00000  Uiso   1.00
H542   H     0.87543   0.62444   0.19564   0.00000  Uiso   1.00
H543   H     0.66905   0.46201   0.15422   0.00000  Uiso   1.00
H544   H     0.79446   0.55810   0.02768   0.00000  Uiso   1.00
H545   H     0.79404   0.44165   0.47223   0.00000  Uiso   1.00
H546   H     0.87518   0.55783   0.47145   0.00000  Uiso   1.00
H547   H     0.87554   0.44186   0.02864   0.00000  Uiso   1.00
H548   H     0.70409   0.42636   0.25169   0.00000  Uiso   1.00
N549   N     0.83333   0.61907   0.25000   0.00000  Uiso   1.00
N550   N     0.83333   0.38093   0.25000   0.00000  Uiso   1.00
O551   O     0.77226   0.53821   0.24999   0.00000  Uiso   1.00
O552   O     0.78532   0.43637   0.38523   0.00000  Uiso   1.00
O553   O     0.88089   0.56458   0.38416   0.00000  Uiso   1.00
O554   O     0.88260   0.43658   0.11587   0.00000  Uiso   1.00
O555   O     0.89441   0.46179   0.25000   0.00000  Uiso   1.00
O556   O     0.89441   0.53821   0.25000   0.00000  Uiso   1.00
O557   O     0.77226   0.46179   0.24999   0.00000  Uiso   1.00
O558   O     0.83333   0.53822   0.18453   0.00000  Uiso   1.00
O559   O     0.83334   0.46178   0.31547   0.00000  Uiso   1.00
O560   O     0.83334   0.53822   0.31547   0.00000  Uiso   1.00
O561   O     0.83333   0.46178   0.18453   0.00000  Uiso   1.00
O562   O     0.78712   0.56486   0.11477   0.00000  Uiso   1.00
Zn563  Zn    0.83333   0.55104   0.25000   0.00000  Uiso   1.00
Zn564  Zn    0.83333   0.44896   0.25000   0.00000  Uiso   1.00
C565   C     0.08660   0.83333   0.25000   0.00000  Uiso   1.00
C566   C     0.31204   0.87468   0.24842   0.00000  Uiso   1.00
C567   C     0.31204   0.79198   0.25164   0.00000  Uiso   1.00
C568   C     0.02129   0.87470   0.24892   0.00000  Uiso   1.00
C569   C     0.14514   0.86609   0.04618   0.00000  Uiso   1.00
C570   C     0.14492   0.80023   0.45377   0.00000  Uiso   1.00
C571   C     0.19090   0.86577   0.45332   0.00000  Uiso   1.00
C572   C     0.19108   0.80051   0.04672   0.00000  Uiso   1.00
C573   C     0.14358   0.86569   0.09245   0.00000  Uiso   1.00
C574   C     0.14302   0.80110   0.40752   0.00000  Uiso   1.00
C575   C     0.19148   0.86546   0.40701   0.00000  Uiso   1.00
C576   C     0.24673   0.83333   0.25001   0.00000  Uiso   1.00
C577   C     0.19201   0.80131   0.09301   0.00000  Uiso   1.00
C578   C     0.16744   0.83341   0.11586   0.00000  Uiso   1.00
C579   C     0.16700   0.83334   0.38414   0.00000  Uiso   1.00
C580   C     0.16818   0.83315   0.02385   0.00000  Uiso   1.00
C581   C     0.16824   0.83285   0.47614   0.00000  Uiso   1.00
C582   C     0.29086   0.83333   0.25003   0.00000  Uiso   1.00
C583   C     0.04247   0.83333   0.25001   0.00000  Uiso   1.00
C584   C     0.07812   0.88512   0.11440   0.00000  Uiso   1.00
C585   C     0.05231   0.92206   0.13714   0.00000  Uiso   1.00
C586   C     0.00589   0.91090   0.13609   0.00000  Uiso   1.00
C587   C     0.16686   0.83335   0.16389   0.00000  Uiso   1.00
C588   C     0.07687   0.78477   0.38589   0.00000  Uiso   1.00
C589   C     0.04925   0.74867   0.36441   0.00000  Uiso   1.00
C590   C     0.00336   0.76216   0.36598   0.00000  Uiso   1.00
C591   C     0.25658   0.88496   0.38390   0.00000  Uiso   1.00
C592   C     0.28191   0.92154   0.35999   0.00000  Uiso   1.00
C593   C     0.32840   0.91066   0.36060   0.00000  Uiso   1.00
C594   C     0.25779   0.78477   0.11577   0.00000  Uiso   1.00
C595   C     0.28486   0.74907   0.13868   0.00000  Uiso   1.00
C596   C     0.33085   0.76218   0.13749   0.00000  Uiso   1.00
C597   C     0.16663   0.83334   0.33611   0.00000  Uiso   1.00
C598   C     0.19000   0.69066   0.21972   0.00000  Uiso   1.00
C599   C     0.14327   0.97599   0.28023   0.00000  Uiso   1.00
C600   C     0.14333   0.69066   0.28027   0.00000  Uiso   1.00
C601   C     0.19006   0.97600   0.21977   0.00000  Uiso   1.00
C602   C     0.02129   0.79197   0.25111   0.00000  Uiso   1.00
H603   H     0.20854   0.70887   0.19549   0.00000  Uiso   1.00
H604   H     0.29590   0.90693   0.24692   0.00000  Uiso   1.00
H605   H     0.29590   0.75974   0.25316   0.00000  Uiso   1.00
H606   H     0.03742   0.90697   0.24831   0.00000  Uiso   1.00
H607   H     0.07388   0.85267   0.13303   0.00000  Uiso   1.00
H608   H     0.06654   0.88091   0.07955   0.00000  Uiso   1.00
H609   H     0.06262   0.92574   0.17235   0.00000  Uiso   1.00
H610   H     0.05751   0.95496   0.11983   0.00000  Uiso   1.00
H611   H     0.32798   0.90924   0.10106   0.00000  Uiso   1.00
H612   H     0.32154   0.93772   0.15398   0.00000  Uiso   1.00
H613   H     0.33318   0.87788   0.15266   0.00000  Uiso   1.00
H614   H     0.12456   0.95776   0.30436   0.00000  Uiso   1.00
H615   H     0.07377   0.81697   0.36660   0.00000  Uiso   1.00
H616   H     0.06580   0.79036   0.42078   0.00000  Uiso   1.00
H617   H     0.05881   0.74380   0.32910   0.00000  Uiso   1.00
H618   H     0.05333   0.71590   0.38229   0.00000  Uiso   1.00
H619   H     0.32606   0.76553   0.40114   0.00000  Uiso   1.00
H620   H     0.31765   0.73569   0.34929   0.00000  Uiso   1.00
H621   H     0.33179   0.79488   0.34843   0.00000  Uiso   1.00
H622   H     0.26061   0.85219   0.36577   0.00000  Uiso   1.00
H623   H     0.26875   0.88142   0.41858   0.00000  Uiso   1.00
H624   H     0.27114   0.92439   0.32486   0.00000  Uiso   1.00
H625   H     0.12479   0.70886   0.30450   0.00000  Uiso   1.00
H626   H     0.27678   0.95478   0.37667   0.00000  Uiso   1.00
H627   H     0.00676   0.90983   0.39548   0.00000  Uiso   1.00
H628   H     0.01239   0.93717   0.34187   0.00000  Uiso   1.00
H629   H     0.00105   0.87732   0.34466   0.00000  Uiso   1.00
H630   H     0.26071   0.81740   0.13437   0.00000  Uiso   1.00
H631   H     0.26949   0.78947   0.08099   0.00000  Uiso   1.00
H632   H     0.27478   0.74527   0.17395   0.00000  Uiso   1.00
H633   H     0.28082   0.71585   0.12164   0.00000  Uiso   1.00
H634   H     0.00867   0.76448   0.10243   0.00000  Uiso   1.00
H635   H     0.01615   0.73604   0.15521   0.00000  Uiso   1.00
H636   H     0.20877   0.95778   0.19564   0.00000  Uiso   1.00
H637   H     0.00238   0.79534   0.15422   0.00000  Uiso   1.00
H638   H     0.12779   0.89144   0.02768   0.00000  Uiso   1.00
H639   H     0.12737   0.77498   0.47223   0.00000  Uiso   1.00
H640   H     0.20852   0.89116   0.47145   0.00000  Uiso   1.00
H641   H     0.20887   0.77520   0.02864   0.00000  Uiso   1.00
H642   H     0.03743   0.75969   0.25169   0.00000  Uiso   1.00
N643   N     0.16667   0.95240   0.25000   0.00000  Uiso   1.00
N644   N     0.16667   0.71427   0.25000   0.00000  Uiso   1.00
O645   O     0.10559   0.87154   0.24999   0.00000  Uiso   1.00
O646   O     0.11866   0.76970   0.38523   0.00000  Uiso   1.00
O647   O     0.21422   0.89791   0.38416   0.00000  Uiso   1.00
O648   O     0.21593   0.76992   0.11587   0.00000  Uiso   1.00
O649   O     0.22774   0.79513   0.25000   0.00000  Uiso   1.00
O650   O     0.22774   0.87154   0.25000   0.00000  Uiso   1.00
O651   O     0.10559   0.79513   0.24999   0.00000  Uiso   1.00
O652   O     0.16666   0.87155   0.18453   0.00000  Uiso   1.00
O653   O     0.16667   0.79511   0.31547   0.00000  Uiso   1.00
O654   O     0.16667   0.87155   0.31547   0.00000  Uiso   1.00
O655   O     0.16666   0.79511   0.18453   0.00000  Uiso   1.00
O656   O     0.12045   0.89819   0.11477   0.00000  Uiso   1.00
Zn657  Zn    0.16667   0.88437   0.25000   0.00000  Uiso   1.00
Zn658  Zn    0.16667   0.78229   0.25000   0.00000  Uiso   1.00
C659   C     0.41994   0.83333   0.25000   0.00000  Uiso   1.00
C660   C     0.64537   0.87468   0.24842   0.00000  Uiso   1.00
C661   C     0.64537   0.79198   0.25164   0.00000  Uiso   1.00
C662   C     0.35462   0.87470   0.24892   0.00000  Uiso   1.00
C663   C     0.47847   0.86609   0.04618   0.00000  Uiso   1.00
C664   C     0.47825   0.80023   0.45377   0.00000  Uiso   1.00
C665   C     0.52423   0.86577   0.45332   0.00000  Uiso   1.00
C666   C     0.52441   0.80051   0.04672   0.00000  Uiso   1.00
C667   C     0.47692   0.86569   0.09245   0.00000  Uiso   1.00
C668   C     0.47635   0.80110   0.40752   0.00000  Uiso   1.00
C669   C     0.52481   0.86546   0.40701   0.00000  Uiso   1.00
C670   C     0.58006   0.83333   0.25001   0.00000  Uiso   1.00
C671   C     0.52534   0.80131   0.09301   0.00000  Uiso   1.00
C672   C     0.50077   0.83341   0.11586   0.00000  Uiso   1.00
C673   C     0.50033   0.83334   0.38414   0.00000  Uiso   1.00
C674   C     0.50152   0.83315   0.02385   0.00000  Uiso   1.00
C675   C     0.50158   0.83285   0.47614   0.00000  Uiso   1.00
C676   C     0.62419   0.83333   0.25003   0.00000  Uiso   1.00
C677   C     0.37580   0.83333   0.25001   0.00000  Uiso   1.00
C678   C     0.41146   0.88512   0.11440   0.00000  Uiso   1.00
C679   C     0.38565   0.92206   0.13714   0.00000  Uiso   1.00
C680   C     0.33922   0.91090   0.13609   0.00000  Uiso   1.00
C681   C     0.50019   0.83335   0.16389   0.00000  Uiso   1.00
C682   C     0.41020   0.78477   0.38589   0.00000  Uiso   1.00
C683   C     0.38258   0.74867   0.36441   0.00000  Uiso   1.00
C684   C     0.33669   0.76216   0.36598   0.00000  Uiso   1.00
C685   C     0.58991   0.88496   0.38390   0.00000  Uiso   1.00
C686   C     0.61524   0.92154   0.35999   0.00000  Uiso   1.00
C687   C     0.66173   0.91066   0.36060   0.00000  Uiso   1.00
C688   C     0.59112   0.78477   0.11577   0.00000  Uiso   1.00
C689   C     0.61819   0.74907   0.13868   0.00000  Uiso   1.00
C690   C     0.66419   0.76218   0.13749   0.00000  Uiso   1.00
C691   C     0.49996   0.83334   0.33611   0.00000  Uiso   1.00
C692   C     0.52333   0.69066   0.21972   0.00000  Uiso   1.00
C693   C     0.47661   0.97599   0.28023   0.00000  Uiso   1.00
C694   C     0.47667   0.69066   0.28027   0.00000  Uiso   1.00
C695   C     0.52339   0.97600   0.21977   0.00000  Uiso   1.00
C696   C     0.35462   0.79197   0.25111   0.00000  Uiso   1.00
H697   H     0.54187   0.70887   0.19549   0.00000  Uiso   1.00
H698   H     0.62923   0.90693   0.24692   0.00000  Uiso   1.00
H699   H     0.62923   0.75974   0.25316   0.00000  Uiso   1.00
H700   H     0.37076   0.90697   0.24831   0.00000  Uiso   1.00
H701   H     0.40721   0.85267   0.13303   0.00000  Uiso   1.00
H702   H     0.39988   0.88091   0.07955   0.00000  Uiso   1.00
H703   H     0.39596   0.92574   0.17235   0.00000  Uiso   1.00
H704   H     0.39084   0.95496   0.11983   0.00000  Uiso   1.00
H705   H     0.66131   0.90924   0.10106   0.00000  Uiso   1.00
H706   H     0.65488   0.93772   0.15398   0.00000  Uiso   1.00
H707   H     0.66651   0.87788   0.15266   0.00000  Uiso   1.00
H708   H     0.45790   0.95776   0.30436   0.00000  Uiso   1.00
H709   H     0.40710   0.81697   0.36660   0.00000  Uiso   1.00
H710   H     0.39914   0.79036   0.42078   0.00000  Uiso   1.00
H711   H     0.39215   0.74380   0.32910   0.00000  Uiso   1.00
H712   H     0.38667   0.71590   0.38229   0.00000  Uiso   1.00
H713   H     0.65939   0.76553   0.40114   0.00000  Uiso   1.00
H714   H     0.65098   0.73569   0.34929   0.00000  Uiso   1.00
H715   H     0.66513   0.79488   0.34843   0.00000  Uiso   1.00
H716   H     0.59394   0.85219   0.36577   0.00000  Uiso   1.00
H717   H     0.60208   0.88142   0.41858   0.00000  Uiso   1.00
H718   H     0.60447   0.92439   0.32486   0.00000  Uiso   1.00
H719   H     0.45812   0.70886   0.30450   0.00000  Uiso   1.00
H720   H     0.61011   0.95478   0.37667   0.00000  Uiso   1.00
H721   H     0.34010   0.90983   0.39548   0.00000  Uiso   1.00
H722   H     0.34572   0.93717   0.34187   0.00000  Uiso   1.00
H723   H     0.33438   0.87732   0.34466   0.00000  Uiso   1.00
H724   H     0.59404   0.81740   0.13437   0.00000  Uiso   1.00
H725   H     0.60282   0.78947   0.08099   0.00000  Uiso   1.00
H726   H     0.60811   0.74527   0.17395   0.00000  Uiso   1.00
H727   H     0.61415   0.71585   0.12164   0.00000  Uiso   1.00
H728   H     0.34200   0.76448   0.10243   0.00000  Uiso   1.00
H729   H     0.34949   0.73604   0.15521   0.00000  Uiso   1.00
H730   H     0.54210   0.95778   0.19564   0.00000  Uiso   1.00
H731   H     0.33572   0.79534   0.15422   0.00000  Uiso   1.00
H732   H     0.46113   0.89144   0.02768   0.00000  Uiso   1.00
H733   H     0.46070   0.77498   0.47223   0.00000  Uiso   1.00
H734   H     0.54185   0.89116   0.47145   0.00000  Uiso   1.00
H735   H     0.54220   0.77520   0.02864   0.00000  Uiso   1.00
H736   H     0.37076   0.75969   0.25169   0.00000  Uiso   1.00
N737   N     0.50000   0.95240   0.25000   0.00000  Uiso   1.00
N738   N     0.50000   0.71427   0.25000   0.00000  Uiso   1.00
O739   O     0.43892   0.87154   0.24999   0.00000  Uiso   1.00
O740   O     0.45199   0.76970   0.38523   0.00000  Uiso   1.00
O741   O     0.54755   0.89791   0.38416   0.00000  Uiso   1.00
O742   O     0.54927   0.76992   0.11587   0.00000  Uiso   1.00
O743   O     0.56108   0.79513   0.25000   0.00000  Uiso   1.00
O744   O     0.56108   0.87154   0.25000   0.00000  Uiso   1.00
O745   O     0.43892   0.79513   0.24999   0.00000  Uiso   1.00
O746   O     0.50000   0.87155   0.18453   0.00000  Uiso   1.00
O747   O     0.50000   0.79511   0.31547   0.00000  Uiso   1.00
O748   O     0.50000   0.87155   0.31547   0.00000  Uiso   1.00
O749   O     0.50000   0.79511   0.18453   0.00000  Uiso   1.00
O750   O     0.45378   0.89819   0.11477   0.00000  Uiso   1.00
Zn751  Zn    0.50000   0.88437   0.25000   0.00000  Uiso   1.00
Zn752  Zn    0.50000   0.78229   0.25000   0.00000  Uiso   1.00
C753   C     0.75327   0.83333   0.25000   0.00000  Uiso   1.00
C754   C     0.97870   0.87468   0.24842   0.00000  Uiso   1.00
C755   C     0.97870   0.79198   0.25164   0.00000  Uiso   1.00
C756   C     0.68796   0.87470   0.24892   0.00000  Uiso   1.00
C757   C     0.81180   0.86609   0.04618   0.00000  Uiso   1.00
C758   C     0.81159   0.80023   0.45377   0.00000  Uiso   1.00
C759   C     0.85757   0.86577   0.45332   0.00000  Uiso   1.00
C760   C     0.85774   0.80051   0.04672   0.00000  Uiso   1.00
C761   C     0.81025   0.86569   0.09245   0.00000  Uiso   1.00
C762   C     0.80969   0.80110   0.40752   0.00000  Uiso   1.00
C763   C     0.85814   0.86546   0.40701   0.00000  Uiso   1.00
C764   C     0.91339   0.83333   0.25001   0.00000  Uiso   1.00
C765   C     0.85867   0.80131   0.09301   0.00000  Uiso   1.00
C766   C     0.83410   0.83341   0.11586   0.00000  Uiso   1.00
C767   C     0.83366   0.83334   0.38414   0.00000  Uiso   1.00
C768   C     0.83485   0.83315   0.02385   0.00000  Uiso   1.00
C769   C     0.83491   0.83285   0.47614   0.00000  Uiso   1.00
C770   C     0.95752   0.83333   0.25003   0.00000  Uiso   1.00
C771   C     0.70914   0.83333   0.25001   0.00000  Uiso   1.00
C772   C     0.74479   0.88512   0.11440   0.00000  Uiso   1.00
C773   C     0.71898   0.92206   0.13714   0.00000  Uiso   1.00
C774   C     0.67256   0.91090   0.13609   0.00000  Uiso   1.00
C775   C     0.83352   0.83335   0.16389   0.00000  Uiso   1.00
C776   C     0.74354   0.78477   0.38589   0.00000  Uiso   1.00
C777   C     0.71592   0.74867   0.36441   0.00000  Uiso   1.00
C778   C     0.67003   0.76216   0.36598   0.00000  Uiso   1.00
C779   C     0.92325   0.88496   0.38390   0.00000  Uiso   1.00
C780   C     0.94858   0.92154   0.35999   0.00000  Uiso   1.00
C781   C     0.99507   0.91066   0.36060   0.00000  Uiso   1.00
C782   C     0.92446   0.78477   0.11577   0.00000  Uiso   1.00
C783   C     0.95153   0.74907   0.13868   0.00000  Uiso   1.00
C784   C     0.99752   0.76218   0.13749   0.00000  Uiso   1.00
C785   C     0.83330   0.83334   0.33611   0.00000  Uiso   1.00
C786   C     0.85666   0.69066   0.21972   0.00000  Uiso   1.00
C787   C     0.80994   0.97599   0.28023   0.00000  Uiso   1.00
C788   C     0.81000   0.69066   0.28027   0.00000  Uiso   1.00
C789   C     0.85673   0.97600   0.21977   0.00000  Uiso   1.00
C790   C     0.68796   0.79197   0.25111   0.00000  Uiso   1.00
H791   H     0.87520   0.70887   0.19549   0.00000  Uiso   1.00
H792   H     0.96256   0.90693   0.24692   0.00000  Uiso   1.00
H793   H     0.96256   0.75974   0.25316   0.00000  Uiso   1.00
H794   H     0.70409   0.90697   0.24831   0.00000  Uiso   1.00
H795   H     0.74055   0.85267   0.13303   0.00000  Uiso   1.00
H796   H     0.73321   0.88091   0.07955   0.00000  Uiso   1.00
H797   H     0.72929   0.92574   0.17235   0.00000  Uiso   1.00
H798   H     0.72418   0.95496   0.11983   0.00000  Uiso   1.00
H799   H     0.99465   0.90924   0.10106   0.00000  Uiso   1.00
H800   H     0.98821   0.93772   0.15398   0.00000  Uiso   1.00
H801   H     0.99985   0.87788   0.15266   0.00000  Uiso   1.00
H802   H     0.79123   0.95776   0.30436   0.00000  Uiso   1.00
H803   H     0.74043   0.81697   0.36660   0.00000  Uiso   1.00
H804   H     0.73247   0.79036   0.42078   0.00000  Uiso   1.00
H805   H     0.72548   0.74380   0.32910   0.00000  Uiso   1.00
H806   H     0.72000   0.71590   0.38229   0.00000  Uiso   1.00
H807   H     0.99273   0.76553   0.40114   0.00000  Uiso   1.00
H808   H     0.98432   0.73569   0.34929   0.00000  Uiso   1.00
H809   H     0.99846   0.79488   0.34843   0.00000  Uiso   1.00
H810   H     0.92727   0.85219   0.36577   0.00000  Uiso   1.00
H811   H     0.93542   0.88142   0.41858   0.00000  Uiso   1.00
H812   H     0.93781   0.92439   0.32486   0.00000  Uiso   1.00
H813   H     0.79145   0.70886   0.30450   0.00000  Uiso   1.00
H814   H     0.94344   0.95478   0.37667   0.00000  Uiso   1.00
H815   H     0.67343   0.90983   0.39548   0.00000  Uiso   1.00
H816   H     0.67905   0.93717   0.34187   0.00000  Uiso   1.00
H817   H     0.66772   0.87732   0.34466   0.00000  Uiso   1.00
H818   H     0.92737   0.81740   0.13437   0.00000  Uiso   1.00
H819   H     0.93615   0.78947   0.08099   0.00000  Uiso   1.00
H820   H     0.94144   0.74527   0.17395   0.00000  Uiso   1.00
H821   H     0.94748   0.71585   0.12164   0.00000  Uiso   1.00
H822   H     0.67534   0.76448   0.10243   0.00000  Uiso   1.00
H823   H     0.68282   0.73604   0.15521   0.00000  Uiso   1.00
H824   H     0.87543   0.95778   0.19564   0.00000  Uiso   1.00
H825   H     0.66905   0.79534   0.15422   0.00000  Uiso   1.00
H826   H     0.79446   0.89144   0.02768   0.00000  Uiso   1.00
H827   H     0.79404   0.77498   0.47223   0.00000  Uiso   1.00
H828   H     0.87518   0.89116   0.47145   0.00000  Uiso   1.00
H829   H     0.87554   0.77520   0.02864   0.00000  Uiso   1.00
H830   H     0.70409   0.75969   0.25169   0.00000  Uiso   1.00
N831   N     0.83333   0.95240   0.25000   0.00000  Uiso   1.00
N832   N     0.83333   0.71427   0.25000   0.00000  Uiso   1.00
O833   O     0.77226   0.87154   0.24999   0.00000  Uiso   1.00
O834   O     0.78532   0.76970   0.38523   0.00000  Uiso   1.00
O835   O     0.88089   0.89791   0.38416   0.00000  Uiso   1.00
O836   O     0.88260   0.76992   0.11587   0.00000  Uiso   1.00
O837   O     0.89441   0.79513   0.25000   0.00000  Uiso   1.00
O838   O     0.89441   0.87154   0.25000   0.00000  Uiso   1.00
O839   O     0.77226   0.79513   0.24999   0.00000  Uiso   1.00
O840   O     0.83333   0.87155   0.18453   0.00000  Uiso   1.00
O841   O     0.83334   0.79511   0.31547   0.00000  Uiso   1.00
O842   O     0.83334   0.87155   0.31547   0.00000  Uiso   1.00
O843   O     0.83333   0.79511   0.18453   0.00000  Uiso   1.00
O844   O     0.78712   0.89819   0.11477   0.00000  Uiso   1.00
Zn845  Zn    0.83333   0.88437   0.25000   0.00000  Uiso   1.00
Zn846  Zn    0.83333   0.78229   0.25000   0.00000  Uiso   1.00
C847   C     0.08660   0.16667   0.75000   0.00000  Uiso   1.00
C848   C     0.31204   0.20802   0.74842   0.00000  Uiso   1.00
C849   C     0.31204   0.12532   0.75164   0.00000  Uiso   1.00
C850   C     0.02129   0.20803   0.74892   0.00000  Uiso   1.00
C851   C     0.14514   0.19942   0.54618   0.00000  Uiso   1.00
C852   C     0.14492   0.13356   0.95377   0.00000  Uiso   1.00
C853   C     0.19090   0.19910   0.95332   0.00000  Uiso   1.00
C854   C     0.19108   0.13385   0.54672   0.00000  Uiso   1.00
C855   C     0.14358   0.19902   0.59245   0.00000  Uiso   1.00
C856   C     0.14302   0.13444   0.90752   0.00000  Uiso   1.00
C857   C     0.19148   0.19879   0.90701   0.00000  Uiso   1.00
C858   C     0.24673   0.16667   0.75001   0.00000  Uiso   1.00
C859   C     0.19201   0.13464   0.59301   0.00000  Uiso   1.00
C860   C     0.16744   0.16674   0.61586   0.00000  Uiso   1.00
C861   C     0.16700   0.16667   0.88414   0.00000  Uiso   1.00
C862   C     0.16818   0.16648   0.52385   0.00000  Uiso   1.00
C863   C     0.16824   0.16619   0.97614   0.00000  Uiso   1.00
C864   C     0.29086   0.16667   0.75003   0.00000  Uiso   1.00
C865   C     0.04247   0.16667   0.75001   0.00000  Uiso   1.00
C866   C     0.07812   0.21845   0.61440   0.00000  Uiso   1.00
C867   C     0.05231   0.25539   0.63714   0.00000  Uiso   1.00
C868   C     0.00589   0.24424   0.63609   0.00000  Uiso   1.00
C869   C     0.16686   0.16668   0.66389   0.00000  Uiso   1.00
C870   C     0.07687   0.11811   0.88589   0.00000  Uiso   1.00
C871   C     0.04925   0.08200   0.86441   0.00000  Uiso   1.00
C872   C     0.00336   0.09549   0.86598   0.00000  Uiso   1.00
C873   C     0.25658   0.21829   0.88390   0.00000  Uiso   1.00
C874   C     0.28191   0.25488   0.85999   0.00000  Uiso   1.00
C875   C     0.32840   0.24399   0.86060   0.00000  Uiso   1.00
C876   C     0.25779   0.11811   0.61577   0.00000  Uiso   1.00
C877   C     0.28486   0.08240   0.63868   0.00000  Uiso   1.00
C878   C     0.33085   0.09551   0.63749   0.00000  Uiso   1.00
C879   C     0.16663   0.16667   0.83611   0.00000  Uiso   1.00
C880   C     0.19000   0.02400   0.71972   0.00000  Uiso   1.00
C881   C     0.14327   0.30932   0.78023   0.00000  Uiso   1.00
C882   C     0.14333   0.02399   0.78027   0.00000  Uiso   1.00
C883   C     0.19006   0.30933   0.71977   0.00000  Uiso   1.00
C884   C     0.02129   0.12530   0.75111   0.00000  Uiso   1.00
H885   H     0.20854   0.04221   0.69549   0.00000  Uiso   1.00
H886   H     0.29590   0.24026   0.74692   0.00000  Uiso   1.00
H887   H     0.29590   0.09307   0.75316   0.00000  Uiso   1.00
H888   H     0.03742   0.24031   0.74831   0.00000  Uiso   1.00
H889   H     0.07388   0.18600   0.63303   0.00000  Uiso   1.00
H890   H     0.06654   0.21425   0.57955   0.00000  Uiso   1.00
H891   H     0.06262   0.25907   0.67235   0.00000  Uiso   1.00
H892   H     0.05751   0.28829   0.61983   0.00000  Uiso   1.00
H893   H     0.32798   0.24257   0.60106   0.00000  Uiso   1.00
H894   H     0.32154   0.27105   0.65398   0.00000  Uiso   1.00
H895   H     0.33318   0.21122   0.65266   0.00000  Uiso   1.00
H896   H     0.12456   0.29109   0.80436   0.00000  Uiso   1.00
H897   H     0.07377   0.15030   0.86660   0.00000  Uiso   1.00
H898   H     0.06580   0.12369   0.92078   0.00000  Uiso   1.00
H899   H     0.05881   0.07713   0.82910   0.00000  Uiso   1.00
H900   H     0.05333   0.04924   0.88229   0.00000  Uiso   1.00
H901   H     0.32606   0.09886   0.90114   0.00000  Uiso   1.00
H902   H     0.31765   0.06902   0.84929   0.00000  Uiso   1.00
H903   H     0.33179   0.12821   0.84843   0.00000  Uiso   1.00
H904   H     0.26061   0.18553   0.86577   0.00000  Uiso   1.00
H905   H     0.26875   0.21475   0.91858   0.00000  Uiso   1.00
H906   H     0.27114   0.25773   0.82486   0.00000  Uiso   1.00
H907   H     0.12479   0.04219   0.80450   0.00000  Uiso   1.00
H908   H     0.27678   0.28812   0.87667   0.00000  Uiso   1.00
H909   H     0.00676   0.24316   0.89548   0.00000  Uiso   1.00
H910   H     0.01239   0.27051   0.84187   0.00000  Uiso   1.00
H911   H     0.00105   0.21065   0.84466   0.00000  Uiso   1.00
H912   H     0.26071   0.15074   0.63437   0.00000  Uiso   1.00
H913   H     0.26949   0.12280   0.58099   0.00000  Uiso   1.00
H914   H     0.27478   0.07860   0.67395   0.00000  Uiso   1.00
H915   H     0.28082   0.04919   0.62164   0.00000  Uiso   1.00
H916   H     0.00867   0.09781   0.60243   0.00000  Uiso   1.00
H917   H     0.01615   0.06937   0.65521   0.00000  Uiso   1.00
H918   H     0.20877   0.29111   0.69564   0.00000  Uiso   1.00
H919   H     0.00238   0.12867   0.65422   0.00000  Uiso   1.00
H920   H     0.12779   0.22477   0.52768   0.00000  Uiso   1.00
H921   H     0.12737   0.10832   0.97223   0.00000  Uiso   1.00
H922   H     0.20852   0.22450   0.97145   0.00000  Uiso   1.00
H923   H     0.20887   0.10853   0.52864   0.00000  Uiso   1.00
H924   H     0.03743   0.09303   0.75169   0.00000  Uiso   1.00
N925   N     0.16667   0.28573   0.75000   0.00000  Uiso   1.00
N926   N     0.16667   0.04760   0.75000   0.00000  Uiso   1.00
O927   O     0.10559   0.20487   0.74999   0.00000  Uiso   1.00
O928   O     0.11866   0.10304   0.88523   0.00000  Uiso   1.00
O929   O     0.21422   0.23125   0.88416   0.00000  Uiso   1.00
O930   O     0.21593   0.10325   0.61587   0.00000  Uiso   1.00
O931   O     0.22774   0.12846   0.75000   0.00000  Uiso   1.00
O932   O     0.22774   0.20487   0.75000   0.00000  Uiso   1.00
O933   O     0.10559   0.12846   0.74999   0.00000  Uiso   1.00
O934   O     0.16666   0.20489   0.68453   0.00000  Uiso   1.00
O935   O     0.16667   0.12845   0.81547   0.00000  Uiso   1.00
O936   O     0.16667   0.20489   0.81547   0.00000  Uiso   1.00
O937   O     0.16666   0.12845   0.68453   0.00000  Uiso   1.00
O938   O     0.12045   0.23152   0.61477   0.00000  Uiso   1.00
Zn939  Zn    0.16667   0.21771   0.75000   0.00000  Uiso   1.00
Zn940  Zn    0.16667   0.11563   0.75000   0.00000  Uiso   1.00
C941   C     0.41994   0.16667   0.75000   0.00000  Uiso   1.00
C942   C     0.64537   0.20802   0.74842   0.00000  Uiso   1.00
C943   C     0.64537   0.12532   0.75164   0.00000  Uiso   1.00
C944   C     0.35462   0.20803   0.74892   0.00000  Uiso   1.00
C945   C     0.47847   0.19942   0.54618   0.00000  Uiso   1.00
C946   C     0.47825   0.13356   0.95377   0.00000  Uiso   1.00
C947   C     0.52423   0.19910   0.95332   0.00000  Uiso   1.00
C948   C     0.52441   0.13385   0.54672   0.00000  Uiso   1.00
C949   C     0.47692   0.19902   0.59245   0.00000  Uiso   1.00
C950   C     0.47635   0.13444   0.90752   0.00000  Uiso   1.00
C951   C     0.52481   0.19879   0.90701   0.00000  Uiso   1.00
C952   C     0.58006   0.16667   0.75001   0.00000  Uiso   1.00
C953   C     0.52534   0.13464   0.59301   0.00000  Uiso   1.00
C954   C     0.50077   0.16674   0.61586   0.00000  Uiso   1.00
C955   C     0.50033   0.16667   0.88414   0.00000  Uiso   1.00
C956   C     0.50152   0.16648   0.52385   0.00000  Uiso   1.00
C957   C     0.50158   0.16619   0.97614   0.00000  Uiso   1.00
C958   C     0.62419   0.16667   0.75003   0.00000  Uiso   1.00
C959   C     0.37580   0.16667   0.75001   0.00000  Uiso   1.00
C960   C     0.41146   0.21845   0.61440   0.00000  Uiso   1.00
C961   C     0.38565   0.25539   0.63714   0.00000  Uiso   1.00
C962   C     0.33922   0.24424   0.63609   0.00000  Uiso   1.00
C963   C     0.50019   0.16668   0.66389   0.00000  Uiso   1.00
C964   C     0.41020   0.11811   0.88589   0.00000  Uiso   1.00
C965   C     0.38258   0.08200   0.86441   0.00000  Uiso   1.00
C966   C     0.33669   0.09549   0.86598   0.00000  Uiso   1.00
C967   C     0.58991   0.21829   0.88390   0.00000  Uiso   1.00
C968   C     0.61524   0.25488   0.85999   0.00000  Uiso   1.00
C969   C     0.66173   0.24399   0.86060   0.00000  Uiso   1.00
C970   C     0.59112   0.11811   0.61577   0.00000  Uiso   1.00
C971   C     0.61819   0.08240   0.63868   0.00000  Uiso   1.00
C972   C     0.66419   0.09551   0.63749   0.00000  Uiso   1.00
C973   C     0.49996   0.16667   0.83611   0.00000  Uiso   1.00
C974   C     0.52333   0.02400   0.71972   0.00000  Uiso   1.00
C975   C     0.47661   0.30932   0.78023   0.00000  Uiso   1.00
C976   C     0.47667   0.02399   0.78027   0.00000  Uiso   1.00
C977   C     0.52339   0.30933   0.71977   0.00000  Uiso   1.00
C978   C     0.35462   0.12530   0.75111   0.00000  Uiso   1.00
H979   H     0.54187   0.04221   0.69549   0.00000  Uiso   1.00
H980   H     0.62923   0.24026   0.74692   0.00000  Uiso   1.00
H981   H     0.62923   0.09307   0.75316   0.00000  Uiso   1.00
H982   H     0.37076   0.24031   0.74831   0.00000  Uiso   1.00
H983   H     0.40721   0.18600   0.63303   0.00000  Uiso   1.00
H984   H     0.39988   0.21425   0.57955   0.00000  Uiso   1.00
H985   H     0.39596   0.25907   0.67235   0.00000  Uiso   1.00
H986   H     0.39084   0.28829   0.61983   0.00000  Uiso   1.00
H987   H     0.66131   0.24257   0.60106   0.00000  Uiso   1.00
H988   H     0.65488   0.27105   0.65398   0.00000  Uiso   1.00
H989   H     0.66651   0.21122   0.65266   0.00000  Uiso   1.00
H990   H     0.45790   0.29109   0.80436   0.00000  Uiso   1.00
H991   H     0.40710   0.15030   0.86660   0.00000  Uiso   1.00
H992   H     0.39914   0.12369   0.92078   0.00000  Uiso   1.00
H993   H     0.39215   0.07713   0.82910   0.00000  Uiso   1.00
H994   H     0.38667   0.04924   0.88229   0.00000  Uiso   1.00
H995   H     0.65939   0.09886   0.90114   0.00000  Uiso   1.00
H996   H     0.65098   0.06902   0.84929   0.00000  Uiso   1.00
H997   H     0.66513   0.12821   0.84843   0.00000  Uiso   1.00
H998   H     0.59394   0.18553   0.86577   0.00000  Uiso   1.00
H999   H     0.60208   0.21475   0.91858   0.00000  Uiso   1.00
H1000  H     0.60447   0.25773   0.82486   0.00000  Uiso   1.00
H1001  H     0.45812   0.04219   0.80450   0.00000  Uiso   1.00
H1002  H     0.61011   0.28812   0.87667   0.00000  Uiso   1.00
H1003  H     0.34010   0.24316   0.89548   0.00000  Uiso   1.00
H1004  H     0.34572   0.27051   0.84187   0.00000  Uiso   1.00
H1005  H     0.33438   0.21065   0.84466   0.00000  Uiso   1.00
H1006  H     0.59404   0.15074   0.63437   0.00000  Uiso   1.00
H1007  H     0.60282   0.12280   0.58099   0.00000  Uiso   1.00
H1008  H     0.60811   0.07860   0.67395   0.00000  Uiso   1.00
H1009  H     0.61415   0.04919   0.62164   0.00000  Uiso   1.00
H1010  H     0.34200   0.09781   0.60243   0.00000  Uiso   1.00
H1011  H     0.34949   0.06937   0.65521   0.00000  Uiso   1.00
H1012  H     0.54210   0.29111   0.69564   0.00000  Uiso   1.00
H1013  H     0.33572   0.12867   0.65422   0.00000  Uiso   1.00
H1014  H     0.46113   0.22477   0.52768   0.00000  Uiso   1.00
H1015  H     0.46070   0.10832   0.97223   0.00000  Uiso   1.00
H1016  H     0.54185   0.22450   0.97145   0.00000  Uiso   1.00
H1017  H     0.54220   0.10853   0.52864   0.00000  Uiso   1.00
H1018  H     0.37076   0.09303   0.75169   0.00000  Uiso   1.00
N1019  N     0.50000   0.28573   0.75000   0.00000  Uiso   1.00
N1020  N     0.50000   0.04760   0.75000   0.00000  Uiso   1.00
O1021  O     0.43892   0.20487   0.74999   0.00000  Uiso   1.00
O1022  O     0.45199   0.10304   0.88523   0.00000  Uiso   1.00
O1023  O     0.54755   0.23125   0.88416   0.00000  Uiso   1.00
O1024  O     0.54927   0.10325   0.61587   0.00000  Uiso   1.00
O1025  O     0.56108   0.12846   0.75000   0.00000  Uiso   1.00
O1026  O     0.56108   0.20487   0.75000   0.00000  Uiso   1.00
O1027  O     0.43892   0.12846   0.74999   0.00000  Uiso   1.00
O1028  O     0.50000   0.20489   0.68453   0.00000  Uiso   1.00
O1029  O     0.50000   0.12845   0.81547   0.00000  Uiso   1.00
O1030  O     0.50000   0.20489   0.81547   0.00000  Uiso   1.00
O1031  O     0.50000   0.12845   0.68453   0.00000  Uiso   1.00
O1032  O     0.45378   0.23152   0.61477   0.00000  Uiso   1.00
Zn1033 Zn    0.50000   0.21771   0.75000   0.00000  Uiso   1.00
Zn1034 Zn    0.50000   0.11563   0.75000   0.00000  Uiso   1.00
C1035  C     0.75327   0.16667   0.75000   0.00000  Uiso   1.00
C1036  C     0.97870   0.20802   0.74842   0.00000  Uiso   1.00
C1037  C     0.97870   0.12532   0.75164   0.00000  Uiso   1.00
C1038  C     0.68796   0.20803   0.74892   0.00000  Uiso   1.00
C1039  C     0.81180   0.19942   0.54618   0.00000  Uiso   1.00
C1040  C     0.81159   0.13356   0.95377   0.00000  Uiso   1.00
C1041  C     0.85757   0.19910   0.95332   0.00000  Uiso   1.00
C1042  C     0.85774   0.13385   0.54672   0.00000  Uiso   1.00
C1043  C     0.81025   0.19902   0.59245   0.00000  Uiso   1.00
C1044  C     0.80969   0.13444   0.90752   0.00000  Uiso   1.00
C1045  C     0.85814   0.19879   0.90701   0.00000  Uiso   1.00
C1046  C     0.91339   0.16667   0.75001   0.00000  Uiso   1.00
C1047  C     0.85867   0.13464   0.59301   0.00000  Uiso   1.00
C1048  C     0.83410   0.16674   0.61586   0.00000  Uiso   1.00
C1049  C     0.83366   0.16667   0.88414   0.00000  Uiso   1.00
C1050  C     0.83485   0.16648   0.52385   0.00000  Uiso   1.00
C1051  C     0.83491   0.16619   0.97614   0.00000  Uiso   1.00
C1052  C     0.95752   0.16667   0.75003   0.00000  Uiso   1.00
C1053  C     0.70914   0.16667   0.75001   0.00000  Uiso   1.00
C1054  C     0.74479   0.21845   0.61440   0.00000  Uiso   1.00
C1055  C     0.71898   0.25539   0.63714   0.00000  Uiso   1.00
C1056  C     0.67256   0.24424   0.63609   0.00000  Uiso   1.00
C1057  C     0.83352   0.16668   0.66389   0.00000  Uiso   1.00
C1058  C     0.74354   0.11811   0.88589   0.00000  Uiso   1.00
C1059  C     0.71592   0.08200   0.86441   0.00000  Uiso   1.00
C1060  C     0.67003   0.09549   0.86598   0.00000  Uiso   1.00
C1061  C     0.92325   0.21829   0.88390   0.00000  Uiso   1.00
C1062  C     0.94858   0.25488   0.85999   0.00000  Uiso   1.00
C1063  C     0.99507   0.24399   0.86060   0.00000  Uiso   1.00
C1064  C     0.92446   0.11811   0.61577   0.00000  Uiso   1.00
C1065  C     0.95153   0.08240   0.63868   0.00000  Uiso   1.00
C1066  C     0.99752   0.09551   0.63749   0.00000  Uiso   1.00
C1067  C     0.83330   0.16667   0.83611   0.00000  Uiso   1.00
C1068  C     0.85666   0.02400   0.71972   0.00000  Uiso   1.00
C1069  C     0.80994   0.30932   0.78023   0.00000  Uiso   1.00
C1070  C     0.81000   0.02399   0.78027   0.00000  Uiso   1.00
C1071  C     0.85673   0.30933   0.71977   0.00000  Uiso   1.00
C1072  C     0.68796   0.12530   0.75111   0.00000  Uiso   1.00
H1073  H     0.87520   0.04221   0.69549   0.00000  Uiso   1.00
H1074  H     0.96256   0.24026   0.74692   0.00000  Uiso   1.00
H1075  H     0.96256   0.09307   0.75316   0.00000  Uiso   1.00
H1076  H     0.70409   0.24031   0.74831   0.00000  Uiso   1.00
H1077  H     0.74055   0.18600   0.63303   0.00000  Uiso   1.00
H1078  H     0.73321   0.21425   0.57955   0.00000  Uiso   1.00
H1079  H     0.72929   0.25907   0.67235   0.00000  Uiso   1.00
H1080  H     0.72418   0.28829   0.61983   0.00000  Uiso   1.00
H1081  H     0.99465   0.24257   0.60106   0.00000  Uiso   1.00
H1082  H     0.98821   0.27105   0.65398   0.00000  Uiso   1.00
H1083  H     0.99985   0.21122   0.65266   0.00000  Uiso   1.00
H1084  H     0.79123   0.29109   0.80436   0.00000  Uiso   1.00
H1085  H     0.74043   0.15030   0.86660   0.00000  Uiso   1.00
H1086  H     0.73247   0.12369   0.92078   0.00000  Uiso   1.00
H1087  H     0.72548   0.07713   0.82910   0.00000  Uiso   1.00
H1088  H     0.72000   0.04924   0.88229   0.00000  Uiso   1.00
H1089  H     0.99273   0.09886   0.90114   0.00000  Uiso   1.00
H1090  H     0.98432   0.06902   0.84929   0.00000  Uiso   1.00
H1091  H     0.99846   0.12821   0.84843   0.00000  Uiso   1.00
H1092  H     0.92727   0.18553   0.86577   0.00000  Uiso   1.00
H1093  H     0.93542   0.21475   0.91858   0.00000  Uiso   1.00
H1094  H     0.93781   0.25773   0.82486   0.00000  Uiso   1.00
H1095  H     0.79145   0.04219   0.80450   0.00000  Uiso   1.00
H1096  H     0.94344   0.28812   0.87667   0.00000  Uiso   1.00
H1097  H     0.67343   0.24316   0.89548   0.00000  Uiso   1.00
H1098  H     0.67905   0.27051   0.84187   0.00000  Uiso   1.00
H1099  H     0.66772   0.21065   0.84466   0.00000  Uiso   1.00
H1100  H     0.92737   0.15074   0.63437   0.00000  Uiso   1.00
H1101  H     0.93615   0.12280   0.58099   0.00000  Uiso   1.00
H1102  H     0.94144   0.07860   0.67395   0.00000  Uiso   1.00
H1103  H     0.94748   0.04919   0.62164   0.00000  Uiso   1.00
H1104  H     0.67534   0.09781   0.60243   0.00000  Uiso   1.00
H1105  H     0.68282   0.06937   0.65521   0.00000  Uiso   1.00
H1106  H     0.87543   0.29111   0.69564   0.00000  Uiso   1.00
H1107  H     0.66905   0.12867   0.65422   0.00000  Uiso   1.00
H1108  H     0.79446   0.22477   0.52768   0.00000  Uiso   1.00
H1109  H     0.79404   0.10832   0.97223   0.00000  Uiso   1.00
H1110  H     0.87518   0.22450   0.97145   0.00000  Uiso   1.00
H1111  H     0.87554   0.10853   0.52864   0.00000  Uiso   1.00
H1112  H     0.70409   0.09303   0.75169   0.00000  Uiso   1.00
N1113  N     0.83333   0.28573   0.75000   0.00000  Uiso   1.00
N1114  N     0.83333   0.04760   0.75000   0.00000  Uiso   1.00
O1115  O     0.77226   0.20487   0.74999   0.00000  Uiso   1.00
O1116  O     0.78532   0.10304   0.88523   0.00000  Uiso   1.00
O1117  O     0.88089   0.23125   0.88416   0.00000  Uiso   1.00
O1118  O     0.88260   0.10325   0.61587   0.00000  Uiso   1.00
O1119  O     0.89441   0.12846   0.75000   0.00000  Uiso   1.00
O1120  O     0.89441   0.20487   0.75000   0.00000  Uiso   1.00
O1121  O     0.77226   0.12846   0.74999   0.00000  Uiso   1.00
O1122  O     0.83333   0.20489   0.68453   0.00000  Uiso   1.00
O1123  O     0.83334   0.12845   0.81547   0.00000  Uiso   1.00
O1124  O     0.83334   0.20489   0.81547   0.00000  Uiso   1.00
O1125  O     0.83333   0.12845   0.68453   0.00000  Uiso   1.00
O1126  O     0.78712   0.23152   0.61477   0.00000  Uiso   1.00
Zn1127 Zn    0.83333   0.21771   0.75000   0.00000  Uiso   1.00
Zn1128 Zn    0.83333   0.11563   0.75000   0.00000  Uiso   1.00
C1129  C     0.08660   0.50000   0.75000   0.00000  Uiso   1.00
C1130  C     0.31204   0.54135   0.74842   0.00000  Uiso   1.00
C1131  C     0.31204   0.45865   0.75164   0.00000  Uiso   1.00
C1132  C     0.02129   0.54137   0.74892   0.00000  Uiso   1.00
C1133  C     0.14514   0.53275   0.54618   0.00000  Uiso   1.00
C1134  C     0.14492   0.46690   0.95377   0.00000  Uiso   1.00
C1135  C     0.19090   0.53243   0.95332   0.00000  Uiso   1.00
C1136  C     0.19108   0.46718   0.54672   0.00000  Uiso   1.00
C1137  C     0.14358   0.53236   0.59245   0.00000  Uiso   1.00
C1138  C     0.14302   0.46777   0.90752   0.00000  Uiso   1.00
C1139  C     0.19148   0.53212   0.90701   0.00000  Uiso   1.00
C1140  C     0.24673   0.50000   0.75001   0.00000  Uiso   1.00
C1141  C     0.19201   0.46797   0.59301   0.00000  Uiso   1.00
C1142  C     0.16744   0.50008   0.61586   0.00000  Uiso   1.00
C1143  C     0.16700   0.50000   0.88414   0.00000  Uiso   1.00
C1144  C     0.16818   0.49982   0.52385   0.00000  Uiso   1.00
C1145  C     0.16824   0.49952   0.97614   0.00000  Uiso   1.00
C1146  C     0.29086   0.50000   0.75003   0.00000  Uiso   1.00
C1147  C     0.04247   0.50000   0.75001   0.00000  Uiso   1.00
C1148  C     0.07812   0.55179   0.61440   0.00000  Uiso   1.00
C1149  C     0.05231   0.58873   0.63714   0.00000  Uiso   1.00
C1150  C     0.00589   0.57757   0.63609   0.00000  Uiso   1.00
C1151  C     0.16686   0.50002   0.66389   0.00000  Uiso   1.00
C1152  C     0.07687   0.45144   0.88589   0.00000  Uiso   1.00
C1153  C     0.04925   0.41533   0.86441   0.00000  Uiso   1.00
C1154  C     0.00336   0.42882   0.86598   0.00000  Uiso   1.00
C1155  C     0.25658   0.55163   0.88390   0.00000  Uiso   1.00
C1156  C     0.28191   0.58821   0.85999   0.00000  Uiso   1.00
C1157  C     0.32840   0.57733   0.86060   0.00000  Uiso   1.00
C1158  C     0.25779   0.45144   0.61577   0.00000  Uiso   1.00
C1159  C     0.28486   0.41574   0.63868   0.00000  Uiso   1.00
C1160  C     0.33085   0.42884   0.63749   0.00000  Uiso   1.00
C1161  C     0.16663   0.50000   0.83611   0.00000  Uiso   1.00
C1162  C     0.19000   0.35733   0.71972   0.00000  Uiso   1.00
C1163  C     0.14327   0.64265   0.78023   0.00000  Uiso   1.00
C1164  C     0.14333   0.35732   0.78027   0.00000  Uiso   1.00
C1165  C     0.19006   0.64266   0.71977   0.00000  Uiso   1.00
C1166  C     0.02129   0.45863   0.75111   0.00000  Uiso   1.00
H1167  H     0.20854   0.37554   0.69549   0.00000  Uiso   1.00
H1168  H     0.29590   0.57360   0.74692   0.00000  Uiso   1.00
H1169  H     0.29590   0.42640   0.75316   0.00000  Uiso   1.00
H1170  H     0.03742   0.57364   0.74831   0.00000  Uiso   1.00
H1171  H     0.07388   0.51934   0.63303   0.00000  Uiso   1.00
H1172  H     0.06654   0.54758   0.57955   0.00000  Uiso   1.00
H1173  H     0.06262   0.59241   0.67235   0.00000  Uiso   1.00
H1174  H     0.05751   0.62163   0.61983   0.00000  Uiso   1.00
H1175  H     0.32798   0.57591   0.60106   0.00000  Uiso   1.00
H1176  H     0.32154   0.60439   0.65398   0.00000  Uiso   1.00
H1177  H     0.33318   0.54455   0.65266   0.00000  Uiso   1.00
H1178  H     0.12456   0.62442   0.80436   0.00000  Uiso   1.00
H1179  H     0.07377   0.48363   0.86660   0.00000  Uiso   1.00
H1180  H     0.06580   0.45703   0.92078   0.00000  Uiso   1.00
H1181  H     0.05881   0.41047   0.82910   0.00000  Uiso   1.00
H1182  H     0.05333   0.38257   0.88229   0.00000  Uiso   1.00
H1183  H     0.32606   0.43219   0.90114   0.00000  Uiso   1.00
H1184  H     0.31765   0.40235   0.84929   0.00000  Uiso   1.00
H1185  H     0.33179   0.46154   0.84843   0.00000  Uiso   1.00
H1186  H     0.26061   0.51886   0.86577   0.00000  Uiso   1.00
H1187  H     0.26875   0.54808   0.91858   0.00000  Uiso   1.00
H1188  H     0.27114   0.59106   0.82486   0.00000  Uiso   1.00
H1189  H     0.12479   0.37553   0.80450   0.00000  Uiso   1.00
H1190  H     0.27678   0.62145   0.87667   0.00000  Uiso   1.00
H1191  H     0.00676   0.57650   0.89548   0.00000  Uiso   1.00
H1192  H     0.01239   0.60384   0.84187   0.00000  Uiso   1.00
H1193  H     0.00105   0.54398   0.84466   0.00000  Uiso   1.00
H1194  H     0.26071   0.48407   0.63437   0.00000  Uiso   1.00
H1195  H     0.26949   0.45614   0.58099   0.00000  Uiso   1.00
H1196  H     0.27478   0.41194   0.67395   0.00000  Uiso   1.00
H1197  H     0.28082   0.38252   0.62164   0.00000  Uiso   1.00
H1198  H     0.00867   0.43114   0.60243   0.00000  Uiso   1.00
H1199  H     0.01615   0.40271   0.65521   0.00000  Uiso   1.00
H1200  H     0.20877   0.62444   0.69564   0.00000  Uiso   1.00
H1201  H     0.00238   0.46201   0.65422   0.00000  Uiso   1.00
H1202  H     0.12779   0.55810   0.52768   0.00000  Uiso   1.00
H1203  H     0.12737   0.44165   0.97223   0.00000  Uiso   1.00
H1204  H     0.20852   0.55783   0.97145   0.00000  Uiso   1.00
H1205  H     0.20887   0.44186   0.52864   0.00000  Uiso   1.00
H1206  H     0.03743   0.42636   0.75169   0.00000  Uiso   1.00
N1207  N     0.16667   0.61907   0.75000   0.00000  Uiso   1.00
N1208  N     0.16667   0.38093   0.75000   0.00000  Uiso   1.00
O1209  O     0.10559   0.53821   0.74999   0.00000  Uiso   1.00
O1210  O     0.11866   0.43637   0.88523   0.00000  Uiso   1.00
O1211  O     0.21422   0.56458   0.88416   0.00000  Uiso   1.00
O1212  O     0.21593   0.43658   0.61587   0.00000  Uiso   1.00
O1213  O     0.22774   0.46179   0.75000   0.00000  Uiso   1.00
O1214  O     0.22774   0.53821   0.75000   0.00000  Uiso   1.00
O1215  O     0.10559   0.46179   0.74999   0.00000  Uiso   1.00
O1216  O     0.16666   0.53822   0.68453   0.00000  Uiso   1.00
O1217  O     0.16667   0.46178   0.81547   0.00000  Uiso   1.00
O1218  O     0.16667   0.53822   0.81547   0.00000  Uiso   1.00
O1219  O     0.16666   0.46178   0.68453   0.00000  Uiso   1.00
O1220  O     0.12045   0.56486   0.61477   0.00000  Uiso   1.00
Zn1221 Zn    0.16667   0.55104   0.75000   0.00000  Uiso   1.00
Zn1222 Zn    0.16667   0.44896   0.75000   0.00000  Uiso   1.00
C1223  C     0.41994   0.50000   0.75000   0.00000  Uiso   1.00
C1224  C     0.64537   0.54135   0.74842   0.00000  Uiso   1.00
C1225  C     0.64537   0.45865   0.75164   0.00000  Uiso   1.00
C1226  C     0.35462   0.54137   0.74892   0.00000  Uiso   1.00
C1227  C     0.47847   0.53275   0.54618   0.00000  Uiso   1.00
C1228  C     0.47825   0.46690   0.95377   0.00000  Uiso   1.00
C1229  C     0.52423   0.53243   0.95332   0.00000  Uiso   1.00
C1230  C     0.52441   0.46718   0.54672   0.00000  Uiso   1.00
C1231  C     0.47692   0.53236   0.59245   0.00000  Uiso   1.00
C1232  C     0.47635   0.46777   0.90752   0.00000  Uiso   1.00
C1233  C     0.52481   0.53212   0.90701   0.00000  Uiso   1.00
C1234  C     0.58006   0.50000   0.75001   0.00000  Uiso   1.00
C1235  C     0.52534   0.46797   0.59301   0.00000  Uiso   1.00
C1236  C     0.50077   0.50008   0.61586   0.00000  Uiso   1.00
C1237  C     0.50033   0.50000   0.88414   0.00000  Uiso   1.00
C1238  C     0.50152   0.49982   0.52385   0.00000  Uiso   1.00
C1239  C     0.50158   0.49952   0.97614   0.00000  Uiso   1.00
C1240  C     0.62419   0.50000   0.75003   0.00000  Uiso   1.00
C1241  C     0.37580   0.50000   0.75001   0.00000  Uiso   1.00
C1242  C     0.41146   0.55179   0.61440   0.00000  Uiso   1.00
C1243  C     0.38565   0.58873   0.63714   0.00000  Uiso   1.00
C1244  C     0.33922   0.57757   0.63609   0.00000  Uiso   1.00
C1245  C     0.50019   0.50002   0.66389   0.00000  Uiso   1.00
C1246  C     0.41020   0.45144   0.88589   0.00000  Uiso   1.00
C1247  C     0.38258   0.41533   0.86441   0.00000  Uiso   1.00
C1248  C     0.33669   0.42882   0.86598   0.00000  Uiso   1.00
C1249  C     0.58991   0.55163   0.88390   0.00000  Uiso   1.00
C1250  C     0.61524   0.58821   0.85999   0.00000  Uiso   1.00
C1251  C     0.66173   0.57733   0.86060   0.00000  Uiso   1.00
C1252  C     0.59112   0.45144   0.61577   0.00000  Uiso   1.00
C1253  C     0.61819   0.41574   0.63868   0.00000  Uiso   1.00
C1254  C     0.66419   0.42884   0.63749   0.00000  Uiso   1.00
C1255  C     0.49996   0.50000   0.83611   0.00000  Uiso   1.00
C1256  C     0.52333   0.35733   0.71972   0.00000  Uiso   1.00
C1257  C     0.47661   0.64265   0.78023   0.00000  Uiso   1.00
C1258  C     0.47667   0.35732   0.78027   0.00000  Uiso   1.00
C1259  C     0.52339   0.64266   0.71977   0.00000  Uiso   1.00
C1260  C     0.35462   0.45863   0.75111   0.00000  Uiso   1.00
H1261  H     0.54187   0.37554   0.69549   0.00000  Uiso   1.00
H1262  H     0.62923   0.57360   0.74692   0.00000  Uiso   1.00
H1263  H     0.62923   0.42640   0.75316   0.00000  Uiso   1.00
H1264  H     0.37076   0.57364   0.74831   0.00000  Uiso   1.00
H1265  H     0.40721   0.51934   0.63303   0.00000  Uiso   1.00
H1266  H     0.39988   0.54758   0.57955   0.00000  Uiso   1.00
H1267  H     0.39596   0.59241   0.67235   0.00000  Uiso   1.00
H1268  H     0.39084   0.62163   0.61983   0.00000  Uiso   1.00
H1269  H     0.66131   0.57591   0.60106   0.00000  Uiso   1.00
H1270  H     0.65488   0.60439   0.65398   0.00000  Uiso   1.00
H1271  H     0.66651   0.54455   0.65266   0.00000  Uiso   1.00
H1272  H     0.45790   0.62442   0.80436   0.00000  Uiso   1.00
H1273  H     0.40710   0.48363   0.86660   0.00000  Uiso   1.00
H1274  H     0.39914   0.45703   0.92078   0.00000  Uiso   1.00
H1275  H     0.39215   0.41047   0.82910   0.00000  Uiso   1.00
H1276  H     0.38667   0.38257   0.88229   0.00000  Uiso   1.00
H1277  H     0.65939   0.43219   0.90114   0.00000  Uiso   1.00
H1278  H     0.65098   0.40235   0.84929   0.00000  Uiso   1.00
H1279  H     0.66513   0.46154   0.84843   0.00000  Uiso   1.00
H1280  H     0.59394   0.51886   0.86577   0.00000  Uiso   1.00
H1281  H     0.60208   0.54808   0.91858   0.00000  Uiso   1.00
H1282  H     0.60447   0.59106   0.82486   0.00000  Uiso   1.00
H1283  H     0.45812   0.37553   0.80450   0.00000  Uiso   1.00
H1284  H     0.61011   0.62145   0.87667   0.00000  Uiso   1.00
H1285  H     0.34010   0.57650   0.89548   0.00000  Uiso   1.00
H1286  H     0.34572   0.60384   0.84187   0.00000  Uiso   1.00
H1287  H     0.33438   0.54398   0.84466   0.00000  Uiso   1.00
H1288  H     0.59404   0.48407   0.63437   0.00000  Uiso   1.00
H1289  H     0.60282   0.45614   0.58099   0.00000  Uiso   1.00
H1290  H     0.60811   0.41194   0.67395   0.00000  Uiso   1.00
H1291  H     0.61415   0.38252   0.62164   0.00000  Uiso   1.00
H1292  H     0.34200   0.43114   0.60243   0.00000  Uiso   1.00
H1293  H     0.34949   0.40271   0.65521   0.00000  Uiso   1.00
H1294  H     0.54210   0.62444   0.69564   0.00000  Uiso   1.00
H1295  H     0.33572   0.46201   0.65422   0.00000  Uiso   1.00
H1296  H     0.46113   0.55810   0.52768   0.00000  Uiso   1.00
H1297  H     0.46070   0.44165   0.97223   0.00000  Uiso   1.00
H1298  H     0.54185   0.55783   0.97145   0.00000  Uiso   1.00
H1299  H     0.54220   0.44186   0.52864   0.00000  Uiso   1.00
H1300  H     0.37076   0.42636   0.75169   0.00000  Uiso   1.00
N1301  N     0.50000   0.61907   0.75000   0.00000  Uiso   1.00
N1302  N     0.50000   0.38093   0.75000   0.00000  Uiso   1.00
O1303  O     0.43892   0.53821   0.74999   0.00000  Uiso   1.00
O1304  O     0.45199   0.43637   0.88523   0.00000  Uiso   1.00
O1305  O     0.54755   0.56458   0.88416   0.00000  Uiso   1.00
O1306  O     0.54927   0.43658   0.61587   0.00000  Uiso   1.00
O1307  O     0.56108   0.46179   0.75000   0.00000  Uiso   1.00
O1308  O     0.56108   0.53821   0.75000   0.00000  Uiso   1.00
O1309  O     0.43892   0.46179   0.74999   0.00000  Uiso   1.00
O1310  O     0.50000   0.53822   0.68453   0.00000  Uiso   1.00
O1311  O     0.50000   0.46178   0.81547   0.00000  Uiso   1.00
O1312  O     0.50000   0.53822   0.81547   0.00000  Uiso   1.00
O1313  O     0.50000   0.46178   0.68453   0.00000  Uiso   1.00
O1314  O     0.45378   0.56486   0.61477   0.00000  Uiso   1.00
Zn1315 Zn    0.50000   0.55104   0.75000   0.00000  Uiso   1.00
Zn1316 Zn    0.50000   0.44896   0.75000   0.00000  Uiso   1.00
C1317  C     0.75327   0.50000   0.75000   0.00000  Uiso   1.00
C1318  C     0.97870   0.54135   0.74842   0.00000  Uiso   1.00
C1319  C     0.97870   0.45865   0.75164   0.00000  Uiso   1.00
C1320  C     0.68796   0.54137   0.74892   0.00000  Uiso   1.00
C1321  C     0.81180   0.53275   0.54618   0.00000  Uiso   1.00
C1322  C     0.81159   0.46690   0.95377   0.00000  Uiso   1.00
C1323  C     0.85757   0.53243   0.95332   0.00000  Uiso   1.00
C1324  C     0.85774   0.46718   0.54672   0.00000  Uiso   1.00
C1325  C     0.81025   0.53236   0.59245   0.00000  Uiso   1.00
C1326  C     0.80969   0.46777   0.90752   0.00000  Uiso   1.00
C1327  C     0.85814   0.53212   0.90701   0.00000  Uiso   1.00
C1328  C     0.91339   0.50000   0.75001   0.00000  Uiso   1.00
C1329  C     0.85867   0.46797   0.59301   0.00000  Uiso   1.00
C1330  C     0.83410   0.50008   0.61586   0.00000  Uiso   1.00
C1331  C     0.83366   0.50000   0.88414   0.00000  Uiso   1.00
C1332  C     0.83485   0.49982   0.52385   0.00000  Uiso   1.00
C1333  C     0.83491   0.49952   0.97614   0.00000  Uiso   1.00
C1334  C     0.95752   0.50000   0.75003   0.00000  Uiso   1.00
C1335  C     0.70914   0.50000   0.75001   0.00000  Uiso   1.00
C1336  C     0.74479   0.55179   0.61440   0.00000  Uiso   1.00
C1337  C     0.71898   0.58873   0.63714   0.00000  Uiso   1.00
C1338  C     0.67256   0.57757   0.63609   0.00000  Uiso   1.00
C1339  C     0.83352   0.50002   0.66389   0.00000  Uiso   1.00
C1340  C     0.74354   0.45144   0.88589   0.00000  Uiso   1.00
C1341  C     0.71592   0.41533   0.86441   0.00000  Uiso   1.00
C1342  C     0.67003   0.42882   0.86598   0.00000  Uiso   1.00
C1343  C     0.92325   0.55163   0.88390   0.00000  Uiso   1.00
C1344  C     0.94858   0.58821   0.85999   0.00000  Uiso   1.00
C1345  C     0.99507   0.57733   0.86060   0.00000  Uiso   1.00
C1346  C     0.92446   0.45144   0.61577   0.00000  Uiso   1.00
C1347  C     0.95153   0.41574   0.63868   0.00000  Uiso   1.00
C1348  C     0.99752   0.42884   0.63749   0.00000  Uiso   1.00
C1349  C     0.83330   0.50000   0.83611   0.00000  Uiso   1.00
C1350  C     0.85666   0.35733   0.71972   0.00000  Uiso   1.00
C1351  C     0.80994   0.64265   0.78023   0.00000  Uiso   1.00
C1352  C     0.81000   0.35732   0.78027   0.00000  Uiso   1.00
C1353  C     0.85673   0.64266   0.71977   0.00000  Uiso   1.00
C1354  C     0.68796   0.45863   0.75111   0.00000  Uiso   1.00
H1355  H     0.87520   0.37554   0.69549   0.00000  Uiso   1.00
H1356  H     0.96256   0.57360   0.74692   0.00000  Uiso   1.00
H1357  H     0.96256   0.42640   0.75316   0.00000  Uiso   1.00
H1358  H     0.70409   0.57364   0.74831   0.00000  Uiso   1.00
H1359  H     0.74055   0.51934   0.63303   0.00000  Uiso   1.00
H1360  H     0.73321   0.54758   0.57955   0.00000  Uiso   1.00
H1361  H     0.72929   0.59241   0.67235   0.00000  Uiso   1.00
H1362  H     0.72418   0.62163   0.61983   0.00000  Uiso   1.00
H1363  H     0.99465   0.57591   0.60106   0.00000  Uiso   1.00
H1364  H     0.98821   0.60439   0.65398   0.00000  Uiso   1.00
H1365  H     0.99985   0.54455   0.65266   0.00000  Uiso   1.00
H1366  H     0.79123   0.62442   0.80436   0.00000  Uiso   1.00
H1367  H     0.74043   0.48363   0.86660   0.00000  Uiso   1.00
H1368  H     0.73247   0.45703   0.92078   0.00000  Uiso   1.00
H1369  H     0.72548   0.41047   0.82910   0.00000  Uiso   1.00
H1370  H     0.72000   0.38257   0.88229   0.00000  Uiso   1.00
H1371  H     0.99273   0.43219   0.90114   0.00000  Uiso   1.00
H1372  H     0.98432   0.40235   0.84929   0.00000  Uiso   1.00
H1373  H     0.99846   0.46154   0.84843   0.00000  Uiso   1.00
H1374  H     0.92727   0.51886   0.86577   0.00000  Uiso   1.00
H1375  H     0.93542   0.54808   0.91858   0.00000  Uiso   1.00
H1376  H     0.93781   0.59106   0.82486   0.00000  Uiso   1.00
H1377  H     0.79145   0.37553   0.80450   0.00000  Uiso   1.00
H1378  H     0.94344   0.62145   0.87667   0.00000  Uiso   1.00
H1379  H     0.67343   0.57650   0.89548   0.00000  Uiso   1.00
H1380  H     0.67905   0.60384   0.84187   0.00000  Uiso   1.00
H1381  H     0.66772   0.54398   0.84466   0.00000  Uiso   1.00
H1382  H     0.92737   0.48407   0.63437   0.00000  Uiso   1.00
H1383  H     0.93615   0.45614   0.58099   0.00000  Uiso   1.00
H1384  H     0.94144   0.41194   0.67395   0.00000  Uiso   1.00
H1385  H     0.94748   0.38252   0.62164   0.00000  Uiso   1.00
H1386  H     0.67534   0.43114   0.60243   0.00000  Uiso   1.00
H1387  H     0.68282   0.40271   0.65521   0.00000  Uiso   1.00
H1388  H     0.87543   0.62444   0.69564   0.00000  Uiso   1.00
H1389  H     0.66905   0.46201   0.65422   0.00000  Uiso   1.00
H1390  H     0.79446   0.55810   0.52768   0.00000  Uiso   1.00
H1391  H     0.79404   0.44165   0.97223   0.00000  Uiso   1.00
H1392  H     0.87518   0.55783   0.97145   0.00000  Uiso   1.00
H1393  H     0.87554   0.44186   0.52864   0.00000  Uiso   1.00
H1394  H     0.70409   0.42636   0.75169   0.00000  Uiso   1.00
N1395  N     0.83333   0.61907   0.75000   0.00000  Uiso   1.00
N1396  N     0.83333   0.38093   0.75000   0.00000  Uiso   1.00
O1397  O     0.77226   0.53821   0.74999   0.00000  Uiso   1.00
O1398  O     0.78532   0.43637   0.88523   0.00000  Uiso   1.00
O1399  O     0.88089   0.56458   0.88416   0.00000  Uiso   1.00
O1400  O     0.88260   0.43658   0.61587   0.00000  Uiso   1.00
O1401  O     0.89441   0.46179   0.75000   0.00000  Uiso   1.00
O1402  O     0.89441   0.53821   0.75000   0.00000  Uiso   1.00
O1403  O     0.77226   0.46179   0.74999   0.00000  Uiso   1.00
O1404  O     0.83333   0.53822   0.68453   0.00000  Uiso   1.00
O1405  O     0.83334   0.46178   0.81547   0.00000  Uiso   1.00
O1406  O     0.83334   0.53822   0.81547   0.00000  Uiso   1.00
O1407  O     0.83333   0.46178   0.68453   0.00000  Uiso   1.00
O1408  O     0.78712   0.56486   0.61477   0.00000  Uiso   1.00
Zn1409 Zn    0.83333   0.55104   0.75000   0.00000  Uiso   1.00
Zn1410 Zn    0.83333   0.44896   0.75000   0.00000  Uiso   1.00
C1411  C     0.08660   0.83333   0.75000   0.00000  Uiso   1.00
C1412  C     0.31204   0.87468   0.74842   0.00000  Uiso   1.00
C1413  C     0.31204   0.79198   0.75164   0.00000  Uiso   1.00
C1414  C     0.02129   0.87470   0.74892   0.00000  Uiso   1.00
C1415  C     0.14514   0.86609   0.54618   0.00000  Uiso   1.00
C1416  C     0.14492   0.80023   0.95377   0.00000  Uiso   1.00
C1417  C     0.19090   0.86577   0.95332   0.00000  Uiso   1.00
C1418  C     0.19108   0.80051   0.54672   0.00000  Uiso   1.00
C1419  C     0.14358   0.86569   0.59245   0.00000  Uiso   1.00
C1420  C     0.14302   0.80110   0.90752   0.00000  Uiso   1.00
C1421  C     0.19148   0.86546   0.90701   0.00000  Uiso   1.00
C1422  C     0.24673   0.83333   0.75001   0.00000  Uiso   1.00
C1423  C     0.19201   0.80131   0.59301   0.00000  Uiso   1.00
C1424  C     0.16744   0.83341   0.61586   0.00000  Uiso   1.00
C1425  C     0.16700   0.83334   0.88414   0.00000  Uiso   1.00
C1426  C     0.16818   0.83315   0.52385   0.00000  Uiso   1.00
C1427  C     0.16824   0.83285   0.97614   0.00000  Uiso   1.00
C1428  C     0.29086   0.83333   0.75003   0.00000  Uiso   1.00
C1429  C     0.04247   0.83333   0.75001   0.00000  Uiso   1.00
C1430  C     0.07812   0.88512   0.61440   0.00000  Uiso   1.00
C1431  C     0.05231   0.92206   0.63714   0.00000  Uiso   1.00
C1432  C     0.00589   0.91090   0.63609   0.00000  Uiso   1.00
C1433  C     0.16686   0.83335   0.66389   0.00000  Uiso   1.00
C1434  C     0.07687   0.78477   0.88589   0.00000  Uiso   1.00
C1435  C     0.04925   0.74867   0.86441   0.00000  Uiso   1.00
C1436  C     0.00336   0.76216   0.86598   0.00000  Uiso   1.00
C1437  C     0.25658   0.88496   0.88390   0.00000  Uiso   1.00
C1438  C     0.28191   0.92154   0.85999   0.00000  Uiso   1.00
C1439  C     0.32840   0.91066   0.86060   0.00000  Uiso   1.00
C1440  C     0.25779   0.78477   0.61577   0.00000  Uiso   1.00
C1441  C     0.28486   0.74907   0.63868   0.00000  Uiso   1.00
C1442  C     0.33085   0.76218   0.63749   0.00000  Uiso   1.00
C1443  C     0.16663   0.83334   0.83611   0.00000  Uiso   1.00
C1444  C     0.19000   0.69066   0.71972   0.00000  Uiso   1.00
C1445  C     0.14327   0.97599   0.78023   0.00000  Uiso   1.00
C1446  C     0.14333   0.69066   0.78027   0.00000  Uiso   1.00
C1447  C     0.19006   0.97600   0.71977   0.00000  Uiso   1.00
C1448  C     0.02129   0.79197   0.75111   0.00000  Uiso   1.00
H1449  H     0.20854   0.70887   0.69549   0.00000  Uiso   1.00
H1450  H     0.29590   0.90693   0.74692   0.00000  Uiso   1.00
H1451  H     0.29590   0.75974   0.75316   0.00000  Uiso   1.00
H1452  H     0.03742   0.90697   0.74831   0.00000  Uiso   1.00
H1453  H     0.07388   0.85267   0.63303   0.00000  Uiso   1.00
H1454  H     0.06654   0.88091   0.57955   0.00000  Uiso   1.00
H1455  H     0.06262   0.92574   0.67235   0.00000  Uiso   1.00
H1456  H     0.05751   0.95496   0.61983   0.00000  Uiso   1.00
H1457  H     0.32798   0.90924   0.60106   0.00000  Uiso   1.00
H1458  H     0.32154   0.93772   0.65398   0.00000  Uiso   1.00
H1459  H     0.33318   0.87788   0.65266   0.00000  Uiso   1.00
H1460  H     0.12456   0.95776   0.80436   0.00000  Uiso   1.00
H1461  H     0.07377   0.81697   0.86660   0.00000  Uiso   1.00
H1462  H     0.06580   0.79036   0.92078   0.00000  Uiso   1.00
H1463  H     0.05881   0.74380   0.82910   0.00000  Uiso   1.00
H1464  H     0.05333   0.71590   0.88229   0.00000  Uiso   1.00
H1465  H     0.32606   0.76553   0.90114   0.00000  Uiso   1.00
H1466  H     0.31765   0.73569   0.84929   0.00000  Uiso   1.00
H1467  H     0.33179   0.79488   0.84843   0.00000  Uiso   1.00
H1468  H     0.26061   0.85219   0.86577   0.00000  Uiso   1.00
H1469  H     0.26875   0.88142   0.91858   0.00000  Uiso   1.00
H1470  H     0.27114   0.92439   0.82486   0.00000  Uiso   1.00
H1471  H     0.12479   0.70886   0.80450   0.00000  Uiso   1.00
H1472  H     0.27678   0.95478   0.87667   0.00000  Uiso   1.00
H1473  H     0.00676   0.90983   0.89548   0.00000  Uiso   1.00
H1474  H     0.01239   0.93717   0.84187   0.00000  Uiso   1.00
H1475  H     0.00105   0.87732   0.84466   0.00000  Uiso   1.00
H1476  H     0.26071   0.81740   0.63437   0.00000  Uiso   1.00
H1477  H     0.26949   0.78947   0.58099   0.00000  Uiso   1.00
H1478  H     0.27478   0.74527   0.67395   0.00000  Uiso   1.00
H1479  H     0.28082   0.71585   0.62164   0.00000  Uiso   1.00
H1480  H     0.00867   0.76448   0.60243   0.00000  Uiso   1.00
H1481  H     0.01615   0.73604   0.65521   0.00000  Uiso   1.00
H1482  H     0.20877   0.95778   0.69564   0.00000  Uiso   1.00
H1483  H     0.00238   0.79534   0.65422   0.00000  Uiso   1.00
H1484  H     0.12779   0.89144   0.52768   0.00000  Uiso   1.00
H1485  H     0.12737   0.77498   0.97223   0.00000  Uiso   1.00
H1486  H     0.20852   0.89116   0.97145   0.00000  Uiso   1.00
H1487  H     0.20887   0.77520   0.52864   0.00000  Uiso   1.00
H1488  H     0.03743   0.75969   0.75169   0.00000  Uiso   1.00
N1489  N     0.16667   0.95240   0.75000   0.00000  Uiso   1.00
N1490  N     0.16667   0.71427   0.75000   0.00000  Uiso   1.00
O1491  O     0.10559   0.87154   0.74999   0.00000  Uiso   1.00
O1492  O     0.11866   0.76970   0.88523   0.00000  Uiso   1.00
O1493  O     0.21422   0.89791   0.88416   0.00000  Uiso   1.00
O1494  O     0.21593   0.76992   0.61587   0.00000  Uiso   1.00
O1495  O     0.22774   0.79513   0.75000   0.00000  Uiso   1.00
O1496  O     0.22774   0.87154   0.75000   0.00000  Uiso   1.00
O1497  O     0.10559   0.79513   0.74999   0.00000  Uiso   1.00
O1498  O     0.16666   0.87155   0.68453   0.00000  Uiso   1.00
O1499  O     0.16667   0.79511   0.81547   0.00000  Uiso   1.00
O1500  O     0.16667   0.87155   0.81547   0.00000  Uiso   1.00
O1501  O     0.16666   0.79511   0.68453   0.00000  Uiso   1.00
O1502  O     0.12045   0.89819   0.61477   0.00000  Uiso   1.00
Zn1503 Zn    0.16667   0.88437   0.75000   0.00000  Uiso   1.00
Zn1504 Zn    0.16667   0.78229   0.75000   0.00000  Uiso   1.00
C1505  C     0.41994   0.83333   0.75000   0.00000  Uiso   1.00
C1506  C     0.64537   0.87468   0.74842   0.00000  Uiso   1.00
C1507  C     0.64537   0.79198   0.75164   0.00000  Uiso   1.00
C1508  C     0.35462   0.87470   0.74892   0.00000  Uiso   1.00
C1509  C     0.47847   0.86609   0.54618   0.00000  Uiso   1.00
C1510  C     0.47825   0.80023   0.95377   0.00000  Uiso   1.00
C1511  C     0.52423   0.86577   0.95332   0.00000  Uiso   1.00
C1512  C     0.52441   0.80051   0.54672   0.00000  Uiso   1.00
C1513  C     0.47692   0.86569   0.59245   0.00000  Uiso   1.00
C1514  C     0.47635   0.80110   0.90752   0.00000  Uiso   1.00
C1515  C     0.52481   0.86546   0.90701   0.00000  Uiso   1.00
C1516  C     0.58006   0.83333   0.75001   0.00000  Uiso   1.00
C1517  C     0.52534   0.80131   0.59301   0.00000  Uiso   1.00
C1518  C     0.50077   0.83341   0.61586   0.00000  Uiso   1.00
C1519  C     0.50033   0.83334   0.88414   0.00000  Uiso   1.00
C1520  C     0.50152   0.83315   0.52385   0.00000  Uiso   1.00
C1521  C     0.50158   0.83285   0.97614   0.00000  Uiso   1.00
C1522  C     0.62419   0.83333   0.75003   0.00000  Uiso   1.00
C1523  C     0.37580   0.83333   0.75001   0.00000  Uiso   1.00
C1524  C     0.41146   0.88512   0.61440   0.00000  Uiso   1.00
C1525  C     0.38565   0.92206   0.63714   0.00000  Uiso   1.00
C1526  C     0.33922   0.91090   0.63609   0.00000  Uiso   1.00
C1527  C     0.50019   0.83335   0.66389   0.00000  Uiso   1.00
C1528  C     0.41020   0.78477   0.88589   0.00000  Uiso   1.00
C1529  C     0.38258   0.74867   0.86441   0.00000  Uiso   1.00
C1530  C     0.33669   0.76216   0.86598   0.00000  Uiso   1.00
C1531  C     0.58991   0.88496   0.88390   0.00000  Uiso   1.00
C1532  C     0.61524   0.92154   0.85999   0.00000  Uiso   1.00
C1533  C     0.66173   0.91066   0.86060   0.00000  Uiso   1.00
C1534  C     0.59112   0.78477   0.61577   0.00000  Uiso   1.00
C1535  C     0.61819   0.74907   0.63868   0.00000  Uiso   1.00
C1536  C     0.66419   0.76218   0.63749   0.00000  Uiso   1.00
C1537  C     0.49996   0.83334   0.83611   0.00000  Uiso   1.00
C1538  C     0.52333   0.69066   0.71972   0.00000  Uiso   1.00
C1539  C     0.47661   0.97599   0.78023   0.00000  Uiso   1.00
C1540  C     0.47667   0.69066   0.78027   0.00000  Uiso   1.00
C1541  C     0.52339   0.97600   0.71977   0.00000  Uiso   1.00
C1542  C     0.35462   0.79197   0.75111   0.00000  Uiso   1.00
H1543  H     0.54187   0.70887   0.69549   0.00000  Uiso   1.00
H1544  H     0.62923   0.90693   0.74692   0.00000  Uiso   1.00
H1545  H     0.62923   0.75974   0.75316   0.00000  Uiso   1.00
H1546  H     0.37076   0.90697   0.74831   0.00000  Uiso   1.00
H1547  H     0.40721   0.85267   0.63303   0.00000  Uiso   1.00
H1548  H     0.39988   0.88091   0.57955   0.00000  Uiso   1.00
H1549  H     0.39596   0.92574   0.67235   0.00000  Uiso   1.00
H1550  H     0.39084   0.95496   0.61983   0.00000  Uiso   1.00
H1551  H     0.66131   0.90924   0.60106   0.00000  Uiso   1.00
H1552  H     0.65488   0.93772   0.65398   0.00000  Uiso   1.00
H1553  H     0.66651   0.87788   0.65266   0.00000  Uiso   1.00
H1554  H     0.45790   0.95776   0.80436   0.00000  Uiso   1.00
H1555  H     0.40710   0.81697   0.86660   0.00000  Uiso   1.00
H1556  H     0.39914   0.79036   0.92078   0.00000  Uiso   1.00
H1557  H     0.39215   0.74380   0.82910   0.00000  Uiso   1.00
H1558  H     0.38667   0.71590   0.88229   0.00000  Uiso   1.00
H1559  H     0.65939   0.76553   0.90114   0.00000  Uiso   1.00
H1560  H     0.65098   0.73569   0.84929   0.00000  Uiso   1.00
H1561  H     0.66513   0.79488   0.84843   0.00000  Uiso   1.00
H1562  H     0.59394   0.85219   0.86577   0.00000  Uiso   1.00
H1563  H     0.60208   0.88142   0.91858   0.00000  Uiso   1.00
H1564  H     0.60447   0.92439   0.82486   0.00000  Uiso   1.00
H1565  H     0.45812   0.70886   0.80450   0.00000  Uiso   1.00
H1566  H     0.61011   0.95478   0.87667   0.00000  Uiso   1.00
H1567  H     0.34010   0.90983   0.89548   0.00000  Uiso   1.00
H1568  H     0.34572   0.93717   0.84187   0.00000  Uiso   1.00
H1569  H     0.33438   0.87732   0.84466   0.00000  Uiso   1.00
H1570  H     0.59404   0.81740   0.63437   0.00000  Uiso   1.00
H1571  H     0.60282   0.78947   0.58099   0.00000  Uiso   1.00
H1572  H     0.60811   0.74527   0.67395   0.00000  Uiso   1.00
H1573  H     0.61415   0.71585   0.62164   0.00000  Uiso   1.00
H1574  H     0.34200   0.76448   0.60243   0.00000  Uiso   1.00
H1575  H     0.34949   0.73604   0.65521   0.00000  Uiso   1.00
H1576  H     0.54210   0.95778   0.69564   0.00000  Uiso   1.00
H1577  H     0.33572   0.79534   0.65422   0.00000  Uiso   1.00
H1578  H     0.46113   0.89144   0.52768   0.00000  Uiso   1.00
H1579  H     0.46070   0.77498   0.97223   0.00000  Uiso   1.00
H1580  H     0.54185   0.89116   0.97145   0.00000  Uiso   1.00
H1581  H     0.54220   0.77520   0.52864   0.00000  Uiso   1.00
H1582  H     0.37076   0.75969   0.75169   0.00000  Uiso   1.00
N1583  N     0.50000   0.95240   0.75000   0.00000  Uiso   1.00
N1584  N     0.50000   0.71427   0.75000   0.00000  Uiso   1.00
O1585  O     0.43892   0.87154   0.74999   0.00000  Uiso   1.00
O1586  O     0.45199   0.76970   0.88523   0.00000  Uiso   1.00
O1587  O     0.54755   0.89791   0.88416   0.00000  Uiso   1.00
O1588  O     0.54927   0.76992   0.61587   0.00000  Uiso   1.00
O1589  O     0.56108   0.79513   0.75000   0.00000  Uiso   1.00
O1590  O     0.56108   0.87154   0.75000   0.00000  Uiso   1.00
O1591  O     0.43892   0.79513   0.74999   0.00000  Uiso   1.00
O1592  O     0.50000   0.87155   0.68453   0.00000  Uiso   1.00
O1593  O     0.50000   0.79511   0.81547   0.00000  Uiso   1.00
O1594  O     0.50000   0.87155   0.81547   0.00000  Uiso   1.00
O1595  O     0.50000   0.79511   0.68453   0.00000  Uiso   1.00
O1596  O     0.45378   0.89819   0.61477   0.00000  Uiso   1.00
Zn1597 Zn    0.50000   0.88437   0.75000   0.00000  Uiso   1.00
Zn1598 Zn    0.50000   0.78229   0.75000   0.00000  Uiso   1.00
C1599  C     0.75327   0.83333   0.75000   0.00000  Uiso   1.00
C1600  C     0.97870   0.87468   0.74842   0.00000  Uiso   1.00
C1601  C     0.97870   0.79198   0.75164   0.00000  Uiso   1.00
C1602  C     0.68796   0.87470   0.74892   0.00000  Uiso   1.00
C1603  C     0.81180   0.86609   0.54618   0.00000  Uiso   1.00
C1604  C     0.81159   0.80023   0.95377   0.00000  Uiso   1.00
C1605  C     0.85757   0.86577   0.95332   0.00000  Uiso   1.00
C1606  C     0.85774   0.80051   0.54672   0.00000  Uiso   1.00
C1607  C     0.81025   0.86569   0.59245   0.00000  Uiso   1.00
C1608  C     0.80969   0.80110   0.90752   0.00000  Uiso   1.00
C1609  C     0.85814   0.86546   0.90701   0.00000  Uiso   1.00
C1610  C     0.91339   0.83333   0.75001   0.00000  Uiso   1.00
C1611  C     0.85867   0.80131   0.59301   0.00000  Uiso   1.00
C1612  C     0.83410   0.83341   0.61586   0.00000  Uiso   1.00
C1613  C     0.83366   0.83334   0.88414   0.00000  Uiso   1.00
C1614  C     0.83485   0.83315   0.52385   0.00000  Uiso   1.00
C1615  C     0.83491   0.83285   0.97614   0.00000  Uiso   1.00
C1616  C     0.95752   0.83333   0.75003   0.00000  Uiso   1.00
C1617  C     0.70914   0.83333   0.75001   0.00000  Uiso   1.00
C1618  C     0.74479   0.88512   0.61440   0.00000  Uiso   1.00
C1619  C     0.71898   0.92206   0.63714   0.00000  Uiso   1.00
C1620  C     0.67256   0.91090   0.63609   0.00000  Uiso   1.00
C1621  C     0.83352   0.83335   0.66389   0.00000  Uiso   1.00
C1622  C     0.74354   0.78477   0.88589   0.00000  Uiso   1.00
C1623  C     0.71592   0.74867   0.86441   0.00000  Uiso   1.00
C1624  C     0.67003   0.76216   0.86598   0.00000  Uiso   1.00
C1625  C     0.92325   0.88496   0.88390   0.00000  Uiso   1.00
C1626  C     0.94858   0.92154   0.85999   0.00000  Uiso   1.00
C1627  C     0.99507   0.91066   0.86060   0.00000  Uiso   1.00
C1628  C     0.92446   0.78477   0.61577   0.00000  Uiso   1.00
C1629  C     0.95153   0.74907   0.63868   0.00000  Uiso   1.00
C1630  C     0.99752   0.76218   0.63749   0.00000  Uiso   1.00
C1631  C     0.83330   0.83334   0.83611   0.00000  Uiso   1.00
C1632  C     0.85666   0.69066   0.71972   0.00000  Uiso   1.00
C1633  C     0.80994   0.97599   0.78023   0.00000  Uiso   1.00
C1634  C     0.81000   0.69066   0.78027   0.00000  Uiso   1.00
C1635  C     0.85673   0.97600   0.71977   0.00000  Uiso   1.00
C1636  C     0.68796   0.79197   0.75111   0.00000  Uiso   1.00
H1637  H     0.87520   0.70887   0.69549   0.00000  Uiso   1.00
H1638  H     0.96256   0.90693   0.74692   0.00000  Uiso   1.00
H1639  H     0.96256   0.75974   0.75316   0.00000  Uiso   1.00
H1640  H     0.70409   0.90697   0.74831   0.00000  Uiso   1.00
H1641  H     0.74055   0.85267   0.63303   0.00000  Uiso   1.00
H1642  H     0.73321   0.88091   0.57955   0.00000  Uiso   1.00
H1643  H     0.72929   0.92574   0.67235   0.00000  Uiso   1.00
H1644  H     0.72418   0.95496   0.61983   0.00000  Uiso   1.00
H1645  H     0.99465   0.90924   0.60106   0.00000  Uiso   1.00
H1646  H     0.98821   0.93772   0.65398   0.00000  Uiso   1.00
H1647  H     0.99985   0.87788   0.65266   0.00000  Uiso   1.00
H1648  H     0.79123   0.95776   0.80436   0.00000  Uiso   1.00
H1649  H     0.74043   0.81697   0.86660   0.00000  Uiso   1.00
H1650  H     0.73247   0.79036   0.92078   0.00000  Uiso   1.00
H1651  H     0.72548   0.74380   0.82910   0.00000  Uiso   1.00
H1652  H     0.72000   0.71590   0.88229   0.00000  Uiso   1.00
H1653  H     0.99273   0.76553   0.90114   0.00000  Uiso   1.00
H1654  H     0.98432   0.73569   0.84929   0.00000  Uiso   1.00
H1655  H     0.99846   0.79488   0.84843   0.00000  Uiso   1.00
H1656  H     0.92727   0.85219   0.86577   0.00000  Uiso   1.00
H1657  H     0.93542   0.88142   0.91858   0.00000  Uiso   1.00
H1658  H     0.93781   0.92439   0.82486   0.00000  Uiso   1.00
H1659  H     0.79145   0.70886   0.80450   0.00000  Uiso   1.00
H1660  H     0.94344   0.95478   0.87667   0.00000  Uiso   1.00
H1661  H     0.67343   0.90983   0.89548   0.00000  Uiso   1.00
H1662  H     0.67905   0.93717   0.84187   0.00000  Uiso   1.00
H1663  H     0.66772   0.87732   0.84466   0.00000  Uiso   1.00
H1664  H     0.92737   0.81740   0.63437   0.00000  Uiso   1.00
H1665  H     0.93615   0.78947   0.58099   0.00000  Uiso   1.00
H1666  H     0.94144   0.74527   0.67395   0.00000  Uiso   1.00
H1667  H     0.94748   0.71585   0.62164   0.00000  Uiso   1.00
H1668  H     0.67534   0.76448   0.60243   0.00000  Uiso   1.00
H1669  H     0.68282   0.73604   0.65521   0.00000  Uiso   1.00
H1670  H     0.87543   0.95778   0.69564   0.00000  Uiso   1.00
H1671  H     0.66905   0.79534   0.65422   0.00000  Uiso   1.00
H1672  H     0.79446   0.89144   0.52768   0.00000  Uiso   1.00
H1673  H     0.79404   0.77498   0.97223   0.00000  Uiso   1.00
H1674  H     0.87518   0.89116   0.97145   0.00000  Uiso   1.00
H1675  H     0.87554   0.77520   0.52864   0.00000  Uiso   1.00
H1676  H     0.70409   0.75969   0.75169   0.00000  Uiso   1.00
N1677  N     0.83333   0.95240   0.75000   0.00000  Uiso   1.00
N1678  N     0.83333   0.71427   0.75000   0.00000  Uiso   1.00
O1679  O     0.77226   0.87154   0.74999   0.00000  Uiso   1.00
O1680  O     0.78532   0.76970   0.88523   0.00000  Uiso   1.00
O1681  O     0.88089   0.89791   0.88416   0.00000  Uiso   1.00
O1682  O     0.88260   0.76992   0.61587   0.00000  Uiso   1.00
O1683  O     0.89441   0.79513   0.75000   0.00000  Uiso   1.00
O1684  O     0.89441   0.87154   0.75000   0.00000  Uiso   1.00
O1685  O     0.77226   0.79513   0.74999   0.00000  Uiso   1.00
O1686  O     0.83333   0.87155   0.68453   0.00000  Uiso   1.00
O1687  O     0.83334   0.79511   0.81547   0.00000  Uiso   1.00
O1688  O     0.83334   0.87155   0.81547   0.00000  Uiso   1.00
O1689  O     0.83333   0.79511   0.68453   0.00000  Uiso   1.00
O1690  O     0.78712   0.89819   0.61477   0.00000  Uiso   1.00
Zn1691 Zn    0.83333   0.88437   0.75000   0.00000  Uiso   1.00
Zn1692 Zn    0.83333   0.78229   0.75000   0.00000  Uiso   1.00
loop_
_geom_bond_atom_site_label_1
_geom_bond_atom_site_label_2
_geom_bond_distance
_geom_bond_site_symmetry_2
_ccdc_geom_bond_type
C1     O87     1.280   .     A
C1     O81     1.280   .     A
C1     C19     1.417   .     S
C2     C18     1.396   .     A
C2     H40     1.083   .     S
C2     C98     1.367   .     S
C3     C18     1.396   .     A
C3     H41     1.083   .     S
C3     C132    1.367   .     S
C4     C19     1.396   .     A
C4     H42     1.083   .     S
C4     C190    1.367   1_455 S
C5     H74     1.084   .     S
C5     C16     1.391   .     A
C5     C9      1.386   .     A
C6     H75     1.084   .     S
C6     C17     1.391   .     A
C6     C10     1.387   .     A
C7     C11     1.387   .     A
C7     C17     1.391   .     A
C7     H76     1.084   .     S
C8     C13     1.387   .     A
C8     C16     1.391   .     A
C8     H77     1.084   .     S
C9     O92     1.384   .     S
C9     C14     1.408   .     A
C10    C15     1.408   .     A
C10    O82     1.384   .     S
C11    C15     1.409   .     A
C11    O83     1.384   .     S
C12    O85     1.280   .     A
C12    O86     1.280   .     A
C12    C18     1.417   .     S
C13    O84     1.384   .     S
C13    C14     1.409   .     A
C14    C23     1.438   .     S
C15    C33     1.438   .     S
C16    C863    1.428   1_554 S
C17    C862    1.428   .     S
C19    C38     1.396   .     A
C20    O92     1.412   .     S
C20    H44     1.115   .     S
C20    H43     1.115   .     S
C20    C21     1.528   .     S
C21    C22     1.527   .     S
C21    H45     1.111   .     S
C21    H46     1.112   .     S
C22    H235    1.111   1_455 S
C22    H236    1.110   1_455 S
C22    H237    1.109   1_455 S
C23    O88     1.284   .     A
C23    O91     1.285   .     A
C24    H52     1.115   .     S
C24    O82     1.413   .     S
C24    H51     1.115   .     S
C24    C25     1.528   .     S
C25    H53     1.110   .     S
C25    H54     1.112   .     S
C25    C26     1.527   .     S
C26    H243    1.111   1_455 S
C26    H244    1.110   1_455 S
C26    H245    1.109   1_455 S
C27    H58     1.115   .     S
C27    O83     1.412   .     S
C27    H59     1.115   .     S
C27    C28     1.528   .     S
C28    C29     1.527   .     S
C28    H60     1.111   .     S
C28    H62     1.112   .     S
C29    H157    1.111   .     S
C29    H158    1.111   .     S
C29    H159    1.109   .     S
C30    C31     1.528   .     S
C30    H67     1.115   .     S
C30    H66     1.115   .     S
C30    O84     1.413   .     S
C31    H68     1.110   .     S
C31    C32     1.527   .     S
C31    H69     1.112   .     S
C32    H164    1.111   .     S
C32    H165    1.110   .     S
C32    H167    1.109   .     S
C33    O89     1.285   .     A
C33    O90     1.285   .     A
C34    N80     1.366   .     A
C34    H39     1.081   .     S
C34    C601    1.415   1_545 S
C35    H50     1.082   .     S
C35    N79     1.366   .     A
C35    C318    1.415   .     S
C36    N80     1.366   .     A
C36    H61     1.081   .     S
C36    C599    1.415   1_545 S
C37    N79     1.366   .     A
C37    H72     1.082   .     S
C37    C316    1.415   .     S
C38    H78     1.083   .     S
C38    C191    1.367   1_455 S
H47    C116    1.111   .     S
H48    C116    1.110   .     S
H49    C116    1.109   .     S
H55    C120    1.111   .     S
H56    C120    1.110   .     S
H57    C120    1.109   .     S
H63    C217    1.111   1_455 S
H64    C217    1.111   1_455 S
H65    C217    1.109   1_455 S
H70    C220    1.111   1_455 S
H71    C220    1.110   1_455 S
H73    C220    1.109   1_455 S
N79    Zn93    2.005   .     S
N80    Zn94    2.005   .     S
O81    Zn93    1.997   .     S
O85    Zn94    1.997   .     S
O86    Zn93    1.997   .     S
O87    Zn94    1.997   .     S
O88    Zn93    1.997   .     S
O89    Zn94    1.997   .     S
O90    Zn93    1.996   .     S
O91    Zn94    1.996   .     S
C95    O181    1.280   .     A
C95    O175    1.280   .     A
C95    C113    1.417   .     S
C96    C112    1.396   .     A
C96    H134    1.083   .     S
C96    C192    1.367   .     S
C97    C112    1.396   .     A
C97    H135    1.083   .     S
C97    C226    1.367   .     S
C98    C113    1.396   .     A
C98    H136    1.083   .     S
C99    H168    1.084   .     S
C99    C110    1.391   .     A
C99    C103    1.386   .     A
C100   H169    1.084   .     S
C100   C111    1.391   .     A
C100   C104    1.387   .     A
C101   C105    1.387   .     A
C101   C111    1.391   .     A
C101   H170    1.084   .     S
C102   C107    1.387   .     A
C102   C110    1.391   .     A
C102   H171    1.084   .     S
C103   O186    1.384   .     S
C103   C108    1.408   .     A
C104   C109    1.408   .     A
C104   O176    1.384   .     S
C105   C109    1.409   .     A
C105   O177    1.384   .     S
C106   O179    1.280   .     A
C106   O180    1.280   .     A
C106   C112    1.417   .     S
C107   O178    1.384   .     S
C107   C108    1.409   .     A
C108   C117    1.438   .     S
C109   C127    1.438   .     S
C110   C957    1.428   1_554 S
C111   C956    1.428   .     S
C113   C132    1.396   .     A
C114   O186    1.412   .     S
C114   H138    1.115   .     S
C114   H137    1.115   .     S
C114   C115    1.528   .     S
C115   C116    1.527   .     S
C115   H139    1.111   .     S
C115   H140    1.112   .     S
C117   O182    1.284   .     A
C117   O185    1.285   .     A
C118   H146    1.115   .     S
C118   O176    1.413   .     S
C118   H145    1.115   .     S
C118   C119    1.528   .     S
C119   H147    1.110   .     S
C119   H148    1.112   .     S
C119   C120    1.527   .     S
C121   H152    1.115   .     S
C121   O177    1.412   .     S
C121   H153    1.115   .     S
C121   C122    1.528   .     S
C122   C123    1.527   .     S
C122   H154    1.111   .     S
C122   H156    1.112   .     S
C123   H251    1.111   .     S
C123   H252    1.111   .     S
C123   H253    1.109   .     S
C124   C125    1.528   .     S
C124   H161    1.115   .     S
C124   H160    1.115   .     S
C124   O178    1.413   .     S
C125   H162    1.110   .     S
C125   C126    1.527   .     S
C125   H163    1.112   .     S
C126   H258    1.111   .     S
C126   H259    1.110   .     S
C126   H261    1.109   .     S
C127   O183    1.285   .     A
C127   O184    1.285   .     A
C128   N174    1.366   .     A
C128   H133    1.081   .     S
C128   C695    1.415   1_545 S
C129   H144    1.082   .     S
C129   N173    1.366   .     A
C129   C412    1.415   .     S
C130   N174    1.366   .     A
C130   H155    1.081   .     S
C130   C693    1.415   1_545 S
C131   N173    1.366   .     A
C131   H166    1.082   .     S
C131   C410    1.415   .     S
C132   H172    1.083   .     S
H141   C210    1.111   .     S
H142   C210    1.110   .     S
H143   C210    1.109   .     S
H149   C214    1.111   .     S
H150   C214    1.110   .     S
H151   C214    1.109   .     S
N173   Zn187   2.005   .     S
N174   Zn188   2.005   .     S
O175   Zn187   1.997   .     S
O179   Zn188   1.997   .     S
O180   Zn187   1.997   .     S
O181   Zn188   1.997   .     S
O182   Zn187   1.997   .     S
O183   Zn188   1.997   .     S
O184   Zn187   1.996   .     S
O185   Zn188   1.996   .     S
C189   O275    1.280   .     A
C189   O269    1.280   .     A
C189   C207    1.417   .     S
C190   C206    1.396   .     A
C190   H228    1.083   .     S
C190   C4      1.367   1_655 S
C191   C206    1.396   .     A
C191   H229    1.083   .     S
C191   C38     1.367   1_655 S
C192   C207    1.396   .     A
C192   H230    1.083   .     S
C193   H262    1.084   .     S
C193   C204    1.391   .     A
C193   C197    1.386   .     A
C194   H263    1.084   .     S
C194   C205    1.391   .     A
C194   C198    1.387   .     A
C195   C199    1.387   .     A
C195   C205    1.391   .     A
C195   H264    1.084   .     S
C196   C201    1.387   .     A
C196   C204    1.391   .     A
C196   H265    1.084   .     S
C197   O280    1.384   .     S
C197   C202    1.408   .     A
C198   C203    1.408   .     A
C198   O270    1.384   .     S
C199   C203    1.409   .     A
C199   O271    1.384   .     S
C200   O273    1.280   .     A
C200   O274    1.280   .     A
C200   C206    1.417   .     S
C201   O272    1.384   .     S
C201   C202    1.409   .     A
C202   C211    1.438   .     S
C203   C221    1.438   .     S
C204   C1051   1.428   1_554 S
C205   C1050   1.428   .     S
C207   C226    1.396   .     A
C208   O280    1.412   .     S
C208   H232    1.115   .     S
C208   H231    1.115   .     S
C208   C209    1.528   .     S
C209   C210    1.527   .     S
C209   H233    1.111   .     S
C209   H234    1.112   .     S
C211   O276    1.284   .     A
C211   O279    1.285   .     A
C212   H240    1.115   .     S
C212   O270    1.413   .     S
C212   H239    1.115   .     S
C212   C213    1.528   .     S
C213   H241    1.110   .     S
C213   H242    1.112   .     S
C213   C214    1.527   .     S
C215   H246    1.115   .     S
C215   O271    1.412   .     S
C215   H247    1.115   .     S
C215   C216    1.528   .     S
C216   C217    1.527   .     S
C216   H248    1.111   .     S
C216   H250    1.112   .     S
C217   H63     1.111   1_655 S
C217   H64     1.111   1_655 S
C217   H65     1.109   1_655 S
C218   C219    1.528   .     S
C218   H255    1.115   .     S
C218   H254    1.115   .     S
C218   O272    1.413   .     S
C219   H256    1.110   .     S
C219   C220    1.527   .     S
C219   H257    1.112   .     S
C220   H70     1.111   1_655 S
C220   H71     1.110   1_655 S
C220   H73     1.109   1_655 S
C221   O277    1.285   .     A
C221   O278    1.285   .     A
C222   N268    1.366   .     A
C222   H227    1.081   .     S
C222   C789    1.415   1_545 S
C223   H238    1.082   .     S
C223   N267    1.366   .     A
C223   C506    1.415   .     S
C224   N268    1.366   .     A
C224   H249    1.081   .     S
C224   C787    1.415   1_545 S
C225   N267    1.366   .     A
C225   H260    1.082   .     S
C225   C504    1.415   .     S
C226   H266    1.083   .     S
H235   C22     1.111   1_655 S
H236   C22     1.110   1_655 S
H237   C22     1.109   1_655 S
H243   C26     1.111   1_655 S
H244   C26     1.110   1_655 S
H245   C26     1.109   1_655 S
N267   Zn281   2.005   .     S
N268   Zn282   2.005   .     S
O269   Zn281   1.997   .     S
O273   Zn282   1.997   .     S
O274   Zn281   1.997   .     S
O275   Zn282   1.997   .     S
O276   Zn281   1.997   .     S
O277   Zn282   1.997   .     S
O278   Zn281   1.996   .     S
O279   Zn282   1.996   .     S
C283   O369    1.280   .     A
C283   O363    1.280   .     A
C283   C301    1.417   .     S
C284   C300    1.396   .     A
C284   H322    1.083   .     S
C284   C380    1.367   .     S
C285   C300    1.396   .     A
C285   H323    1.083   .     S
C285   C414    1.367   .     S
C286   C301    1.396   .     A
C286   H324    1.083   .     S
C286   C472    1.367   1_455 S
C287   H356    1.084   .     S
C287   C298    1.391   .     A
C287   C291    1.386   .     A
C288   H357    1.084   .     S
C288   C299    1.391   .     A
C288   C292    1.387   .     A
C289   C293    1.387   .     A
C289   C299    1.391   .     A
C289   H358    1.084   .     S
C290   C295    1.387   .     A
C290   C298    1.391   .     A
C290   H359    1.084   .     S
C291   O374    1.384   .     S
C291   C296    1.408   .     A
C292   C297    1.408   .     A
C292   O364    1.384   .     S
C293   C297    1.409   .     A
C293   O365    1.384   .     S
C294   O367    1.280   .     A
C294   O368    1.280   .     A
C294   C300    1.417   .     S
C295   O366    1.384   .     S
C295   C296    1.409   .     A
C296   C305    1.438   .     S
C297   C315    1.438   .     S
C298   C1145   1.428   1_554 S
C299   C1144   1.428   .     S
C301   C320    1.396   .     A
C302   O374    1.412   .     S
C302   H326    1.115   .     S
C302   H325    1.115   .     S
C302   C303    1.528   .     S
C303   C304    1.527   .     S
C303   H327    1.111   .     S
C303   H328    1.112   .     S
C304   H517    1.111   1_455 S
C304   H518    1.110   1_455 S
C304   H519    1.109   1_455 S
C305   O370    1.284   .     A
C305   O373    1.285   .     A
C306   H334    1.115   .     S
C306   O364    1.413   .     S
C306   H333    1.115   .     S
C306   C307    1.528   .     S
C307   H335    1.110   .     S
C307   H336    1.112   .     S
C307   C308    1.527   .     S
C308   H525    1.111   1_455 S
C308   H526    1.110   1_455 S
C308   H527    1.109   1_455 S
C309   H340    1.115   .     S
C309   O365    1.412   .     S
C309   H341    1.115   .     S
C309   C310    1.528   .     S
C310   C311    1.527   .     S
C310   H342    1.111   .     S
C310   H344    1.112   .     S
C311   H439    1.111   .     S
C311   H440    1.111   .     S
C311   H441    1.109   .     S
C312   C313    1.528   .     S
C312   H349    1.115   .     S
C312   H348    1.115   .     S
C312   O366    1.413   .     S
C313   H350    1.110   .     S
C313   C314    1.527   .     S
C313   H351    1.112   .     S
C314   H446    1.111   .     S
C314   H447    1.110   .     S
C314   H449    1.109   .     S
C315   O371    1.285   .     A
C315   O372    1.285   .     A
C316   N362    1.366   .     A
C316   H321    1.081   .     S
C317   H332    1.082   .     S
C317   N361    1.366   .     A
C317   C600    1.415   .     S
C318   N362    1.366   .     A
C318   H343    1.081   .     S
C319   N361    1.366   .     A
C319   H354    1.082   .     S
C319   C598    1.415   .     S
C320   H360    1.083   .     S
C320   C473    1.367   1_455 S
H329   C398    1.111   .     S
H330   C398    1.110   .     S
H331   C398    1.109   .     S
H337   C402    1.111   .     S
H338   C402    1.110   .     S
H339   C402    1.109   .     S
H345   C499    1.111   1_455 S
H346   C499    1.111   1_455 S
H347   C499    1.109   1_455 S
H352   C502    1.111   1_455 S
H353   C502    1.110   1_455 S
H355   C502    1.109   1_455 S
N361   Zn375   2.005   .     S
N362   Zn376   2.005   .     S
O363   Zn375   1.997   .     S
O367   Zn376   1.997   .     S
O368   Zn375   1.997   .     S
O369   Zn376   1.997   .     S
O370   Zn375   1.997   .     S
O371   Zn376   1.997   .     S
O372   Zn375   1.996   .     S
O373   Zn376   1.996   .     S
C377   O463    1.280   .     A
C377   O457    1.280   .     A
C377   C395    1.417   .     S
C378   C394    1.396   .     A
C378   H416    1.083   .     S
C378   C474    1.367   .     S
C379   C394    1.396   .     A
C379   H417    1.083   .     S
C379   C508    1.367   .     S
C380   C395    1.396   .     A
C380   H418    1.083   .     S
C381   H450    1.084   .     S
C381   C392    1.391   .     A
C381   C385    1.386   .     A
C382   H451    1.084   .     S
C382   C393    1.391   .     A
C382   C386    1.387   .     A
C383   C387    1.387   .     A
C383   C393    1.391   .     A
C383   H452    1.084   .     S
C384   C389    1.387   .     A
C384   C392    1.391   .     A
C384   H453    1.084   .     S
C385   O468    1.384   .     S
C385   C390    1.408   .     A
C386   C391    1.408   .     A
C386   O458    1.384   .     S
C387   C391    1.409   .     A
C387   O459    1.384   .     S
C388   O461    1.280   .     A
C388   O462    1.280   .     A
C388   C394    1.417   .     S
C389   O460    1.384   .     S
C389   C390    1.409   .     A
C390   C399    1.438   .     S
C391   C409    1.438   .     S
C392   C1239   1.428   1_554 S
C393   C1238   1.428   .     S
C395   C414    1.396   .     A
C396   O468    1.412   .     S
C396   H420    1.115   .     S
C396   H419    1.115   .     S
C396   C397    1.528   .     S
C397   C398    1.527   .     S
C397   H421    1.111   .     S
C397   H422    1.112   .     S
C399   O464    1.284   .     A
C399   O467    1.285   .     A
C400   H428    1.115   .     S
C400   O458    1.413   .     S
C400   H427    1.115   .     S
C400   C401    1.528   .     S
C401   H429    1.110   .     S
C401   H430    1.112   .     S
C401   C402    1.527   .     S
C403   H434    1.115   .     S
C403   O459    1.412   .     S
C403   H435    1.115   .     S
C403   C404    1.528   .     S
C404   C405    1.527   .     S
C404   H436    1.111   .     S
C404   H438    1.112   .     S
C405   H533    1.111   .     S
C405   H534    1.111   .     S
C405   H535    1.109   .     S
C406   C407    1.528   .     S
C406   H443    1.115   .     S
C406   H442    1.115   .     S
C406   O460    1.413   .     S
C407   H444    1.110   .     S
C407   C408    1.527   .     S
C407   H445    1.112   .     S
C408   H540    1.111   .     S
C408   H541    1.110   .     S
C408   H543    1.109   .     S
C409   O465    1.285   .     A
C409   O466    1.285   .     A
C410   N456    1.366   .     A
C410   H415    1.081   .     S
C411   H426    1.082   .     S
C411   N455    1.366   .     A
C411   C694    1.415   .     S
C412   N456    1.366   .     A
C412   H437    1.081   .     S
C413   N455    1.366   .     A
C413   H448    1.082   .     S
C413   C692    1.415   .     S
C414   H454    1.083   .     S
H423   C492    1.111   .     S
H424   C492    1.110   .     S
H425   C492    1.109   .     S
H431   C496    1.111   .     S
H432   C496    1.110   .     S
H433   C496    1.109   .     S
N455   Zn469   2.005   .     S
N456   Zn470   2.005   .     S
O457   Zn469   1.997   .     S
O461   Zn470   1.997   .     S
O462   Zn469   1.997   .     S
O463   Zn470   1.997   .     S
O464   Zn469   1.997   .     S
O465   Zn470   1.997   .     S
O466   Zn469   1.996   .     S
O467   Zn470   1.996   .     S
C471   O557    1.280   .     A
C471   O551    1.280   .     A
C471   C489    1.417   .     S
C472   C488    1.396   .     A
C472   H510    1.083   .     S
C472   C286    1.367   1_655 S
C473   C488    1.396   .     A
C473   H511    1.083   .     S
C473   C320    1.367   1_655 S
C474   C489    1.396   .     A
C474   H512    1.083   .     S
C475   H544    1.084   .     S
C475   C486    1.391   .     A
C475   C479    1.386   .     A
C476   H545    1.084   .     S
C476   C487    1.391   .     A
C476   C480    1.387   .     A
C477   C481    1.387   .     A
C477   C487    1.391   .     A
C477   H546    1.084   .     S
C478   C483    1.387   .     A
C478   C486    1.391   .     A
C478   H547    1.084   .     S
C479   O562    1.384   .     S
C479   C484    1.408   .     A
C480   C485    1.408   .     A
C480   O552    1.384   .     S
C481   C485    1.409   .     A
C481   O553    1.384   .     S
C482   O555    1.280   .     A
C482   O556    1.280   .     A
C482   C488    1.417   .     S
C483   O554    1.384   .     S
C483   C484    1.409   .     A
C484   C493    1.438   .     S
C485   C503    1.438   .     S
C486   C1333   1.428   1_554 S
C487   C1332   1.428   .     S
C489   C508    1.396   .     A
C490   O562    1.412   .     S
C490   H514    1.115   .     S
C490   H513    1.115   .     S
C490   C491    1.528   .     S
C491   C492    1.527   .     S
C491   H515    1.111   .     S
C491   H516    1.112   .     S
C493   O558    1.284   .     A
C493   O561    1.285   .     A
C494   H522    1.115   .     S
C494   O552    1.413   .     S
C494   H521    1.115   .     S
C494   C495    1.528   .     S
C495   H523    1.110   .     S
C495   H524    1.112   .     S
C495   C496    1.527   .     S
C497   H528    1.115   .     S
C497   O553    1.412   .     S
C497   H529    1.115   .     S
C497   C498    1.528   .     S
C498   C499    1.527   .     S
C498   H530    1.111   .     S
C498   H532    1.112   .     S
C499   H345    1.111   1_655 S
C499   H346    1.111   1_655 S
C499   H347    1.109   1_655 S
C500   C501    1.528   .     S
C500   H537    1.115   .     S
C500   H536    1.115   .     S
C500   O554    1.413   .     S
C501   H538    1.110   .     S
C501   C502    1.527   .     S
C501   H539    1.112   .     S
C502   H352    1.111   1_655 S
C502   H353    1.110   1_655 S
C502   H355    1.109   1_655 S
C503   O559    1.285   .     A
C503   O560    1.285   .     A
C504   N550    1.366   .     A
C504   H509    1.081   .     S
C505   H520    1.082   .     S
C505   N549    1.366   .     A
C505   C788    1.415   .     S
C506   N550    1.366   .     A
C506   H531    1.081   .     S
C507   N549    1.366   .     A
C507   H542    1.082   .     S
C507   C786    1.415   .     S
C508   H548    1.083   .     S
H517   C304    1.111   1_655 S
H518   C304    1.110   1_655 S
H519   C304    1.109   1_655 S
H525   C308    1.111   1_655 S
H526   C308    1.110   1_655 S
H527   C308    1.109   1_655 S
N549   Zn563   2.005   .     S
N550   Zn564   2.005   .     S
O551   Zn563   1.997   .     S
O555   Zn564   1.997   .     S
O556   Zn563   1.997   .     S
O557   Zn564   1.997   .     S
O558   Zn563   1.997   .     S
O559   Zn564   1.997   .     S
O560   Zn563   1.996   .     S
O561   Zn564   1.996   .     S
C565   O651    1.280   .     A
C565   O645    1.280   .     A
C565   C583    1.417   .     S
C566   C582    1.396   .     A
C566   H604    1.083   .     S
C566   C662    1.367   .     S
C567   C582    1.396   .     A
C567   H605    1.083   .     S
C567   C696    1.367   .     S
C568   C583    1.396   .     A
C568   H606    1.083   .     S
C568   C754    1.367   1_455 S
C569   H638    1.084   .     S
C569   C580    1.391   .     A
C569   C573    1.386   .     A
C570   H639    1.084   .     S
C570   C581    1.391   .     A
C570   C574    1.387   .     A
C571   C575    1.387   .     A
C571   C581    1.391   .     A
C571   H640    1.084   .     S
C572   C577    1.387   .     A
C572   C580    1.391   .     A
C572   H641    1.084   .     S
C573   O656    1.384   .     S
C573   C578    1.408   .     A
C574   C579    1.408   .     A
C574   O646    1.384   .     S
C575   C579    1.409   .     A
C575   O647    1.384   .     S
C576   O649    1.280   .     A
C576   O650    1.280   .     A
C576   C582    1.417   .     S
C577   O648    1.384   .     S
C577   C578    1.409   .     A
C578   C587    1.438   .     S
C579   C597    1.438   .     S
C580   C1427   1.428   1_554 S
C581   C1426   1.428   .     S
C583   C602    1.396   .     A
C584   O656    1.412   .     S
C584   H608    1.115   .     S
C584   H607    1.115   .     S
C584   C585    1.528   .     S
C585   C586    1.527   .     S
C585   H609    1.111   .     S
C585   H610    1.112   .     S
C586   H799    1.111   1_455 S
C586   H800    1.110   1_455 S
C586   H801    1.109   1_455 S
C587   O652    1.284   .     A
C587   O655    1.285   .     A
C588   H616    1.115   .     S
C588   O646    1.413   .     S
C588   H615    1.115   .     S
C588   C589    1.528   .     S
C589   H617    1.110   .     S
C589   H618    1.112   .     S
C589   C590    1.527   .     S
C590   H807    1.111   1_455 S
C590   H808    1.110   1_455 S
C590   H809    1.109   1_455 S
C591   H622    1.115   .     S
C591   O647    1.412   .     S
C591   H623    1.115   .     S
C591   C592    1.528   .     S
C592   C593    1.527   .     S
C592   H624    1.111   .     S
C592   H626    1.112   .     S
C593   H721    1.111   .     S
C593   H722    1.111   .     S
C593   H723    1.109   .     S
C594   C595    1.528   .     S
C594   H631    1.115   .     S
C594   H630    1.115   .     S
C594   O648    1.413   .     S
C595   H632    1.110   .     S
C595   C596    1.527   .     S
C595   H633    1.112   .     S
C596   H728    1.111   .     S
C596   H729    1.110   .     S
C596   H731    1.109   .     S
C597   O653    1.285   .     A
C597   O654    1.285   .     A
C598   N644    1.366   .     A
C598   H603    1.081   .     S
C599   H614    1.082   .     S
C599   N643    1.366   .     A
C599   C36     1.415   1_565 S
C600   N644    1.366   .     A
C600   H625    1.081   .     S
C601   N643    1.366   .     A
C601   H636    1.082   .     S
C601   C34     1.415   1_565 S
C602   H642    1.083   .     S
C602   C755    1.367   1_455 S
H611   C680    1.111   .     S
H612   C680    1.110   .     S
H613   C680    1.109   .     S
H619   C684    1.111   .     S
H620   C684    1.110   .     S
H621   C684    1.109   .     S
H627   C781    1.111   1_455 S
H628   C781    1.111   1_455 S
H629   C781    1.109   1_455 S
H634   C784    1.111   1_455 S
H635   C784    1.110   1_455 S
H637   C784    1.109   1_455 S
N643   Zn657   2.005   .     S
N644   Zn658   2.005   .     S
O645   Zn657   1.997   .     S
O649   Zn658   1.997   .     S
O650   Zn657   1.997   .     S
O651   Zn658   1.997   .     S
O652   Zn657   1.997   .     S
O653   Zn658   1.997   .     S
O654   Zn657   1.996   .     S
O655   Zn658   1.996   .     S
C659   O745    1.280   .     A
C659   O739    1.280   .     A
C659   C677    1.417   .     S
C660   C676    1.396   .     A
C660   H698    1.083   .     S
C660   C756    1.367   .     S
C661   C676    1.396   .     A
C661   H699    1.083   .     S
C661   C790    1.367   .     S
C662   C677    1.396   .     A
C662   H700    1.083   .     S
C663   H732    1.084   .     S
C663   C674    1.391   .     A
C663   C667    1.386   .     A
C664   H733    1.084   .     S
C664   C675    1.391   .     A
C664   C668    1.387   .     A
C665   C669    1.387   .     A
C665   C675    1.391   .     A
C665   H734    1.084   .     S
C666   C671    1.387   .     A
C666   C674    1.391   .     A
C666   H735    1.084   .     S
C667   O750    1.384   .     S
C667   C672    1.408   .     A
C668   C673    1.408   .     A
C668   O740    1.384   .     S
C669   C673    1.409   .     A
C669   O741    1.384   .     S
C670   O743    1.280   .     A
C670   O744    1.280   .     A
C670   C676    1.417   .     S
C671   O742    1.384   .     S
C671   C672    1.409   .     A
C672   C681    1.438   .     S
C673   C691    1.438   .     S
C674   C1521   1.428   1_554 S
C675   C1520   1.428   .     S
C677   C696    1.396   .     A
C678   O750    1.412   .     S
C678   H702    1.115   .     S
C678   H701    1.115   .     S
C678   C679    1.528   .     S
C679   C680    1.527   .     S
C679   H703    1.111   .     S
C679   H704    1.112   .     S
C681   O746    1.284   .     A
C681   O749    1.285   .     A
C682   H710    1.115   .     S
C682   O740    1.413   .     S
C682   H709    1.115   .     S
C682   C683    1.528   .     S
C683   H711    1.110   .     S
C683   H712    1.112   .     S
C683   C684    1.527   .     S
C685   H716    1.115   .     S
C685   O741    1.412   .     S
C685   H717    1.115   .     S
C685   C686    1.528   .     S
C686   C687    1.527   .     S
C686   H718    1.111   .     S
C686   H720    1.112   .     S
C687   H815    1.111   .     S
C687   H816    1.111   .     S
C687   H817    1.109   .     S
C688   C689    1.528   .     S
C688   H725    1.115   .     S
C688   H724    1.115   .     S
C688   O742    1.413   .     S
C689   H726    1.110   .     S
C689   C690    1.527   .     S
C689   H727    1.112   .     S
C690   H822    1.111   .     S
C690   H823    1.110   .     S
C690   H825    1.109   .     S
C691   O747    1.285   .     A
C691   O748    1.285   .     A
C692   N738    1.366   .     A
C692   H697    1.081   .     S
C693   H708    1.082   .     S
C693   N737    1.366   .     A
C693   C130    1.415   1_565 S
C694   N738    1.366   .     A
C694   H719    1.081   .     S
C695   N737    1.366   .     A
C695   H730    1.082   .     S
C695   C128    1.415   1_565 S
C696   H736    1.083   .     S
H705   C774    1.111   .     S
H706   C774    1.110   .     S
H707   C774    1.109   .     S
H713   C778    1.111   .     S
H714   C778    1.110   .     S
H715   C778    1.109   .     S
N737   Zn751   2.005   .     S
N738   Zn752   2.005   .     S
O739   Zn751   1.997   .     S
O743   Zn752   1.997   .     S
O744   Zn751   1.997   .     S
O745   Zn752   1.997   .     S
O746   Zn751   1.997   .     S
O747   Zn752   1.997   .     S
O748   Zn751   1.996   .     S
O749   Zn752   1.996   .     S
C753   O839    1.280   .     A
C753   O833    1.280   .     A
C753   C771    1.417   .     S
C754   C770    1.396   .     A
C754   H792    1.083   .     S
C754   C568    1.367   1_655 S
C755   C770    1.396   .     A
C755   H793    1.083   .     S
C755   C602    1.367   1_655 S
C756   C771    1.396   .     A
C756   H794    1.083   .     S
C757   H826    1.084   .     S
C757   C768    1.391   .     A
C757   C761    1.386   .     A
C758   H827    1.084   .     S
C758   C769    1.391   .     A
C758   C762    1.387   .     A
C759   C763    1.387   .     A
C759   C769    1.391   .     A
C759   H828    1.084   .     S
C760   C765    1.387   .     A
C760   C768    1.391   .     A
C760   H829    1.084   .     S
C761   O844    1.384   .     S
C761   C766    1.408   .     A
C762   C767    1.408   .     A
C762   O834    1.384   .     S
C763   C767    1.409   .     A
C763   O835    1.384   .     S
C764   O837    1.280   .     A
C764   O838    1.280   .     A
C764   C770    1.417   .     S
C765   O836    1.384   .     S
C765   C766    1.409   .     A
C766   C775    1.438   .     S
C767   C785    1.438   .     S
C768   C1615   1.428   1_554 S
C769   C1614   1.428   .     S
C771   C790    1.396   .     A
C772   O844    1.412   .     S
C772   H796    1.115   .     S
C772   H795    1.115   .     S
C772   C773    1.528   .     S
C773   C774    1.527   .     S
C773   H797    1.111   .     S
C773   H798    1.112   .     S
C775   O840    1.284   .     A
C775   O843    1.285   .     A
C776   H804    1.115   .     S
C776   O834    1.413   .     S
C776   H803    1.115   .     S
C776   C777    1.528   .     S
C777   H805    1.110   .     S
C777   H806    1.112   .     S
C777   C778    1.527   .     S
C779   H810    1.115   .     S
C779   O835    1.412   .     S
C779   H811    1.115   .     S
C779   C780    1.528   .     S
C780   C781    1.527   .     S
C780   H812    1.111   .     S
C780   H814    1.112   .     S
C781   H627    1.111   1_655 S
C781   H628    1.111   1_655 S
C781   H629    1.109   1_655 S
C782   C783    1.528   .     S
C782   H819    1.115   .     S
C782   H818    1.115   .     S
C782   O836    1.413   .     S
C783   H820    1.110   .     S
C783   C784    1.527   .     S
C783   H821    1.112   .     S
C784   H634    1.111   1_655 S
C784   H635    1.110   1_655 S
C784   H637    1.109   1_655 S
C785   O841    1.285   .     A
C785   O842    1.285   .     A
C786   N832    1.366   .     A
C786   H791    1.081   .     S
C787   H802    1.082   .     S
C787   N831    1.366   .     A
C787   C224    1.415   1_565 S
C788   N832    1.366   .     A
C788   H813    1.081   .     S
C789   N831    1.366   .     A
C789   H824    1.082   .     S
C789   C222    1.415   1_565 S
C790   H830    1.083   .     S
H799   C586    1.111   1_655 S
H800   C586    1.110   1_655 S
H801   C586    1.109   1_655 S
H807   C590    1.111   1_655 S
H808   C590    1.110   1_655 S
H809   C590    1.109   1_655 S
N831   Zn845   2.005   .     S
N832   Zn846   2.005   .     S
O833   Zn845   1.997   .     S
O837   Zn846   1.997   .     S
O838   Zn845   1.997   .     S
O839   Zn846   1.997   .     S
O840   Zn845   1.997   .     S
O841   Zn846   1.997   .     S
O842   Zn845   1.996   .     S
O843   Zn846   1.996   .     S
C847   O933    1.280   .     A
C847   O927    1.280   .     A
C847   C865    1.417   .     S
C848   C864    1.396   .     A
C848   H886    1.083   .     S
C848   C944    1.367   .     S
C849   C864    1.396   .     A
C849   H887    1.083   .     S
C849   C978    1.367   .     S
C850   C865    1.396   .     A
C850   H888    1.083   .     S
C850   C1036   1.367   1_455 S
C851   H920    1.084   .     S
C851   C862    1.391   .     A
C851   C855    1.386   .     A
C852   H921    1.084   .     S
C852   C863    1.391   .     A
C852   C856    1.387   .     A
C853   C857    1.387   .     A
C853   C863    1.391   .     A
C853   H922    1.084   .     S
C854   C859    1.387   .     A
C854   C862    1.391   .     A
C854   H923    1.084   .     S
C855   O938    1.384   .     S
C855   C860    1.408   .     A
C856   C861    1.408   .     A
C856   O928    1.384   .     S
C857   C861    1.409   .     A
C857   O929    1.384   .     S
C858   O931    1.280   .     A
C858   O932    1.280   .     A
C858   C864    1.417   .     S
C859   O930    1.384   .     S
C859   C860    1.409   .     A
C860   C869    1.438   .     S
C861   C879    1.438   .     S
C863   C16     1.428   1_556 S
C865   C884    1.396   .     A
C866   O938    1.412   .     S
C866   H890    1.115   .     S
C866   H889    1.115   .     S
C866   C867    1.528   .     S
C867   C868    1.527   .     S
C867   H891    1.111   .     S
C867   H892    1.112   .     S
C868   H1081   1.111   1_455 S
C868   H1082   1.110   1_455 S
C868   H1083   1.109   1_455 S
C869   O934    1.284   .     A
C869   O937    1.285   .     A
C870   H898    1.115   .     S
C870   O928    1.413   .     S
C870   H897    1.115   .     S
C870   C871    1.528   .     S
C871   H899    1.110   .     S
C871   H900    1.112   .     S
C871   C872    1.527   .     S
C872   H1089   1.111   1_455 S
C872   H1090   1.110   1_455 S
C872   H1091   1.109   1_455 S
C873   H904    1.115   .     S
C873   O929    1.412   .     S
C873   H905    1.115   .     S
C873   C874    1.528   .     S
C874   C875    1.527   .     S
C874   H906    1.111   .     S
C874   H908    1.112   .     S
C875   H1003   1.111   .     S
C875   H1004   1.111   .     S
C875   H1005   1.109   .     S
C876   C877    1.528   .     S
C876   H913    1.115   .     S
C876   H912    1.115   .     S
C876   O930    1.413   .     S
C877   H914    1.110   .     S
C877   C878    1.527   .     S
C877   H915    1.112   .     S
C878   H1010   1.111   .     S
C878   H1011   1.110   .     S
C878   H1013   1.109   .     S
C879   O935    1.285   .     A
C879   O936    1.285   .     A
C880   N926    1.366   .     A
C880   H885    1.081   .     S
C880   C1447   1.415   1_545 S
C881   H896    1.082   .     S
C881   N925    1.366   .     A
C881   C1164   1.415   .     S
C882   N926    1.366   .     A
C882   H907    1.081   .     S
C882   C1445   1.415   1_545 S
C883   N925    1.366   .     A
C883   H918    1.082   .     S
C883   C1162   1.415   .     S
C884   H924    1.083   .     S
C884   C1037   1.367   1_455 S
H893   C962    1.111   .     S
H894   C962    1.110   .     S
H895   C962    1.109   .     S
H901   C966    1.111   .     S
H902   C966    1.110   .     S
H903   C966    1.109   .     S
H909   C1063   1.111   1_455 S
H910   C1063   1.111   1_455 S
H911   C1063   1.109   1_455 S
H916   C1066   1.111   1_455 S
H917   C1066   1.110   1_455 S
H919   C1066   1.109   1_455 S
N925   Zn939   2.005   .     S
N926   Zn940   2.005   .     S
O927   Zn939   1.997   .     S
O931   Zn940   1.997   .     S
O932   Zn939   1.997   .     S
O933   Zn940   1.997   .     S
O934   Zn939   1.997   .     S
O935   Zn940   1.997   .     S
O936   Zn939   1.996   .     S
O937   Zn940   1.996   .     S
C941   O1027   1.280   .     A
C941   O1021   1.280   .     A
C941   C959    1.417   .     S
C942   C958    1.396   .     A
C942   H980    1.083   .     S
C942   C1038   1.367   .     S
C943   C958    1.396   .     A
C943   H981    1.083   .     S
C943   C1072   1.367   .     S
C944   C959    1.396   .     A
C944   H982    1.083   .     S
C945   H1014   1.084   .     S
C945   C956    1.391   .     A
C945   C949    1.386   .     A
C946   H1015   1.084   .     S
C946   C957    1.391   .     A
C946   C950    1.387   .     A
C947   C951    1.387   .     A
C947   C957    1.391   .     A
C947   H1016   1.084   .     S
C948   C953    1.387   .     A
C948   C956    1.391   .     A
C948   H1017   1.084   .     S
C949   O1032   1.384   .     S
C949   C954    1.408   .     A
C950   C955    1.408   .     A
C950   O1022   1.384   .     S
C951   C955    1.409   .     A
C951   O1023   1.384   .     S
C952   O1025   1.280   .     A
C952   O1026   1.280   .     A
C952   C958    1.417   .     S
C953   O1024   1.384   .     S
C953   C954    1.409   .     A
C954   C963    1.438   .     S
C955   C973    1.438   .     S
C957   C110    1.428   1_556 S
C959   C978    1.396   .     A
C960   O1032   1.412   .     S
C960   H984    1.115   .     S
C960   H983    1.115   .     S
C960   C961    1.528   .     S
C961   C962    1.527   .     S
C961   H985    1.111   .     S
C961   H986    1.112   .     S
C963   O1028   1.284   .     A
C963   O1031   1.285   .     A
C964   H992    1.115   .     S
C964   O1022   1.413   .     S
C964   H991    1.115   .     S
C964   C965    1.528   .     S
C965   H993    1.110   .     S
C965   H994    1.112   .     S
C965   C966    1.527   .     S
C967   H998    1.115   .     S
C967   O1023   1.412   .     S
C967   H999    1.115   .     S
C967   C968    1.528   .     S
C968   C969    1.527   .     S
C968   H1000   1.111   .     S
C968   H1002   1.112   .     S
C969   H1097   1.111   .     S
C969   H1098   1.111   .     S
C969   H1099   1.109   .     S
C970   C971    1.528   .     S
C970   H1007   1.115   .     S
C970   H1006   1.115   .     S
C970   O1024   1.413   .     S
C971   H1008   1.110   .     S
C971   C972    1.527   .     S
C971   H1009   1.112   .     S
C972   H1104   1.111   .     S
C972   H1105   1.110   .     S
C972   H1107   1.109   .     S
C973   O1029   1.285   .     A
C973   O1030   1.285   .     A
C974   N1020   1.366   .     A
C974   H979    1.081   .     S
C974   C1541   1.415   1_545 S
C975   H990    1.082   .     S
C975   N1019   1.366   .     A
C975   C1258   1.415   .     S
C976   N1020   1.366   .     A
C976   H1001   1.081   .     S
C976   C1539   1.415   1_545 S
C977   N1019   1.366   .     A
C977   H1012   1.082   .     S
C977   C1256   1.415   .     S
C978   H1018   1.083   .     S
H987   C1056   1.111   .     S
H988   C1056   1.110   .     S
H989   C1056   1.109   .     S
H995   C1060   1.111   .     S
H996   C1060   1.110   .     S
H997   C1060   1.109   .     S
N1019  Zn1033  2.005   .     S
N1020  Zn1034  2.005   .     S
O1021  Zn1033  1.997   .     S
O1025  Zn1034  1.997   .     S
O1026  Zn1033  1.997   .     S
O1027  Zn1034  1.997   .     S
O1028  Zn1033  1.997   .     S
O1029  Zn1034  1.997   .     S
O1030  Zn1033  1.996   .     S
O1031  Zn1034  1.996   .     S
C1035  O1121   1.280   .     A
C1035  O1115   1.280   .     A
C1035  C1053   1.417   .     S
C1036  C1052   1.396   .     A
C1036  H1074   1.083   .     S
C1036  C850    1.367   1_655 S
C1037  C1052   1.396   .     A
C1037  H1075   1.083   .     S
C1037  C884    1.367   1_655 S
C1038  C1053   1.396   .     A
C1038  H1076   1.083   .     S
C1039  H1108   1.084   .     S
C1039  C1050   1.391   .     A
C1039  C1043   1.386   .     A
C1040  H1109   1.084   .     S
C1040  C1051   1.391   .     A
C1040  C1044   1.387   .     A
C1041  C1045   1.387   .     A
C1041  C1051   1.391   .     A
C1041  H1110   1.084   .     S
C1042  C1047   1.387   .     A
C1042  C1050   1.391   .     A
C1042  H1111   1.084   .     S
C1043  O1126   1.384   .     S
C1043  C1048   1.408   .     A
C1044  C1049   1.408   .     A
C1044  O1116   1.384   .     S
C1045  C1049   1.409   .     A
C1045  O1117   1.384   .     S
C1046  O1119   1.280   .     A
C1046  O1120   1.280   .     A
C1046  C1052   1.417   .     S
C1047  O1118   1.384   .     S
C1047  C1048   1.409   .     A
C1048  C1057   1.438   .     S
C1049  C1067   1.438   .     S
C1051  C204    1.428   1_556 S
C1053  C1072   1.396   .     A
C1054  O1126   1.412   .     S
C1054  H1078   1.115   .     S
C1054  H1077   1.115   .     S
C1054  C1055   1.528   .     S
C1055  C1056   1.527   .     S
C1055  H1079   1.111   .     S
C1055  H1080   1.112   .     S
C1057  O1122   1.284   .     A
C1057  O1125   1.285   .     A
C1058  H1086   1.115   .     S
C1058  O1116   1.413   .     S
C1058  H1085   1.115   .     S
C1058  C1059   1.528   .     S
C1059  H1087   1.110   .     S
C1059  H1088   1.112   .     S
C1059  C1060   1.527   .     S
C1061  H1092   1.115   .     S
C1061  O1117   1.412   .     S
C1061  H1093   1.115   .     S
C1061  C1062   1.528   .     S
C1062  C1063   1.527   .     S
C1062  H1094   1.111   .     S
C1062  H1096   1.112   .     S
C1063  H909    1.111   1_655 S
C1063  H910    1.111   1_655 S
C1063  H911    1.109   1_655 S
C1064  C1065   1.528   .     S
C1064  H1101   1.115   .     S
C1064  H1100   1.115   .     S
C1064  O1118   1.413   .     S
C1065  H1102   1.110   .     S
C1065  C1066   1.527   .     S
C1065  H1103   1.112   .     S
C1066  H916    1.111   1_655 S
C1066  H917    1.110   1_655 S
C1066  H919    1.109   1_655 S
C1067  O1123   1.285   .     A
C1067  O1124   1.285   .     A
C1068  N1114   1.366   .     A
C1068  H1073   1.081   .     S
C1068  C1635   1.415   1_545 S
C1069  H1084   1.082   .     S
C1069  N1113   1.366   .     A
C1069  C1352   1.415   .     S
C1070  N1114   1.366   .     A
C1070  H1095   1.081   .     S
C1070  C1633   1.415   1_545 S
C1071  N1113   1.366   .     A
C1071  H1106   1.082   .     S
C1071  C1350   1.415   .     S
C1072  H1112   1.083   .     S
H1081  C868    1.111   1_655 S
H1082  C868    1.110   1_655 S
H1083  C868    1.109   1_655 S
H1089  C872    1.111   1_655 S
H1090  C872    1.110   1_655 S
H1091  C872    1.109   1_655 S
N1113  Zn1127  2.005   .     S
N1114  Zn1128  2.005   .     S
O1115  Zn1127  1.997   .     S
O1119  Zn1128  1.997   .     S
O1120  Zn1127  1.997   .     S
O1121  Zn1128  1.997   .     S
O1122  Zn1127  1.997   .     S
O1123  Zn1128  1.997   .     S
O1124  Zn1127  1.996   .     S
O1125  Zn1128  1.996   .     S
C1129  O1215   1.280   .     A
C1129  O1209   1.280   .     A
C1129  C1147   1.417   .     S
C1130  C1146   1.396   .     A
C1130  H1168   1.083   .     S
C1130  C1226   1.367   .     S
C1131  C1146   1.396   .     A
C1131  H1169   1.083   .     S
C1131  C1260   1.367   .     S
C1132  C1147   1.396   .     A
C1132  H1170   1.083   .     S
C1132  C1318   1.367   1_455 S
C1133  H1202   1.084   .     S
C1133  C1144   1.391   .     A
C1133  C1137   1.386   .     A
C1134  H1203   1.084   .     S
C1134  C1145   1.391   .     A
C1134  C1138   1.387   .     A
C1135  C1139   1.387   .     A
C1135  C1145   1.391   .     A
C1135  H1204   1.084   .     S
C1136  C1141   1.387   .     A
C1136  C1144   1.391   .     A
C1136  H1205   1.084   .     S
C1137  O1220   1.384   .     S
C1137  C1142   1.408   .     A
C1138  C1143   1.408   .     A
C1138  O1210   1.384   .     S
C1139  C1143   1.409   .     A
C1139  O1211   1.384   .     S
C1140  O1213   1.280   .     A
C1140  O1214   1.280   .     A
C1140  C1146   1.417   .     S
C1141  O1212   1.384   .     S
C1141  C1142   1.409   .     A
C1142  C1151   1.438   .     S
C1143  C1161   1.438   .     S
C1145  C298    1.428   1_556 S
C1147  C1166   1.396   .     A
C1148  O1220   1.412   .     S
C1148  H1172   1.115   .     S
C1148  H1171   1.115   .     S
C1148  C1149   1.528   .     S
C1149  C1150   1.527   .     S
C1149  H1173   1.111   .     S
C1149  H1174   1.112   .     S
C1150  H1363   1.111   1_455 S
C1150  H1364   1.110   1_455 S
C1150  H1365   1.109   1_455 S
C1151  O1216   1.284   .     A
C1151  O1219   1.285   .     A
C1152  H1180   1.115   .     S
C1152  O1210   1.413   .     S
C1152  H1179   1.115   .     S
C1152  C1153   1.528   .     S
C1153  H1181   1.110   .     S
C1153  H1182   1.112   .     S
C1153  C1154   1.527   .     S
C1154  H1371   1.111   1_455 S
C1154  H1372   1.110   1_455 S
C1154  H1373   1.109   1_455 S
C1155  H1186   1.115   .     S
C1155  O1211   1.412   .     S
C1155  H1187   1.115   .     S
C1155  C1156   1.528   .     S
C1156  C1157   1.527   .     S
C1156  H1188   1.111   .     S
C1156  H1190   1.112   .     S
C1157  H1285   1.111   .     S
C1157  H1286   1.111   .     S
C1157  H1287   1.109   .     S
C1158  C1159   1.528   .     S
C1158  H1195   1.115   .     S
C1158  H1194   1.115   .     S
C1158  O1212   1.413   .     S
C1159  H1196   1.110   .     S
C1159  C1160   1.527   .     S
C1159  H1197   1.112   .     S
C1160  H1292   1.111   .     S
C1160  H1293   1.110   .     S
C1160  H1295   1.109   .     S
C1161  O1217   1.285   .     A
C1161  O1218   1.285   .     A
C1162  N1208   1.366   .     A
C1162  H1167   1.081   .     S
C1163  H1178   1.082   .     S
C1163  N1207   1.366   .     A
C1163  C1446   1.415   .     S
C1164  N1208   1.366   .     A
C1164  H1189   1.081   .     S
C1165  N1207   1.366   .     A
C1165  H1200   1.082   .     S
C1165  C1444   1.415   .     S
C1166  H1206   1.083   .     S
C1166  C1319   1.367   1_455 S
H1175  C1244   1.111   .     S
H1176  C1244   1.110   .     S
H1177  C1244   1.109   .     S
H1183  C1248   1.111   .     S
H1184  C1248   1.110   .     S
H1185  C1248   1.109   .     S
H1191  C1345   1.111   1_455 S
H1192  C1345   1.111   1_455 S
H1193  C1345   1.109   1_455 S
H1198  C1348   1.111   1_455 S
H1199  C1348   1.110   1_455 S
H1201  C1348   1.109   1_455 S
N1207  Zn1221  2.005   .     S
N1208  Zn1222  2.005   .     S
O1209  Zn1221  1.997   .     S
O1213  Zn1222  1.997   .     S
O1214  Zn1221  1.997   .     S
O1215  Zn1222  1.997   .     S
O1216  Zn1221  1.997   .     S
O1217  Zn1222  1.997   .     S
O1218  Zn1221  1.996   .     S
O1219  Zn1222  1.996   .     S
C1223  O1309   1.280   .     A
C1223  O1303   1.280   .     A
C1223  C1241   1.417   .     S
C1224  C1240   1.396   .     A
C1224  H1262   1.083   .     S
C1224  C1320   1.367   .     S
C1225  C1240   1.396   .     A
C1225  H1263   1.083   .     S
C1225  C1354   1.367   .     S
C1226  C1241   1.396   .     A
C1226  H1264   1.083   .     S
C1227  H1296   1.084   .     S
C1227  C1238   1.391   .     A
C1227  C1231   1.386   .     A
C1228  H1297   1.084   .     S
C1228  C1239   1.391   .     A
C1228  C1232   1.387   .     A
C1229  C1233   1.387   .     A
C1229  C1239   1.391   .     A
C1229  H1298   1.084   .     S
C1230  C1235   1.387   .     A
C1230  C1238   1.391   .     A
C1230  H1299   1.084   .     S
C1231  O1314   1.384   .     S
C1231  C1236   1.408   .     A
C1232  C1237   1.408   .     A
C1232  O1304   1.384   .     S
C1233  C1237   1.409   .     A
C1233  O1305   1.384   .     S
C1234  O1307   1.280   .     A
C1234  O1308   1.280   .     A
C1234  C1240   1.417   .     S
C1235  O1306   1.384   .     S
C1235  C1236   1.409   .     A
C1236  C1245   1.438   .     S
C1237  C1255   1.438   .     S
C1239  C392    1.428   1_556 S
C1241  C1260   1.396   .     A
C1242  O1314   1.412   .     S
C1242  H1266   1.115   .     S
C1242  H1265   1.115   .     S
C1242  C1243   1.528   .     S
C1243  C1244   1.527   .     S
C1243  H1267   1.111   .     S
C1243  H1268   1.112   .     S
C1245  O1310   1.284   .     A
C1245  O1313   1.285   .     A
C1246  H1274   1.115   .     S
C1246  O1304   1.413   .     S
C1246  H1273   1.115   .     S
C1246  C1247   1.528   .     S
C1247  H1275   1.110   .     S
C1247  H1276   1.112   .     S
C1247  C1248   1.527   .     S
C1249  H1280   1.115   .     S
C1249  O1305   1.412   .     S
C1249  H1281   1.115   .     S
C1249  C1250   1.528   .     S
C1250  C1251   1.527   .     S
C1250  H1282   1.111   .     S
C1250  H1284   1.112   .     S
C1251  H1379   1.111   .     S
C1251  H1380   1.111   .     S
C1251  H1381   1.109   .     S
C1252  C1253   1.528   .     S
C1252  H1289   1.115   .     S
C1252  H1288   1.115   .     S
C1252  O1306   1.413   .     S
C1253  H1290   1.110   .     S
C1253  C1254   1.527   .     S
C1253  H1291   1.112   .     S
C1254  H1386   1.111   .     S
C1254  H1387   1.110   .     S
C1254  H1389   1.109   .     S
C1255  O1311   1.285   .     A
C1255  O1312   1.285   .     A
C1256  N1302   1.366   .     A
C1256  H1261   1.081   .     S
C1257  H1272   1.082   .     S
C1257  N1301   1.366   .     A
C1257  C1540   1.415   .     S
C1258  N1302   1.366   .     A
C1258  H1283   1.081   .     S
C1259  N1301   1.366   .     A
C1259  H1294   1.082   .     S
C1259  C1538   1.415   .     S
C1260  H1300   1.083   .     S
H1269  C1338   1.111   .     S
H1270  C1338   1.110   .     S
H1271  C1338   1.109   .     S
H1277  C1342   1.111   .     S
H1278  C1342   1.110   .     S
H1279  C1342   1.109   .     S
N1301  Zn1315  2.005   .     S
N1302  Zn1316  2.005   .     S
O1303  Zn1315  1.997   .     S
O1307  Zn1316  1.997   .     S
O1308  Zn1315  1.997   .     S
O1309  Zn1316  1.997   .     S
O1310  Zn1315  1.997   .     S
O1311  Zn1316  1.997   .     S
O1312  Zn1315  1.996   .     S
O1313  Zn1316  1.996   .     S
C1317  O1403   1.280   .     A
C1317  O1397   1.280   .     A
C1317  C1335   1.417   .     S
C1318  C1334   1.396   .     A
C1318  H1356   1.083   .     S
C1318  C1132   1.367   1_655 S
C1319  C1334   1.396   .     A
C1319  H1357   1.083   .     S
C1319  C1166   1.367   1_655 S
C1320  C1335   1.396   .     A
C1320  H1358   1.083   .     S
C1321  H1390   1.084   .     S
C1321  C1332   1.391   .     A
C1321  C1325   1.386   .     A
C1322  H1391   1.084   .     S
C1322  C1333   1.391   .     A
C1322  C1326   1.387   .     A
C1323  C1327   1.387   .     A
C1323  C1333   1.391   .     A
C1323  H1392   1.084   .     S
C1324  C1329   1.387   .     A
C1324  C1332   1.391   .     A
C1324  H1393   1.084   .     S
C1325  O1408   1.384   .     S
C1325  C1330   1.408   .     A
C1326  C1331   1.408   .     A
C1326  O1398   1.384   .     S
C1327  C1331   1.409   .     A
C1327  O1399   1.384   .     S
C1328  O1401   1.280   .     A
C1328  O1402   1.280   .     A
C1328  C1334   1.417   .     S
C1329  O1400   1.384   .     S
C1329  C1330   1.409   .     A
C1330  C1339   1.438   .     S
C1331  C1349   1.438   .     S
C1333  C486    1.428   1_556 S
C1335  C1354   1.396   .     A
C1336  O1408   1.412   .     S
C1336  H1360   1.115   .     S
C1336  H1359   1.115   .     S
C1336  C1337   1.528   .     S
C1337  C1338   1.527   .     S
C1337  H1361   1.111   .     S
C1337  H1362   1.112   .     S
C1339  O1404   1.284   .     A
C1339  O1407   1.285   .     A
C1340  H1368   1.115   .     S
C1340  O1398   1.413   .     S
C1340  H1367   1.115   .     S
C1340  C1341   1.528   .     S
C1341  H1369   1.110   .     S
C1341  H1370   1.112   .     S
C1341  C1342   1.527   .     S
C1343  H1374   1.115   .     S
C1343  O1399   1.412   .     S
C1343  H1375   1.115   .     S
C1343  C1344   1.528   .     S
C1344  C1345   1.527   .     S
C1344  H1376   1.111   .     S
C1344  H1378   1.112   .     S
C1345  H1191   1.111   1_655 S
C1345  H1192   1.111   1_655 S
C1345  H1193   1.109   1_655 S
C1346  C1347   1.528   .     S
C1346  H1383   1.115   .     S
C1346  H1382   1.115   .     S
C1346  O1400   1.413   .     S
C1347  H1384   1.110   .     S
C1347  C1348   1.527   .     S
C1347  H1385   1.112   .     S
C1348  H1198   1.111   1_655 S
C1348  H1199   1.110   1_655 S
C1348  H1201   1.109   1_655 S
C1349  O1405   1.285   .     A
C1349  O1406   1.285   .     A
C1350  N1396   1.366   .     A
C1350  H1355   1.081   .     S
C1351  H1366   1.082   .     S
C1351  N1395   1.366   .     A
C1351  C1634   1.415   .     S
C1352  N1396   1.366   .     A
C1352  H1377   1.081   .     S
C1353  N1395   1.366   .     A
C1353  H1388   1.082   .     S
C1353  C1632   1.415   .     S
C1354  H1394   1.083   .     S
H1363  C1150   1.111   1_655 S
H1364  C1150   1.110   1_655 S
H1365  C1150   1.109   1_655 S
H1371  C1154   1.111   1_655 S
H1372  C1154   1.110   1_655 S
H1373  C1154   1.109   1_655 S
N1395  Zn1409  2.005   .     S
N1396  Zn1410  2.005   .     S
O1397  Zn1409  1.997   .     S
O1401  Zn1410  1.997   .     S
O1402  Zn1409  1.997   .     S
O1403  Zn1410  1.997   .     S
O1404  Zn1409  1.997   .     S
O1405  Zn1410  1.997   .     S
O1406  Zn1409  1.996   .     S
O1407  Zn1410  1.996   .     S
C1411  O1497   1.280   .     A
C1411  O1491   1.280   .     A
C1411  C1429   1.417   .     S
C1412  C1428   1.396   .     A
C1412  H1450   1.083   .     S
C1412  C1508   1.367   .     S
C1413  C1428   1.396   .     A
C1413  H1451   1.083   .     S
C1413  C1542   1.367   .     S
C1414  C1429   1.396   .     A
C1414  H1452   1.083   .     S
C1414  C1600   1.367   1_455 S
C1415  H1484   1.084   .     S
C1415  C1426   1.391   .     A
C1415  C1419   1.386   .     A
C1416  H1485   1.084   .     S
C1416  C1427   1.391   .     A
C1416  C1420   1.387   .     A
C1417  C1421   1.387   .     A
C1417  C1427   1.391   .     A
C1417  H1486   1.084   .     S
C1418  C1423   1.387   .     A
C1418  C1426   1.391   .     A
C1418  H1487   1.084   .     S
C1419  O1502   1.384   .     S
C1419  C1424   1.408   .     A
C1420  C1425   1.408   .     A
C1420  O1492   1.384   .     S
C1421  C1425   1.409   .     A
C1421  O1493   1.384   .     S
C1422  O1495   1.280   .     A
C1422  O1496   1.280   .     A
C1422  C1428   1.417   .     S
C1423  O1494   1.384   .     S
C1423  C1424   1.409   .     A
C1424  C1433   1.438   .     S
C1425  C1443   1.438   .     S
C1427  C580    1.428   1_556 S
C1429  C1448   1.396   .     A
C1430  O1502   1.412   .     S
C1430  H1454   1.115   .     S
C1430  H1453   1.115   .     S
C1430  C1431   1.528   .     S
C1431  C1432   1.527   .     S
C1431  H1455   1.111   .     S
C1431  H1456   1.112   .     S
C1432  H1645   1.111   1_455 S
C1432  H1646   1.110   1_455 S
C1432  H1647   1.109   1_455 S
C1433  O1498   1.284   .     A
C1433  O1501   1.285   .     A
C1434  H1462   1.115   .     S
C1434  O1492   1.413   .     S
C1434  H1461   1.115   .     S
C1434  C1435   1.528   .     S
C1435  H1463   1.110   .     S
C1435  H1464   1.112   .     S
C1435  C1436   1.527   .     S
C1436  H1653   1.111   1_455 S
C1436  H1654   1.110   1_455 S
C1436  H1655   1.109   1_455 S
C1437  H1468   1.115   .     S
C1437  O1493   1.412   .     S
C1437  H1469   1.115   .     S
C1437  C1438   1.528   .     S
C1438  C1439   1.527   .     S
C1438  H1470   1.111   .     S
C1438  H1472   1.112   .     S
C1439  H1567   1.111   .     S
C1439  H1568   1.111   .     S
C1439  H1569   1.109   .     S
C1440  C1441   1.528   .     S
C1440  H1477   1.115   .     S
C1440  H1476   1.115   .     S
C1440  O1494   1.413   .     S
C1441  H1478   1.110   .     S
C1441  C1442   1.527   .     S
C1441  H1479   1.112   .     S
C1442  H1574   1.111   .     S
C1442  H1575   1.110   .     S
C1442  H1577   1.109   .     S
C1443  O1499   1.285   .     A
C1443  O1500   1.285   .     A
C1444  N1490   1.366   .     A
C1444  H1449   1.081   .     S
C1445  H1460   1.082   .     S
C1445  N1489   1.366   .     A
C1445  C882    1.415   1_565 S
C1446  N1490   1.366   .     A
C1446  H1471   1.081   .     S
C1447  N1489   1.366   .     A
C1447  H1482   1.082   .     S
C1447  C880    1.415   1_565 S
C1448  H1488   1.083   .     S
C1448  C1601   1.367   1_455 S
H1457  C1526   1.111   .     S
H1458  C1526   1.110   .     S
H1459  C1526   1.109   .     S
H1465  C1530   1.111   .     S
H1466  C1530   1.110   .     S
H1467  C1530   1.109   .     S
H1473  C1627   1.111   1_455 S
H1474  C1627   1.111   1_455 S
H1475  C1627   1.109   1_455 S
H1480  C1630   1.111   1_455 S
H1481  C1630   1.110   1_455 S
H1483  C1630   1.109   1_455 S
N1489  Zn1503  2.005   .     S
N1490  Zn1504  2.005   .     S
O1491  Zn1503  1.997   .     S
O1495  Zn1504  1.997   .     S
O1496  Zn1503  1.997   .     S
O1497  Zn1504  1.997   .     S
O1498  Zn1503  1.997   .     S
O1499  Zn1504  1.997   .     S
O1500  Zn1503  1.996   .     S
O1501  Zn1504  1.996   .     S
C1505  O1591   1.280   .     A
C1505  O1585   1.280   .     A
C1505  C1523   1.417   .     S
C1506  C1522   1.396   .     A
C1506  H1544   1.083   .     S
C1506  C1602   1.367   .     S
C1507  C1522   1.396   .     A
C1507  H1545   1.083   .     S
C1507  C1636   1.367   .     S
C1508  C1523   1.396   .     A
C1508  H1546   1.083   .     S
C1509  H1578   1.084   .     S
C1509  C1520   1.391   .     A
C1509  C1513   1.386   .     A
C1510  H1579   1.084   .     S
C1510  C1521   1.391   .     A
C1510  C1514   1.387   .     A
C1511  C1515   1.387   .     A
C1511  C1521   1.391   .     A
C1511  H1580   1.084   .     S
C1512  C1517   1.387   .     A
C1512  C1520   1.391   .     A
C1512  H1581   1.084   .     S
C1513  O1596   1.384   .     S
C1513  C1518   1.408   .     A
C1514  C1519   1.408   .     A
C1514  O1586   1.384   .     S
C1515  C1519   1.409   .     A
C1515  O1587   1.384   .     S
C1516  O1589   1.280   .     A
C1516  O1590   1.280   .     A
C1516  C1522   1.417   .     S
C1517  O1588   1.384   .     S
C1517  C1518   1.409   .     A
C1518  C1527   1.438   .     S
C1519  C1537   1.438   .     S
C1521  C674    1.428   1_556 S
C1523  C1542   1.396   .     A
C1524  O1596   1.412   .     S
C1524  H1548   1.115   .     S
C1524  H1547   1.115   .     S
C1524  C1525   1.528   .     S
C1525  C1526   1.527   .     S
C1525  H1549   1.111   .     S
C1525  H1550   1.112   .     S
C1527  O1592   1.284   .     A
C1527  O1595   1.285   .     A
C1528  H1556   1.115   .     S
C1528  O1586   1.413   .     S
C1528  H1555   1.115   .     S
C1528  C1529   1.528   .     S
C1529  H1557   1.110   .     S
C1529  H1558   1.112   .     S
C1529  C1530   1.527   .     S
C1531  H1562   1.115   .     S
C1531  O1587   1.412   .     S
C1531  H1563   1.115   .     S
C1531  C1532   1.528   .     S
C1532  C1533   1.527   .     S
C1532  H1564   1.111   .     S
C1532  H1566   1.112   .     S
C1533  H1661   1.111   .     S
C1533  H1662   1.111   .     S
C1533  H1663   1.109   .     S
C1534  C1535   1.528   .     S
C1534  H1571   1.115   .     S
C1534  H1570   1.115   .     S
C1534  O1588   1.413   .     S
C1535  H1572   1.110   .     S
C1535  C1536   1.527   .     S
C1535  H1573   1.112   .     S
C1536  H1668   1.111   .     S
C1536  H1669   1.110   .     S
C1536  H1671   1.109   .     S
C1537  O1593   1.285   .     A
C1537  O1594   1.285   .     A
C1538  N1584   1.366   .     A
C1538  H1543   1.081   .     S
C1539  H1554   1.082   .     S
C1539  N1583   1.366   .     A
C1539  C976    1.415   1_565 S
C1540  N1584   1.366   .     A
C1540  H1565   1.081   .     S
C1541  N1583   1.366   .     A
C1541  H1576   1.082   .     S
C1541  C974    1.415   1_565 S
C1542  H1582   1.083   .     S
H1551  C1620   1.111   .     S
H1552  C1620   1.110   .     S
H1553  C1620   1.109   .     S
H1559  C1624   1.111   .     S
H1560  C1624   1.110   .     S
H1561  C1624   1.109   .     S
N1583  Zn1597  2.005   .     S
N1584  Zn1598  2.005   .     S
O1585  Zn1597  1.997   .     S
O1589  Zn1598  1.997   .     S
O1590  Zn1597  1.997   .     S
O1591  Zn1598  1.997   .     S
O1592  Zn1597  1.997   .     S
O1593  Zn1598  1.997   .     S
O1594  Zn1597  1.996   .     S
O1595  Zn1598  1.996   .     S
C1599  O1685   1.280   .     A
C1599  O1679   1.280   .     A
C1599  C1617   1.417   .     S
C1600  C1616   1.396   .     A
C1600  H1638   1.083   .     S
C1600  C1414   1.367   1_655 S
C1601  C1616   1.396   .     A
C1601  H1639   1.083   .     S
C1601  C1448   1.367   1_655 S
C1602  C1617   1.396   .     A
C1602  H1640   1.083   .     S
C1603  H1672   1.084   .     S
C1603  C1614   1.391   .     A
C1603  C1607   1.386   .     A
C1604  H1673   1.084   .     S
C1604  C1615   1.391   .     A
C1604  C1608   1.387   .     A
C1605  C1609   1.387   .     A
C1605  C1615   1.391   .     A
C1605  H1674   1.084   .     S
C1606  C1611   1.387   .     A
C1606  C1614   1.391   .     A
C1606  H1675   1.084   .     S
C1607  O1690   1.384   .     S
C1607  C1612   1.408   .     A
C1608  C1613   1.408   .     A
C1608  O1680   1.384   .     S
C1609  C1613   1.409   .     A
C1609  O1681   1.384   .     S
C1610  O1683   1.280   .     A
C1610  O1684   1.280   .     A
C1610  C1616   1.417   .     S
C1611  O1682   1.384   .     S
C1611  C1612   1.409   .     A
C1612  C1621   1.438   .     S
C1613  C1631   1.438   .     S
C1615  C768    1.428   1_556 S
C1617  C1636   1.396   .     A
C1618  O1690   1.412   .     S
C1618  H1642   1.115   .     S
C1618  H1641   1.115   .     S
C1618  C1619   1.528   .     S
C1619  C1620   1.527   .     S
C1619  H1643   1.111   .     S
C1619  H1644   1.112   .     S
C1621  O1686   1.284   .     A
C1621  O1689   1.285   .     A
C1622  H1650   1.115   .     S
C1622  O1680   1.413   .     S
C1622  H1649   1.115   .     S
C1622  C1623   1.528   .     S
C1623  H1651   1.110   .     S
C1623  H1652   1.112   .     S
C1623  C1624   1.527   .     S
C1625  H1656   1.115   .     S
C1625  O1681   1.412   .     S
C1625  H1657   1.115   .     S
C1625  C1626   1.528   .     S
C1626  C1627   1.527   .     S
C1626  H1658   1.111   .     S
C1626  H1660   1.112   .     S
C1627  H1473   1.111   1_655 S
C1627  H1474   1.111   1_655 S
C1627  H1475   1.109   1_655 S
C1628  C1629   1.528   .     S
C1628  H1665   1.115   .     S
C1628  H1664   1.115   .     S
C1628  O1682   1.413   .     S
C1629  H1666   1.110   .     S
C1629  C1630   1.527   .     S
C1629  H1667   1.112   .     S
C1630  H1480   1.111   1_655 S
C1630  H1481   1.110   1_655 S
C1630  H1483   1.109   1_655 S
C1631  O1687   1.285   .     A
C1631  O1688   1.285   .     A
C1632  N1678   1.366   .     A
C1632  H1637   1.081   .     S
C1633  H1648   1.082   .     S
C1633  N1677   1.366   .     A
C1633  C1070   1.415   1_565 S
C1634  N1678   1.366   .     A
C1634  H1659   1.081   .     S
C1635  N1677   1.366   .     A
C1635  H1670   1.082   .     S
C1635  C1068   1.415   1_565 S
C1636  H1676   1.083   .     S
H1645  C1432   1.111   1_655 S
H1646  C1432   1.110   1_655 S
H1647  C1432   1.109   1_655 S
H1653  C1436   1.111   1_655 S
H1654  C1436   1.110   1_655 S
H1655  C1436   1.109   1_655 S
N1677  Zn1691  2.005   .     S
N1678  Zn1692  2.005   .     S
O1679  Zn1691  1.997   .     S
O1683  Zn1692  1.997   .     S
O1684  Zn1691  1.997   .     S
O1685  Zn1692  1.997   .     S
O1686  Zn1691  1.997   .     S
O1687  Zn1692  1.997   .     S
O1688  Zn1691  1.996   .     S
O1689  Zn1692  1.996   .     S
