data_str_m3_o1_o17_pcu_sym.152
_audit_creation_date              2020-01-03
_audit_creation_method            'Materials Studio'
_symmetry_space_group_name_H-M    'P1'
_symmetry_Int_Tables_number       1
_symmetry_cell_setting            triclinic
loop_
_symmetry_equiv_pos_as_xyz
  x,y,z
_cell_length_a                    32.1364
_cell_length_b                    29.6137
_cell_length_c                    29.7894
_cell_angle_alpha                 90.0015
_cell_angle_beta                  90.4414
_cell_angle_gamma                 91.0900
loop_
_atom_site_label
_atom_site_type_symbol
_atom_site_fract_x
_atom_site_fract_y
_atom_site_fract_z
_atom_site_U_iso_or_equiv
_atom_site_adp_type
_atom_site_occupancy
C1     C     0.08711   0.16611   0.25555   0.00000  Uiso   1.00
C2     C     0.24693   0.16698   0.25036   0.00000  Uiso   1.00
C3     C     0.08817   0.17149   0.02117   0.00000  Uiso   1.00
C4     C     0.24074   0.19040   0.47841   0.00000  Uiso   1.00
C5     C     0.02071   0.12416   0.25585   0.00000  Uiso   1.00
C6     C     0.31293   0.20425   0.27478   0.00000  Uiso   1.00
C7     C     0.31266   0.12684   0.24491   0.00000  Uiso   1.00
C8     C     0.02262   0.20341   0.27814   0.00000  Uiso   1.00
C9     C     0.29148   0.16691   0.25504   0.00000  Uiso   1.00
C10    C     0.04321   0.16436   0.26446   0.00000  Uiso   1.00
C11    C     0.18637   0.02477   0.28353   0.00000  Uiso   1.00
C12    C     0.15054   0.30910   0.21431   0.00000  Uiso   1.00
C13    C     0.14702   0.02400   0.21629   0.00000  Uiso   1.00
C14    C     0.18308   0.30981   0.28554   0.00000  Uiso   1.00
C15    C     0.16655   0.16677   0.16361   0.00000  Uiso   1.00
C16    C     0.16622   0.16669   0.33634   0.00000  Uiso   1.00
C17    C     0.20434   0.17204   0.40677   0.00000  Uiso   1.00
C18    C     0.12710   0.16442   0.09348   0.00000  Uiso   1.00
C19    C     0.16635   0.16726   0.38400   0.00000  Uiso   1.00
C20    C     0.16549   0.16770   0.11586   0.00000  Uiso   1.00
C21    C     0.12814   0.16687   0.40573   0.00000  Uiso   1.00
C22    C     0.20276   0.17656   0.09378   0.00000  Uiso   1.00
C23    C     0.12759   0.17105   0.45222   0.00000  Uiso   1.00
C24    C     0.20233   0.18082   0.04738   0.00000  Uiso   1.00
C25    C     0.16543   0.17567   0.47633   0.00000  Uiso   1.00
C26    C     0.16443   0.17584   0.02344   0.00000  Uiso   1.00
C27    C     0.20422   0.17937   0.45342   0.00000  Uiso   1.00
C28    C     0.12580   0.17045   0.04649   0.00000  Uiso   1.00
C29    C     0.08967   0.17147   0.47472   0.00000  Uiso   1.00
C30    C     0.23933   0.19056   0.02480   0.00000  Uiso   1.00
H31    H     0.06056   0.17153   0.45611   0.00000  Uiso   1.00
H32    H     0.26778   0.19827   0.04326   0.00000  Uiso   1.00
N33    N     0.16667   0.28573   0.25000   0.00000  Uiso   1.00
N34    N     0.16667   0.04760   0.25000   0.00000  Uiso   1.00
O35    O     0.10559   0.20487   0.25000   0.00000  Uiso   1.00
O36    O     0.22774   0.12846   0.25001   0.00000  Uiso   1.00
O37    O     0.22774   0.20487   0.25001   0.00000  Uiso   1.00
O38    O     0.10559   0.12846   0.25000   0.00000  Uiso   1.00
O39    O     0.16666   0.20489   0.18393   0.00000  Uiso   1.00
O40    O     0.16667   0.12844   0.31608   0.00000  Uiso   1.00
O41    O     0.16667   0.20489   0.31608   0.00000  Uiso   1.00
O42    O     0.16666   0.12844   0.18393   0.00000  Uiso   1.00
Zn43   Zn    0.16667   0.21771   0.25000   0.00000  Uiso   1.00
Zn44   Zn    0.16667   0.11563   0.25000   0.00000  Uiso   1.00
Cl45   Cl    0.25041   0.16317   0.37565   0.00000  Uiso   1.00
Cl46   Cl    0.08287   0.14974   0.12617   0.00000  Uiso   1.00
O47    O     0.09138   0.16512   0.38097   0.00000  Uiso   1.00
C48    C     0.07812   0.11961   0.37665   0.00000  Uiso   1.00
H49    H     0.04764   0.11865   0.35891   0.00000  Uiso   1.00
H50    H     0.07359   0.10314   0.40987   0.00000  Uiso   1.00
H51    H     0.10024   0.09993   0.35632   0.00000  Uiso   1.00
O52    O     0.23930   0.18327   0.11818   0.00000  Uiso   1.00
C53    C     0.25956   0.14161   0.12213   0.00000  Uiso   1.00
H54    H     0.28901   0.14724   0.14114   0.00000  Uiso   1.00
H55    H     0.26779   0.12763   0.08876   0.00000  Uiso   1.00
H56    H     0.24026   0.11654   0.14089   0.00000  Uiso   1.00
Cl57   Cl    0.03768   0.17663   0.04335   0.00000  Uiso   1.00
Cl58   Cl    0.28849   0.20927   0.45544   0.00000  Uiso   1.00
Cl59   Cl    0.04174   0.06964   0.26309   0.00000  Uiso   1.00
Cl60   Cl    0.28755   0.25211   0.29658   0.00000  Uiso   1.00
Cl61   Cl    0.29002   0.07984   0.21588   0.00000  Uiso   1.00
Cl62   Cl    0.04976   0.24992   0.30319   0.00000  Uiso   1.00
O63    O     0.20697   0.04969   0.31650   0.00000  Uiso   1.00
C64    C     0.24913   0.03725   0.31985   0.00000  Uiso   1.00
H65    H     0.26811   0.06783   0.32822   0.00000  Uiso   1.00
H66    H     0.26187   0.02303   0.28827   0.00000  Uiso   1.00
H67    H     0.25315   0.01278   0.34767   0.00000  Uiso   1.00
O68    O     0.13674   0.28552   0.17693   0.00000  Uiso   1.00
C69    C     0.16542   0.29286   0.14180   0.00000  Uiso   1.00
H70    H     0.15589   0.27137   0.11284   0.00000  Uiso   1.00
H71    H     0.19747   0.28310   0.15188   0.00000  Uiso   1.00
H72    H     0.16563   0.32846   0.13003   0.00000  Uiso   1.00
O73    O     0.12728   0.04848   0.18282   0.00000  Uiso   1.00
C74    C     0.08747   0.03025   0.17187   0.00000  Uiso   1.00
H75    H     0.06598   0.05853   0.16598   0.00000  Uiso   1.00
H76    H     0.07353   0.00858   0.19862   0.00000  Uiso   1.00
H77    H     0.08898   0.01090   0.14005   0.00000  Uiso   1.00
O78    O     0.19830   0.28685   0.32231   0.00000  Uiso   1.00
C79    C     0.17158   0.29362   0.35906   0.00000  Uiso   1.00
H80    H     0.18154   0.27148   0.38703   0.00000  Uiso   1.00
H81    H     0.13871   0.28425   0.35059   0.00000  Uiso   1.00
H82    H     0.17353   0.32894   0.37155   0.00000  Uiso   1.00
C83    C     0.42044   0.16611   0.25555   0.00000  Uiso   1.00
C84    C     0.58027   0.16698   0.25036   0.00000  Uiso   1.00
C85    C     0.42150   0.17149   0.02117   0.00000  Uiso   1.00
C86    C     0.57407   0.19040   0.47841   0.00000  Uiso   1.00
C87    C     0.35404   0.12416   0.25585   0.00000  Uiso   1.00
C88    C     0.64626   0.20425   0.27478   0.00000  Uiso   1.00
C89    C     0.64599   0.12684   0.24491   0.00000  Uiso   1.00
C90    C     0.35596   0.20341   0.27814   0.00000  Uiso   1.00
C91    C     0.62481   0.16691   0.25504   0.00000  Uiso   1.00
C92    C     0.37654   0.16436   0.26446   0.00000  Uiso   1.00
C93    C     0.51970   0.02477   0.28353   0.00000  Uiso   1.00
C94    C     0.48387   0.30910   0.21431   0.00000  Uiso   1.00
C95    C     0.48036   0.02400   0.21629   0.00000  Uiso   1.00
C96    C     0.51641   0.30981   0.28554   0.00000  Uiso   1.00
C97    C     0.49988   0.16677   0.16361   0.00000  Uiso   1.00
C98    C     0.49955   0.16669   0.33634   0.00000  Uiso   1.00
C99    C     0.53767   0.17204   0.40677   0.00000  Uiso   1.00
C100   C     0.46043   0.16442   0.09348   0.00000  Uiso   1.00
C101   C     0.49969   0.16726   0.38400   0.00000  Uiso   1.00
C102   C     0.49883   0.16770   0.11586   0.00000  Uiso   1.00
C103   C     0.46147   0.16687   0.40573   0.00000  Uiso   1.00
C104   C     0.53610   0.17656   0.09378   0.00000  Uiso   1.00
C105   C     0.46093   0.17105   0.45222   0.00000  Uiso   1.00
C106   C     0.53567   0.18082   0.04738   0.00000  Uiso   1.00
C107   C     0.49876   0.17567   0.47633   0.00000  Uiso   1.00
C108   C     0.49776   0.17584   0.02344   0.00000  Uiso   1.00
C109   C     0.53756   0.17937   0.45342   0.00000  Uiso   1.00
C110   C     0.45913   0.17045   0.04649   0.00000  Uiso   1.00
C111   C     0.42300   0.17147   0.47472   0.00000  Uiso   1.00
C112   C     0.57267   0.19056   0.02480   0.00000  Uiso   1.00
H113   H     0.39389   0.17153   0.45611   0.00000  Uiso   1.00
H114   H     0.60111   0.19827   0.04326   0.00000  Uiso   1.00
N115   N     0.50000   0.28573   0.25000   0.00000  Uiso   1.00
N116   N     0.50000   0.04760   0.25000   0.00000  Uiso   1.00
O117   O     0.43892   0.20487   0.25000   0.00000  Uiso   1.00
O118   O     0.56108   0.12846   0.25001   0.00000  Uiso   1.00
O119   O     0.56108   0.20487   0.25001   0.00000  Uiso   1.00
O120   O     0.43892   0.12846   0.25000   0.00000  Uiso   1.00
O121   O     0.49999   0.20489   0.18393   0.00000  Uiso   1.00
O122   O     0.50001   0.12844   0.31608   0.00000  Uiso   1.00
O123   O     0.50001   0.20489   0.31608   0.00000  Uiso   1.00
O124   O     0.49999   0.12844   0.18393   0.00000  Uiso   1.00
Zn125  Zn    0.50000   0.21771   0.25000   0.00000  Uiso   1.00
Zn126  Zn    0.50000   0.11563   0.25000   0.00000  Uiso   1.00
Cl127  Cl    0.58374   0.16317   0.37565   0.00000  Uiso   1.00
Cl128  Cl    0.41620   0.14974   0.12617   0.00000  Uiso   1.00
O129   O     0.42472   0.16512   0.38097   0.00000  Uiso   1.00
C130   C     0.41145   0.11961   0.37665   0.00000  Uiso   1.00
H131   H     0.38097   0.11865   0.35891   0.00000  Uiso   1.00
H132   H     0.40693   0.10314   0.40987   0.00000  Uiso   1.00
H133   H     0.43358   0.09993   0.35632   0.00000  Uiso   1.00
O134   O     0.57263   0.18327   0.11818   0.00000  Uiso   1.00
C135   C     0.59289   0.14161   0.12213   0.00000  Uiso   1.00
H136   H     0.62234   0.14724   0.14114   0.00000  Uiso   1.00
H137   H     0.60113   0.12763   0.08876   0.00000  Uiso   1.00
H138   H     0.57359   0.11654   0.14089   0.00000  Uiso   1.00
Cl139  Cl    0.37101   0.17663   0.04335   0.00000  Uiso   1.00
Cl140  Cl    0.62183   0.20927   0.45544   0.00000  Uiso   1.00
Cl141  Cl    0.37507   0.06964   0.26309   0.00000  Uiso   1.00
Cl142  Cl    0.62088   0.25211   0.29658   0.00000  Uiso   1.00
Cl143  Cl    0.62336   0.07984   0.21588   0.00000  Uiso   1.00
Cl144  Cl    0.38310   0.24992   0.30319   0.00000  Uiso   1.00
O145   O     0.54030   0.04969   0.31650   0.00000  Uiso   1.00
C146   C     0.58246   0.03725   0.31985   0.00000  Uiso   1.00
H147   H     0.60144   0.06783   0.32822   0.00000  Uiso   1.00
H148   H     0.59520   0.02303   0.28827   0.00000  Uiso   1.00
H149   H     0.58648   0.01278   0.34767   0.00000  Uiso   1.00
O150   O     0.47007   0.28552   0.17693   0.00000  Uiso   1.00
C151   C     0.49875   0.29286   0.14180   0.00000  Uiso   1.00
H152   H     0.48922   0.27137   0.11284   0.00000  Uiso   1.00
H153   H     0.53081   0.28310   0.15188   0.00000  Uiso   1.00
H154   H     0.49896   0.32846   0.13003   0.00000  Uiso   1.00
O155   O     0.46061   0.04848   0.18282   0.00000  Uiso   1.00
C156   C     0.42080   0.03025   0.17187   0.00000  Uiso   1.00
H157   H     0.39931   0.05853   0.16598   0.00000  Uiso   1.00
H158   H     0.40686   0.00858   0.19862   0.00000  Uiso   1.00
H159   H     0.42231   0.01090   0.14005   0.00000  Uiso   1.00
O160   O     0.53163   0.28685   0.32231   0.00000  Uiso   1.00
C161   C     0.50491   0.29362   0.35906   0.00000  Uiso   1.00
H162   H     0.51488   0.27148   0.38703   0.00000  Uiso   1.00
H163   H     0.47204   0.28425   0.35059   0.00000  Uiso   1.00
H164   H     0.50686   0.32894   0.37155   0.00000  Uiso   1.00
C165   C     0.75377   0.16611   0.25555   0.00000  Uiso   1.00
C166   C     0.91360   0.16698   0.25036   0.00000  Uiso   1.00
C167   C     0.75484   0.17149   0.02117   0.00000  Uiso   1.00
C168   C     0.90740   0.19040   0.47841   0.00000  Uiso   1.00
C169   C     0.68738   0.12416   0.25585   0.00000  Uiso   1.00
C170   C     0.97960   0.20425   0.27478   0.00000  Uiso   1.00
C171   C     0.97932   0.12684   0.24491   0.00000  Uiso   1.00
C172   C     0.68929   0.20341   0.27814   0.00000  Uiso   1.00
C173   C     0.95814   0.16691   0.25504   0.00000  Uiso   1.00
C174   C     0.70988   0.16436   0.26446   0.00000  Uiso   1.00
C175   C     0.85303   0.02477   0.28353   0.00000  Uiso   1.00
C176   C     0.81720   0.30910   0.21431   0.00000  Uiso   1.00
C177   C     0.81369   0.02400   0.21629   0.00000  Uiso   1.00
C178   C     0.84974   0.30981   0.28554   0.00000  Uiso   1.00
C179   C     0.83322   0.16677   0.16361   0.00000  Uiso   1.00
C180   C     0.83289   0.16669   0.33634   0.00000  Uiso   1.00
C181   C     0.87100   0.17204   0.40677   0.00000  Uiso   1.00
C182   C     0.79377   0.16442   0.09348   0.00000  Uiso   1.00
C183   C     0.83302   0.16726   0.38400   0.00000  Uiso   1.00
C184   C     0.83216   0.16770   0.11586   0.00000  Uiso   1.00
C185   C     0.79481   0.16687   0.40573   0.00000  Uiso   1.00
C186   C     0.86943   0.17656   0.09378   0.00000  Uiso   1.00
C187   C     0.79426   0.17105   0.45222   0.00000  Uiso   1.00
C188   C     0.86900   0.18082   0.04738   0.00000  Uiso   1.00
C189   C     0.83210   0.17567   0.47633   0.00000  Uiso   1.00
C190   C     0.83110   0.17584   0.02344   0.00000  Uiso   1.00
C191   C     0.87089   0.17937   0.45342   0.00000  Uiso   1.00
C192   C     0.79247   0.17045   0.04649   0.00000  Uiso   1.00
C193   C     0.75634   0.17147   0.47472   0.00000  Uiso   1.00
C194   C     0.90600   0.19056   0.02480   0.00000  Uiso   1.00
H195   H     0.72722   0.17153   0.45611   0.00000  Uiso   1.00
H196   H     0.93445   0.19827   0.04326   0.00000  Uiso   1.00
N197   N     0.83333   0.28573   0.25000   0.00000  Uiso   1.00
N198   N     0.83333   0.04760   0.25000   0.00000  Uiso   1.00
O199   O     0.77226   0.20487   0.25000   0.00000  Uiso   1.00
O200   O     0.89441   0.12846   0.25001   0.00000  Uiso   1.00
O201   O     0.89441   0.20487   0.25001   0.00000  Uiso   1.00
O202   O     0.77226   0.12846   0.25000   0.00000  Uiso   1.00
O203   O     0.83333   0.20489   0.18393   0.00000  Uiso   1.00
O204   O     0.83334   0.12844   0.31608   0.00000  Uiso   1.00
O205   O     0.83334   0.20489   0.31608   0.00000  Uiso   1.00
O206   O     0.83333   0.12844   0.18393   0.00000  Uiso   1.00
Zn207  Zn    0.83333   0.21771   0.25000   0.00000  Uiso   1.00
Zn208  Zn    0.83333   0.11563   0.25000   0.00000  Uiso   1.00
Cl209  Cl    0.91708   0.16317   0.37565   0.00000  Uiso   1.00
Cl210  Cl    0.74954   0.14974   0.12617   0.00000  Uiso   1.00
O211   O     0.75805   0.16512   0.38097   0.00000  Uiso   1.00
C212   C     0.74478   0.11961   0.37665   0.00000  Uiso   1.00
H213   H     0.71431   0.11865   0.35891   0.00000  Uiso   1.00
H214   H     0.74026   0.10314   0.40987   0.00000  Uiso   1.00
H215   H     0.76691   0.09993   0.35632   0.00000  Uiso   1.00
O216   O     0.90596   0.18327   0.11818   0.00000  Uiso   1.00
C217   C     0.92623   0.14161   0.12213   0.00000  Uiso   1.00
H218   H     0.95568   0.14724   0.14114   0.00000  Uiso   1.00
H219   H     0.93446   0.12763   0.08876   0.00000  Uiso   1.00
H220   H     0.90693   0.11654   0.14089   0.00000  Uiso   1.00
Cl221  Cl    0.70434   0.17663   0.04335   0.00000  Uiso   1.00
Cl222  Cl    0.95516   0.20927   0.45544   0.00000  Uiso   1.00
Cl223  Cl    0.70840   0.06964   0.26309   0.00000  Uiso   1.00
Cl224  Cl    0.95422   0.25211   0.29658   0.00000  Uiso   1.00
Cl225  Cl    0.95669   0.07984   0.21588   0.00000  Uiso   1.00
Cl226  Cl    0.71643   0.24992   0.30319   0.00000  Uiso   1.00
O227   O     0.87363   0.04969   0.31650   0.00000  Uiso   1.00
C228   C     0.91579   0.03725   0.31985   0.00000  Uiso   1.00
H229   H     0.93478   0.06783   0.32822   0.00000  Uiso   1.00
H230   H     0.92853   0.02303   0.28827   0.00000  Uiso   1.00
H231   H     0.91982   0.01278   0.34767   0.00000  Uiso   1.00
O232   O     0.80340   0.28552   0.17693   0.00000  Uiso   1.00
C233   C     0.83209   0.29286   0.14180   0.00000  Uiso   1.00
H234   H     0.82256   0.27137   0.11284   0.00000  Uiso   1.00
H235   H     0.86414   0.28310   0.15188   0.00000  Uiso   1.00
H236   H     0.83229   0.32846   0.13003   0.00000  Uiso   1.00
O237   O     0.79394   0.04848   0.18282   0.00000  Uiso   1.00
C238   C     0.75414   0.03025   0.17187   0.00000  Uiso   1.00
H239   H     0.73265   0.05853   0.16598   0.00000  Uiso   1.00
H240   H     0.74019   0.00858   0.19862   0.00000  Uiso   1.00
H241   H     0.75565   0.01090   0.14005   0.00000  Uiso   1.00
O242   O     0.86496   0.28685   0.32231   0.00000  Uiso   1.00
C243   C     0.83825   0.29362   0.35906   0.00000  Uiso   1.00
H244   H     0.84821   0.27148   0.38703   0.00000  Uiso   1.00
H245   H     0.80537   0.28425   0.35059   0.00000  Uiso   1.00
H246   H     0.84020   0.32894   0.37155   0.00000  Uiso   1.00
C247   C     0.08711   0.49944   0.25555   0.00000  Uiso   1.00
C248   C     0.24693   0.50031   0.25036   0.00000  Uiso   1.00
C249   C     0.08817   0.50482   0.02117   0.00000  Uiso   1.00
C250   C     0.24074   0.52374   0.47841   0.00000  Uiso   1.00
C251   C     0.02071   0.45750   0.25585   0.00000  Uiso   1.00
C252   C     0.31293   0.53758   0.27478   0.00000  Uiso   1.00
C253   C     0.31266   0.46017   0.24491   0.00000  Uiso   1.00
C254   C     0.02262   0.53674   0.27814   0.00000  Uiso   1.00
C255   C     0.29148   0.50025   0.25504   0.00000  Uiso   1.00
C256   C     0.04321   0.49769   0.26446   0.00000  Uiso   1.00
C257   C     0.18637   0.35810   0.28353   0.00000  Uiso   1.00
C258   C     0.15054   0.64243   0.21431   0.00000  Uiso   1.00
C259   C     0.14702   0.35733   0.21629   0.00000  Uiso   1.00
C260   C     0.18308   0.64314   0.28554   0.00000  Uiso   1.00
C261   C     0.16655   0.50010   0.16361   0.00000  Uiso   1.00
C262   C     0.16622   0.50002   0.33634   0.00000  Uiso   1.00
C263   C     0.20434   0.50537   0.40677   0.00000  Uiso   1.00
C264   C     0.12710   0.49775   0.09348   0.00000  Uiso   1.00
C265   C     0.16635   0.50059   0.38400   0.00000  Uiso   1.00
C266   C     0.16549   0.50103   0.11586   0.00000  Uiso   1.00
C267   C     0.12814   0.50021   0.40573   0.00000  Uiso   1.00
C268   C     0.20276   0.50989   0.09378   0.00000  Uiso   1.00
C269   C     0.12759   0.50439   0.45222   0.00000  Uiso   1.00
C270   C     0.20233   0.51415   0.04738   0.00000  Uiso   1.00
C271   C     0.16543   0.50900   0.47633   0.00000  Uiso   1.00
C272   C     0.16443   0.50918   0.02344   0.00000  Uiso   1.00
C273   C     0.20422   0.51270   0.45342   0.00000  Uiso   1.00
C274   C     0.12580   0.50379   0.04649   0.00000  Uiso   1.00
C275   C     0.08967   0.50480   0.47472   0.00000  Uiso   1.00
C276   C     0.23933   0.52389   0.02480   0.00000  Uiso   1.00
H277   H     0.06056   0.50486   0.45611   0.00000  Uiso   1.00
H278   H     0.26778   0.53160   0.04326   0.00000  Uiso   1.00
N279   N     0.16667   0.61907   0.25000   0.00000  Uiso   1.00
N280   N     0.16667   0.38093   0.25000   0.00000  Uiso   1.00
O281   O     0.10559   0.53821   0.25000   0.00000  Uiso   1.00
O282   O     0.22774   0.46179   0.25001   0.00000  Uiso   1.00
O283   O     0.22774   0.53821   0.25001   0.00000  Uiso   1.00
O284   O     0.10559   0.46179   0.25000   0.00000  Uiso   1.00
O285   O     0.16666   0.53823   0.18393   0.00000  Uiso   1.00
O286   O     0.16667   0.46177   0.31608   0.00000  Uiso   1.00
O287   O     0.16667   0.53823   0.31608   0.00000  Uiso   1.00
O288   O     0.16666   0.46177   0.18393   0.00000  Uiso   1.00
Zn289  Zn    0.16667   0.55104   0.25000   0.00000  Uiso   1.00
Zn290  Zn    0.16667   0.44896   0.25000   0.00000  Uiso   1.00
Cl291  Cl    0.25041   0.49650   0.37565   0.00000  Uiso   1.00
Cl292  Cl    0.08287   0.48308   0.12617   0.00000  Uiso   1.00
O293   O     0.09138   0.49846   0.38097   0.00000  Uiso   1.00
C294   C     0.07812   0.45294   0.37665   0.00000  Uiso   1.00
H295   H     0.04764   0.45198   0.35891   0.00000  Uiso   1.00
H296   H     0.07359   0.43647   0.40987   0.00000  Uiso   1.00
H297   H     0.10024   0.43326   0.35632   0.00000  Uiso   1.00
O298   O     0.23930   0.51660   0.11818   0.00000  Uiso   1.00
C299   C     0.25956   0.47494   0.12213   0.00000  Uiso   1.00
H300   H     0.28901   0.48057   0.14114   0.00000  Uiso   1.00
H301   H     0.26779   0.46096   0.08876   0.00000  Uiso   1.00
H302   H     0.24026   0.44987   0.14089   0.00000  Uiso   1.00
Cl303  Cl    0.03768   0.50997   0.04335   0.00000  Uiso   1.00
Cl304  Cl    0.28849   0.54260   0.45544   0.00000  Uiso   1.00
Cl305  Cl    0.04174   0.40297   0.26309   0.00000  Uiso   1.00
Cl306  Cl    0.28755   0.58545   0.29658   0.00000  Uiso   1.00
Cl307  Cl    0.29002   0.41317   0.21588   0.00000  Uiso   1.00
Cl308  Cl    0.04976   0.58325   0.30319   0.00000  Uiso   1.00
O309   O     0.20697   0.38302   0.31650   0.00000  Uiso   1.00
C310   C     0.24913   0.37059   0.31985   0.00000  Uiso   1.00
H311   H     0.26811   0.40116   0.32822   0.00000  Uiso   1.00
H312   H     0.26187   0.35636   0.28827   0.00000  Uiso   1.00
H313   H     0.25315   0.34611   0.34767   0.00000  Uiso   1.00
O314   O     0.13674   0.61885   0.17693   0.00000  Uiso   1.00
C315   C     0.16542   0.62619   0.14180   0.00000  Uiso   1.00
H316   H     0.15589   0.60471   0.11284   0.00000  Uiso   1.00
H317   H     0.19747   0.61644   0.15188   0.00000  Uiso   1.00
H318   H     0.16563   0.66179   0.13003   0.00000  Uiso   1.00
O319   O     0.12728   0.38181   0.18282   0.00000  Uiso   1.00
C320   C     0.08747   0.36358   0.17187   0.00000  Uiso   1.00
H321   H     0.06598   0.39186   0.16598   0.00000  Uiso   1.00
H322   H     0.07353   0.34191   0.19862   0.00000  Uiso   1.00
H323   H     0.08898   0.34423   0.14005   0.00000  Uiso   1.00
O324   O     0.19830   0.62018   0.32231   0.00000  Uiso   1.00
C325   C     0.17158   0.62696   0.35906   0.00000  Uiso   1.00
H326   H     0.18154   0.60481   0.38703   0.00000  Uiso   1.00
H327   H     0.13871   0.61758   0.35059   0.00000  Uiso   1.00
H328   H     0.17353   0.66227   0.37155   0.00000  Uiso   1.00
C329   C     0.42044   0.49944   0.25555   0.00000  Uiso   1.00
C330   C     0.58027   0.50031   0.25036   0.00000  Uiso   1.00
C331   C     0.42150   0.50482   0.02117   0.00000  Uiso   1.00
C332   C     0.57407   0.52374   0.47841   0.00000  Uiso   1.00
C333   C     0.35404   0.45750   0.25585   0.00000  Uiso   1.00
C334   C     0.64626   0.53758   0.27478   0.00000  Uiso   1.00
C335   C     0.64599   0.46017   0.24491   0.00000  Uiso   1.00
C336   C     0.35596   0.53674   0.27814   0.00000  Uiso   1.00
C337   C     0.62481   0.50025   0.25504   0.00000  Uiso   1.00
C338   C     0.37654   0.49769   0.26446   0.00000  Uiso   1.00
C339   C     0.51970   0.35810   0.28353   0.00000  Uiso   1.00
C340   C     0.48387   0.64243   0.21431   0.00000  Uiso   1.00
C341   C     0.48036   0.35733   0.21629   0.00000  Uiso   1.00
C342   C     0.51641   0.64314   0.28554   0.00000  Uiso   1.00
C343   C     0.49988   0.50010   0.16361   0.00000  Uiso   1.00
C344   C     0.49955   0.50002   0.33634   0.00000  Uiso   1.00
C345   C     0.53767   0.50537   0.40677   0.00000  Uiso   1.00
C346   C     0.46043   0.49775   0.09348   0.00000  Uiso   1.00
C347   C     0.49969   0.50059   0.38400   0.00000  Uiso   1.00
C348   C     0.49883   0.50103   0.11586   0.00000  Uiso   1.00
C349   C     0.46147   0.50021   0.40573   0.00000  Uiso   1.00
C350   C     0.53610   0.50989   0.09378   0.00000  Uiso   1.00
C351   C     0.46093   0.50439   0.45222   0.00000  Uiso   1.00
C352   C     0.53567   0.51415   0.04738   0.00000  Uiso   1.00
C353   C     0.49876   0.50900   0.47633   0.00000  Uiso   1.00
C354   C     0.49776   0.50918   0.02344   0.00000  Uiso   1.00
C355   C     0.53756   0.51270   0.45342   0.00000  Uiso   1.00
C356   C     0.45913   0.50379   0.04649   0.00000  Uiso   1.00
C357   C     0.42300   0.50480   0.47472   0.00000  Uiso   1.00
C358   C     0.57267   0.52389   0.02480   0.00000  Uiso   1.00
H359   H     0.39389   0.50486   0.45611   0.00000  Uiso   1.00
H360   H     0.60111   0.53160   0.04326   0.00000  Uiso   1.00
N361   N     0.50000   0.61907   0.25000   0.00000  Uiso   1.00
N362   N     0.50000   0.38093   0.25000   0.00000  Uiso   1.00
O363   O     0.43892   0.53821   0.25000   0.00000  Uiso   1.00
O364   O     0.56108   0.46179   0.25001   0.00000  Uiso   1.00
O365   O     0.56108   0.53821   0.25001   0.00000  Uiso   1.00
O366   O     0.43892   0.46179   0.25000   0.00000  Uiso   1.00
O367   O     0.49999   0.53823   0.18393   0.00000  Uiso   1.00
O368   O     0.50001   0.46177   0.31608   0.00000  Uiso   1.00
O369   O     0.50001   0.53823   0.31608   0.00000  Uiso   1.00
O370   O     0.49999   0.46177   0.18393   0.00000  Uiso   1.00
Zn371  Zn    0.50000   0.55104   0.25000   0.00000  Uiso   1.00
Zn372  Zn    0.50000   0.44896   0.25000   0.00000  Uiso   1.00
Cl373  Cl    0.58374   0.49650   0.37565   0.00000  Uiso   1.00
Cl374  Cl    0.41620   0.48308   0.12617   0.00000  Uiso   1.00
O375   O     0.42472   0.49846   0.38097   0.00000  Uiso   1.00
C376   C     0.41145   0.45294   0.37665   0.00000  Uiso   1.00
H377   H     0.38097   0.45198   0.35891   0.00000  Uiso   1.00
H378   H     0.40693   0.43647   0.40987   0.00000  Uiso   1.00
H379   H     0.43358   0.43326   0.35632   0.00000  Uiso   1.00
O380   O     0.57263   0.51660   0.11818   0.00000  Uiso   1.00
C381   C     0.59289   0.47494   0.12213   0.00000  Uiso   1.00
H382   H     0.62234   0.48057   0.14114   0.00000  Uiso   1.00
H383   H     0.60113   0.46096   0.08876   0.00000  Uiso   1.00
H384   H     0.57359   0.44987   0.14089   0.00000  Uiso   1.00
Cl385  Cl    0.37101   0.50997   0.04335   0.00000  Uiso   1.00
Cl386  Cl    0.62183   0.54260   0.45544   0.00000  Uiso   1.00
Cl387  Cl    0.37507   0.40297   0.26309   0.00000  Uiso   1.00
Cl388  Cl    0.62088   0.58545   0.29658   0.00000  Uiso   1.00
Cl389  Cl    0.62336   0.41317   0.21588   0.00000  Uiso   1.00
Cl390  Cl    0.38310   0.58325   0.30319   0.00000  Uiso   1.00
O391   O     0.54030   0.38302   0.31650   0.00000  Uiso   1.00
C392   C     0.58246   0.37059   0.31985   0.00000  Uiso   1.00
H393   H     0.60144   0.40116   0.32822   0.00000  Uiso   1.00
H394   H     0.59520   0.35636   0.28827   0.00000  Uiso   1.00
H395   H     0.58648   0.34611   0.34767   0.00000  Uiso   1.00
O396   O     0.47007   0.61885   0.17693   0.00000  Uiso   1.00
C397   C     0.49875   0.62619   0.14180   0.00000  Uiso   1.00
H398   H     0.48922   0.60471   0.11284   0.00000  Uiso   1.00
H399   H     0.53081   0.61644   0.15188   0.00000  Uiso   1.00
H400   H     0.49896   0.66179   0.13003   0.00000  Uiso   1.00
O401   O     0.46061   0.38181   0.18282   0.00000  Uiso   1.00
C402   C     0.42080   0.36358   0.17187   0.00000  Uiso   1.00
H403   H     0.39931   0.39186   0.16598   0.00000  Uiso   1.00
H404   H     0.40686   0.34191   0.19862   0.00000  Uiso   1.00
H405   H     0.42231   0.34423   0.14005   0.00000  Uiso   1.00
O406   O     0.53163   0.62018   0.32231   0.00000  Uiso   1.00
C407   C     0.50491   0.62696   0.35906   0.00000  Uiso   1.00
H408   H     0.51488   0.60481   0.38703   0.00000  Uiso   1.00
H409   H     0.47204   0.61758   0.35059   0.00000  Uiso   1.00
H410   H     0.50686   0.66227   0.37155   0.00000  Uiso   1.00
C411   C     0.75377   0.49944   0.25555   0.00000  Uiso   1.00
C412   C     0.91360   0.50031   0.25036   0.00000  Uiso   1.00
C413   C     0.75484   0.50482   0.02117   0.00000  Uiso   1.00
C414   C     0.90740   0.52374   0.47841   0.00000  Uiso   1.00
C415   C     0.68738   0.45750   0.25585   0.00000  Uiso   1.00
C416   C     0.97960   0.53758   0.27478   0.00000  Uiso   1.00
C417   C     0.97932   0.46017   0.24491   0.00000  Uiso   1.00
C418   C     0.68929   0.53674   0.27814   0.00000  Uiso   1.00
C419   C     0.95814   0.50025   0.25504   0.00000  Uiso   1.00
C420   C     0.70988   0.49769   0.26446   0.00000  Uiso   1.00
C421   C     0.85303   0.35810   0.28353   0.00000  Uiso   1.00
C422   C     0.81720   0.64243   0.21431   0.00000  Uiso   1.00
C423   C     0.81369   0.35733   0.21629   0.00000  Uiso   1.00
C424   C     0.84974   0.64314   0.28554   0.00000  Uiso   1.00
C425   C     0.83322   0.50010   0.16361   0.00000  Uiso   1.00
C426   C     0.83289   0.50002   0.33634   0.00000  Uiso   1.00
C427   C     0.87100   0.50537   0.40677   0.00000  Uiso   1.00
C428   C     0.79377   0.49775   0.09348   0.00000  Uiso   1.00
C429   C     0.83302   0.50059   0.38400   0.00000  Uiso   1.00
C430   C     0.83216   0.50103   0.11586   0.00000  Uiso   1.00
C431   C     0.79481   0.50021   0.40573   0.00000  Uiso   1.00
C432   C     0.86943   0.50989   0.09378   0.00000  Uiso   1.00
C433   C     0.79426   0.50439   0.45222   0.00000  Uiso   1.00
C434   C     0.86900   0.51415   0.04738   0.00000  Uiso   1.00
C435   C     0.83210   0.50900   0.47633   0.00000  Uiso   1.00
C436   C     0.83110   0.50918   0.02344   0.00000  Uiso   1.00
C437   C     0.87089   0.51270   0.45342   0.00000  Uiso   1.00
C438   C     0.79247   0.50379   0.04649   0.00000  Uiso   1.00
C439   C     0.75634   0.50480   0.47472   0.00000  Uiso   1.00
C440   C     0.90600   0.52389   0.02480   0.00000  Uiso   1.00
H441   H     0.72722   0.50486   0.45611   0.00000  Uiso   1.00
H442   H     0.93445   0.53160   0.04326   0.00000  Uiso   1.00
N443   N     0.83333   0.61907   0.25000   0.00000  Uiso   1.00
N444   N     0.83333   0.38093   0.25000   0.00000  Uiso   1.00
O445   O     0.77226   0.53821   0.25000   0.00000  Uiso   1.00
O446   O     0.89441   0.46179   0.25001   0.00000  Uiso   1.00
O447   O     0.89441   0.53821   0.25001   0.00000  Uiso   1.00
O448   O     0.77226   0.46179   0.25000   0.00000  Uiso   1.00
O449   O     0.83333   0.53823   0.18393   0.00000  Uiso   1.00
O450   O     0.83334   0.46177   0.31608   0.00000  Uiso   1.00
O451   O     0.83334   0.53823   0.31608   0.00000  Uiso   1.00
O452   O     0.83333   0.46177   0.18393   0.00000  Uiso   1.00
Zn453  Zn    0.83333   0.55104   0.25000   0.00000  Uiso   1.00
Zn454  Zn    0.83333   0.44896   0.25000   0.00000  Uiso   1.00
Cl455  Cl    0.91708   0.49650   0.37565   0.00000  Uiso   1.00
Cl456  Cl    0.74954   0.48308   0.12617   0.00000  Uiso   1.00
O457   O     0.75805   0.49846   0.38097   0.00000  Uiso   1.00
C458   C     0.74478   0.45294   0.37665   0.00000  Uiso   1.00
H459   H     0.71431   0.45198   0.35891   0.00000  Uiso   1.00
H460   H     0.74026   0.43647   0.40987   0.00000  Uiso   1.00
H461   H     0.76691   0.43326   0.35632   0.00000  Uiso   1.00
O462   O     0.90596   0.51660   0.11818   0.00000  Uiso   1.00
C463   C     0.92623   0.47494   0.12213   0.00000  Uiso   1.00
H464   H     0.95568   0.48057   0.14114   0.00000  Uiso   1.00
H465   H     0.93446   0.46096   0.08876   0.00000  Uiso   1.00
H466   H     0.90693   0.44987   0.14089   0.00000  Uiso   1.00
Cl467  Cl    0.70434   0.50997   0.04335   0.00000  Uiso   1.00
Cl468  Cl    0.95516   0.54260   0.45544   0.00000  Uiso   1.00
Cl469  Cl    0.70840   0.40297   0.26309   0.00000  Uiso   1.00
Cl470  Cl    0.95422   0.58545   0.29658   0.00000  Uiso   1.00
Cl471  Cl    0.95669   0.41317   0.21588   0.00000  Uiso   1.00
Cl472  Cl    0.71643   0.58325   0.30319   0.00000  Uiso   1.00
O473   O     0.87363   0.38302   0.31650   0.00000  Uiso   1.00
C474   C     0.91579   0.37059   0.31985   0.00000  Uiso   1.00
H475   H     0.93478   0.40116   0.32822   0.00000  Uiso   1.00
H476   H     0.92853   0.35636   0.28827   0.00000  Uiso   1.00
H477   H     0.91982   0.34611   0.34767   0.00000  Uiso   1.00
O478   O     0.80340   0.61885   0.17693   0.00000  Uiso   1.00
C479   C     0.83209   0.62619   0.14180   0.00000  Uiso   1.00
H480   H     0.82256   0.60471   0.11284   0.00000  Uiso   1.00
H481   H     0.86414   0.61644   0.15188   0.00000  Uiso   1.00
H482   H     0.83229   0.66179   0.13003   0.00000  Uiso   1.00
O483   O     0.79394   0.38181   0.18282   0.00000  Uiso   1.00
C484   C     0.75414   0.36358   0.17187   0.00000  Uiso   1.00
H485   H     0.73265   0.39186   0.16598   0.00000  Uiso   1.00
H486   H     0.74019   0.34191   0.19862   0.00000  Uiso   1.00
H487   H     0.75565   0.34423   0.14005   0.00000  Uiso   1.00
O488   O     0.86496   0.62018   0.32231   0.00000  Uiso   1.00
C489   C     0.83825   0.62696   0.35906   0.00000  Uiso   1.00
H490   H     0.84821   0.60481   0.38703   0.00000  Uiso   1.00
H491   H     0.80537   0.61758   0.35059   0.00000  Uiso   1.00
H492   H     0.84020   0.66227   0.37155   0.00000  Uiso   1.00
C493   C     0.08711   0.83277   0.25555   0.00000  Uiso   1.00
C494   C     0.24693   0.83365   0.25036   0.00000  Uiso   1.00
C495   C     0.08817   0.83816   0.02117   0.00000  Uiso   1.00
C496   C     0.24074   0.85707   0.47841   0.00000  Uiso   1.00
C497   C     0.02071   0.79083   0.25585   0.00000  Uiso   1.00
C498   C     0.31293   0.87091   0.27478   0.00000  Uiso   1.00
C499   C     0.31266   0.79350   0.24491   0.00000  Uiso   1.00
C500   C     0.02262   0.87008   0.27814   0.00000  Uiso   1.00
C501   C     0.29148   0.83358   0.25504   0.00000  Uiso   1.00
C502   C     0.04321   0.83103   0.26446   0.00000  Uiso   1.00
C503   C     0.18637   0.69144   0.28353   0.00000  Uiso   1.00
C504   C     0.15054   0.97576   0.21431   0.00000  Uiso   1.00
C505   C     0.14702   0.69067   0.21629   0.00000  Uiso   1.00
C506   C     0.18308   0.97648   0.28554   0.00000  Uiso   1.00
C507   C     0.16655   0.83343   0.16361   0.00000  Uiso   1.00
C508   C     0.16622   0.83336   0.33634   0.00000  Uiso   1.00
C509   C     0.20434   0.83870   0.40677   0.00000  Uiso   1.00
C510   C     0.12710   0.83109   0.09348   0.00000  Uiso   1.00
C511   C     0.16635   0.83393   0.38400   0.00000  Uiso   1.00
C512   C     0.16549   0.83436   0.11586   0.00000  Uiso   1.00
C513   C     0.12814   0.83354   0.40573   0.00000  Uiso   1.00
C514   C     0.20276   0.84323   0.09378   0.00000  Uiso   1.00
C515   C     0.12759   0.83772   0.45222   0.00000  Uiso   1.00
C516   C     0.20233   0.84748   0.04738   0.00000  Uiso   1.00
C517   C     0.16543   0.84233   0.47633   0.00000  Uiso   1.00
C518   C     0.16443   0.84251   0.02344   0.00000  Uiso   1.00
C519   C     0.20422   0.84604   0.45342   0.00000  Uiso   1.00
C520   C     0.12580   0.83712   0.04649   0.00000  Uiso   1.00
C521   C     0.08967   0.83814   0.47472   0.00000  Uiso   1.00
C522   C     0.23933   0.85723   0.02480   0.00000  Uiso   1.00
H523   H     0.06056   0.83819   0.45611   0.00000  Uiso   1.00
H524   H     0.26778   0.86494   0.04326   0.00000  Uiso   1.00
N525   N     0.16667   0.95240   0.25000   0.00000  Uiso   1.00
N526   N     0.16667   0.71427   0.25000   0.00000  Uiso   1.00
O527   O     0.10559   0.87154   0.25000   0.00000  Uiso   1.00
O528   O     0.22774   0.79513   0.25001   0.00000  Uiso   1.00
O529   O     0.22774   0.87154   0.25001   0.00000  Uiso   1.00
O530   O     0.10559   0.79513   0.25000   0.00000  Uiso   1.00
O531   O     0.16666   0.87156   0.18393   0.00000  Uiso   1.00
O532   O     0.16667   0.79511   0.31608   0.00000  Uiso   1.00
O533   O     0.16667   0.87156   0.31608   0.00000  Uiso   1.00
O534   O     0.16666   0.79511   0.18393   0.00000  Uiso   1.00
Zn535  Zn    0.16667   0.88437   0.25000   0.00000  Uiso   1.00
Zn536  Zn    0.16667   0.78229   0.25000   0.00000  Uiso   1.00
Cl537  Cl    0.25041   0.82983   0.37565   0.00000  Uiso   1.00
Cl538  Cl    0.08287   0.81641   0.12617   0.00000  Uiso   1.00
O539   O     0.09138   0.83179   0.38097   0.00000  Uiso   1.00
C540   C     0.07812   0.78627   0.37665   0.00000  Uiso   1.00
H541   H     0.04764   0.78532   0.35891   0.00000  Uiso   1.00
H542   H     0.07359   0.76981   0.40987   0.00000  Uiso   1.00
H543   H     0.10024   0.76660   0.35632   0.00000  Uiso   1.00
O544   O     0.23930   0.84993   0.11818   0.00000  Uiso   1.00
C545   C     0.25956   0.80827   0.12213   0.00000  Uiso   1.00
H546   H     0.28901   0.81391   0.14114   0.00000  Uiso   1.00
H547   H     0.26779   0.79430   0.08876   0.00000  Uiso   1.00
H548   H     0.24026   0.78320   0.14089   0.00000  Uiso   1.00
Cl549  Cl    0.03768   0.84330   0.04335   0.00000  Uiso   1.00
Cl550  Cl    0.28849   0.87593   0.45544   0.00000  Uiso   1.00
Cl551  Cl    0.04174   0.73630   0.26309   0.00000  Uiso   1.00
Cl552  Cl    0.28755   0.91878   0.29658   0.00000  Uiso   1.00
Cl553  Cl    0.29002   0.74650   0.21588   0.00000  Uiso   1.00
Cl554  Cl    0.04976   0.91658   0.30319   0.00000  Uiso   1.00
O555   O     0.20697   0.71635   0.31650   0.00000  Uiso   1.00
C556   C     0.24913   0.70392   0.31985   0.00000  Uiso   1.00
H557   H     0.26811   0.73449   0.32822   0.00000  Uiso   1.00
H558   H     0.26187   0.68969   0.28827   0.00000  Uiso   1.00
H559   H     0.25315   0.67944   0.34767   0.00000  Uiso   1.00
O560   O     0.13674   0.95218   0.17693   0.00000  Uiso   1.00
C561   C     0.16542   0.95952   0.14180   0.00000  Uiso   1.00
H562   H     0.15589   0.93804   0.11284   0.00000  Uiso   1.00
H563   H     0.19747   0.94977   0.15188   0.00000  Uiso   1.00
H564   H     0.16563   0.99513   0.13003   0.00000  Uiso   1.00
O565   O     0.12728   0.71515   0.18282   0.00000  Uiso   1.00
C566   C     0.08747   0.69691   0.17187   0.00000  Uiso   1.00
H567   H     0.06598   0.72519   0.16598   0.00000  Uiso   1.00
H568   H     0.07353   0.67525   0.19862   0.00000  Uiso   1.00
H569   H     0.08898   0.67756   0.14005   0.00000  Uiso   1.00
O570   O     0.19830   0.95352   0.32231   0.00000  Uiso   1.00
C571   C     0.17158   0.96029   0.35906   0.00000  Uiso   1.00
H572   H     0.18154   0.93815   0.38703   0.00000  Uiso   1.00
H573   H     0.13871   0.95091   0.35059   0.00000  Uiso   1.00
H574   H     0.17353   0.99560   0.37155   0.00000  Uiso   1.00
C575   C     0.42044   0.83277   0.25555   0.00000  Uiso   1.00
C576   C     0.58027   0.83365   0.25036   0.00000  Uiso   1.00
C577   C     0.42150   0.83816   0.02117   0.00000  Uiso   1.00
C578   C     0.57407   0.85707   0.47841   0.00000  Uiso   1.00
C579   C     0.35404   0.79083   0.25585   0.00000  Uiso   1.00
C580   C     0.64626   0.87091   0.27478   0.00000  Uiso   1.00
C581   C     0.64599   0.79350   0.24491   0.00000  Uiso   1.00
C582   C     0.35596   0.87008   0.27814   0.00000  Uiso   1.00
C583   C     0.62481   0.83358   0.25504   0.00000  Uiso   1.00
C584   C     0.37654   0.83103   0.26446   0.00000  Uiso   1.00
C585   C     0.51970   0.69144   0.28353   0.00000  Uiso   1.00
C586   C     0.48387   0.97576   0.21431   0.00000  Uiso   1.00
C587   C     0.48036   0.69067   0.21629   0.00000  Uiso   1.00
C588   C     0.51641   0.97648   0.28554   0.00000  Uiso   1.00
C589   C     0.49988   0.83343   0.16361   0.00000  Uiso   1.00
C590   C     0.49955   0.83336   0.33634   0.00000  Uiso   1.00
C591   C     0.53767   0.83870   0.40677   0.00000  Uiso   1.00
C592   C     0.46043   0.83109   0.09348   0.00000  Uiso   1.00
C593   C     0.49969   0.83393   0.38400   0.00000  Uiso   1.00
C594   C     0.49883   0.83436   0.11586   0.00000  Uiso   1.00
C595   C     0.46147   0.83354   0.40573   0.00000  Uiso   1.00
C596   C     0.53610   0.84323   0.09378   0.00000  Uiso   1.00
C597   C     0.46093   0.83772   0.45222   0.00000  Uiso   1.00
C598   C     0.53567   0.84748   0.04738   0.00000  Uiso   1.00
C599   C     0.49876   0.84233   0.47633   0.00000  Uiso   1.00
C600   C     0.49776   0.84251   0.02344   0.00000  Uiso   1.00
C601   C     0.53756   0.84604   0.45342   0.00000  Uiso   1.00
C602   C     0.45913   0.83712   0.04649   0.00000  Uiso   1.00
C603   C     0.42300   0.83814   0.47472   0.00000  Uiso   1.00
C604   C     0.57267   0.85723   0.02480   0.00000  Uiso   1.00
H605   H     0.39389   0.83819   0.45611   0.00000  Uiso   1.00
H606   H     0.60111   0.86494   0.04326   0.00000  Uiso   1.00
N607   N     0.50000   0.95240   0.25000   0.00000  Uiso   1.00
N608   N     0.50000   0.71427   0.25000   0.00000  Uiso   1.00
O609   O     0.43892   0.87154   0.25000   0.00000  Uiso   1.00
O610   O     0.56108   0.79513   0.25001   0.00000  Uiso   1.00
O611   O     0.56108   0.87154   0.25001   0.00000  Uiso   1.00
O612   O     0.43892   0.79513   0.25000   0.00000  Uiso   1.00
O613   O     0.49999   0.87156   0.18393   0.00000  Uiso   1.00
O614   O     0.50001   0.79511   0.31608   0.00000  Uiso   1.00
O615   O     0.50001   0.87156   0.31608   0.00000  Uiso   1.00
O616   O     0.49999   0.79511   0.18393   0.00000  Uiso   1.00
Zn617  Zn    0.50000   0.88437   0.25000   0.00000  Uiso   1.00
Zn618  Zn    0.50000   0.78229   0.25000   0.00000  Uiso   1.00
Cl619  Cl    0.58374   0.82983   0.37565   0.00000  Uiso   1.00
Cl620  Cl    0.41620   0.81641   0.12617   0.00000  Uiso   1.00
O621   O     0.42472   0.83179   0.38097   0.00000  Uiso   1.00
C622   C     0.41145   0.78627   0.37665   0.00000  Uiso   1.00
H623   H     0.38097   0.78532   0.35891   0.00000  Uiso   1.00
H624   H     0.40693   0.76981   0.40987   0.00000  Uiso   1.00
H625   H     0.43358   0.76660   0.35632   0.00000  Uiso   1.00
O626   O     0.57263   0.84993   0.11818   0.00000  Uiso   1.00
C627   C     0.59289   0.80827   0.12213   0.00000  Uiso   1.00
H628   H     0.62234   0.81391   0.14114   0.00000  Uiso   1.00
H629   H     0.60113   0.79430   0.08876   0.00000  Uiso   1.00
H630   H     0.57359   0.78320   0.14089   0.00000  Uiso   1.00
Cl631  Cl    0.37101   0.84330   0.04335   0.00000  Uiso   1.00
Cl632  Cl    0.62183   0.87593   0.45544   0.00000  Uiso   1.00
Cl633  Cl    0.37507   0.73630   0.26309   0.00000  Uiso   1.00
Cl634  Cl    0.62088   0.91878   0.29658   0.00000  Uiso   1.00
Cl635  Cl    0.62336   0.74650   0.21588   0.00000  Uiso   1.00
Cl636  Cl    0.38310   0.91658   0.30319   0.00000  Uiso   1.00
O637   O     0.54030   0.71635   0.31650   0.00000  Uiso   1.00
C638   C     0.58246   0.70392   0.31985   0.00000  Uiso   1.00
H639   H     0.60144   0.73449   0.32822   0.00000  Uiso   1.00
H640   H     0.59520   0.68969   0.28827   0.00000  Uiso   1.00
H641   H     0.58648   0.67944   0.34767   0.00000  Uiso   1.00
O642   O     0.47007   0.95218   0.17693   0.00000  Uiso   1.00
C643   C     0.49875   0.95952   0.14180   0.00000  Uiso   1.00
H644   H     0.48922   0.93804   0.11284   0.00000  Uiso   1.00
H645   H     0.53081   0.94977   0.15188   0.00000  Uiso   1.00
H646   H     0.49896   0.99513   0.13003   0.00000  Uiso   1.00
O647   O     0.46061   0.71515   0.18282   0.00000  Uiso   1.00
C648   C     0.42080   0.69691   0.17187   0.00000  Uiso   1.00
H649   H     0.39931   0.72519   0.16598   0.00000  Uiso   1.00
H650   H     0.40686   0.67525   0.19862   0.00000  Uiso   1.00
H651   H     0.42231   0.67756   0.14005   0.00000  Uiso   1.00
O652   O     0.53163   0.95352   0.32231   0.00000  Uiso   1.00
C653   C     0.50491   0.96029   0.35906   0.00000  Uiso   1.00
H654   H     0.51488   0.93815   0.38703   0.00000  Uiso   1.00
H655   H     0.47204   0.95091   0.35059   0.00000  Uiso   1.00
H656   H     0.50686   0.99560   0.37155   0.00000  Uiso   1.00
C657   C     0.75377   0.83277   0.25555   0.00000  Uiso   1.00
C658   C     0.91360   0.83365   0.25036   0.00000  Uiso   1.00
C659   C     0.75484   0.83816   0.02117   0.00000  Uiso   1.00
C660   C     0.90740   0.85707   0.47841   0.00000  Uiso   1.00
C661   C     0.68738   0.79083   0.25585   0.00000  Uiso   1.00
C662   C     0.97960   0.87091   0.27478   0.00000  Uiso   1.00
C663   C     0.97932   0.79350   0.24491   0.00000  Uiso   1.00
C664   C     0.68929   0.87008   0.27814   0.00000  Uiso   1.00
C665   C     0.95814   0.83358   0.25504   0.00000  Uiso   1.00
C666   C     0.70988   0.83103   0.26446   0.00000  Uiso   1.00
C667   C     0.85303   0.69144   0.28353   0.00000  Uiso   1.00
C668   C     0.81720   0.97576   0.21431   0.00000  Uiso   1.00
C669   C     0.81369   0.69067   0.21629   0.00000  Uiso   1.00
C670   C     0.84974   0.97648   0.28554   0.00000  Uiso   1.00
C671   C     0.83322   0.83343   0.16361   0.00000  Uiso   1.00
C672   C     0.83289   0.83336   0.33634   0.00000  Uiso   1.00
C673   C     0.87100   0.83870   0.40677   0.00000  Uiso   1.00
C674   C     0.79377   0.83109   0.09348   0.00000  Uiso   1.00
C675   C     0.83302   0.83393   0.38400   0.00000  Uiso   1.00
C676   C     0.83216   0.83436   0.11586   0.00000  Uiso   1.00
C677   C     0.79481   0.83354   0.40573   0.00000  Uiso   1.00
C678   C     0.86943   0.84323   0.09378   0.00000  Uiso   1.00
C679   C     0.79426   0.83772   0.45222   0.00000  Uiso   1.00
C680   C     0.86900   0.84748   0.04738   0.00000  Uiso   1.00
C681   C     0.83210   0.84233   0.47633   0.00000  Uiso   1.00
C682   C     0.83110   0.84251   0.02344   0.00000  Uiso   1.00
C683   C     0.87089   0.84604   0.45342   0.00000  Uiso   1.00
C684   C     0.79247   0.83712   0.04649   0.00000  Uiso   1.00
C685   C     0.75634   0.83814   0.47472   0.00000  Uiso   1.00
C686   C     0.90600   0.85723   0.02480   0.00000  Uiso   1.00
H687   H     0.72722   0.83819   0.45611   0.00000  Uiso   1.00
H688   H     0.93445   0.86494   0.04326   0.00000  Uiso   1.00
N689   N     0.83333   0.95240   0.25000   0.00000  Uiso   1.00
N690   N     0.83333   0.71427   0.25000   0.00000  Uiso   1.00
O691   O     0.77226   0.87154   0.25000   0.00000  Uiso   1.00
O692   O     0.89441   0.79513   0.25001   0.00000  Uiso   1.00
O693   O     0.89441   0.87154   0.25001   0.00000  Uiso   1.00
O694   O     0.77226   0.79513   0.25000   0.00000  Uiso   1.00
O695   O     0.83333   0.87156   0.18393   0.00000  Uiso   1.00
O696   O     0.83334   0.79511   0.31608   0.00000  Uiso   1.00
O697   O     0.83334   0.87156   0.31608   0.00000  Uiso   1.00
O698   O     0.83333   0.79511   0.18393   0.00000  Uiso   1.00
Zn699  Zn    0.83333   0.88437   0.25000   0.00000  Uiso   1.00
Zn700  Zn    0.83333   0.78229   0.25000   0.00000  Uiso   1.00
Cl701  Cl    0.91708   0.82983   0.37565   0.00000  Uiso   1.00
Cl702  Cl    0.74954   0.81641   0.12617   0.00000  Uiso   1.00
O703   O     0.75805   0.83179   0.38097   0.00000  Uiso   1.00
C704   C     0.74478   0.78627   0.37665   0.00000  Uiso   1.00
H705   H     0.71431   0.78532   0.35891   0.00000  Uiso   1.00
H706   H     0.74026   0.76981   0.40987   0.00000  Uiso   1.00
H707   H     0.76691   0.76660   0.35632   0.00000  Uiso   1.00
O708   O     0.90596   0.84993   0.11818   0.00000  Uiso   1.00
C709   C     0.92623   0.80827   0.12213   0.00000  Uiso   1.00
H710   H     0.95568   0.81391   0.14114   0.00000  Uiso   1.00
H711   H     0.93446   0.79430   0.08876   0.00000  Uiso   1.00
H712   H     0.90693   0.78320   0.14089   0.00000  Uiso   1.00
Cl713  Cl    0.70434   0.84330   0.04335   0.00000  Uiso   1.00
Cl714  Cl    0.95516   0.87593   0.45544   0.00000  Uiso   1.00
Cl715  Cl    0.70840   0.73630   0.26309   0.00000  Uiso   1.00
Cl716  Cl    0.95422   0.91878   0.29658   0.00000  Uiso   1.00
Cl717  Cl    0.95669   0.74650   0.21588   0.00000  Uiso   1.00
Cl718  Cl    0.71643   0.91658   0.30319   0.00000  Uiso   1.00
O719   O     0.87363   0.71635   0.31650   0.00000  Uiso   1.00
C720   C     0.91579   0.70392   0.31985   0.00000  Uiso   1.00
H721   H     0.93478   0.73449   0.32822   0.00000  Uiso   1.00
H722   H     0.92853   0.68969   0.28827   0.00000  Uiso   1.00
H723   H     0.91982   0.67944   0.34767   0.00000  Uiso   1.00
O724   O     0.80340   0.95218   0.17693   0.00000  Uiso   1.00
C725   C     0.83209   0.95952   0.14180   0.00000  Uiso   1.00
H726   H     0.82256   0.93804   0.11284   0.00000  Uiso   1.00
H727   H     0.86414   0.94977   0.15188   0.00000  Uiso   1.00
H728   H     0.83229   0.99513   0.13003   0.00000  Uiso   1.00
O729   O     0.79394   0.71515   0.18282   0.00000  Uiso   1.00
C730   C     0.75414   0.69691   0.17187   0.00000  Uiso   1.00
H731   H     0.73265   0.72519   0.16598   0.00000  Uiso   1.00
H732   H     0.74019   0.67525   0.19862   0.00000  Uiso   1.00
H733   H     0.75565   0.67756   0.14005   0.00000  Uiso   1.00
O734   O     0.86496   0.95352   0.32231   0.00000  Uiso   1.00
C735   C     0.83825   0.96029   0.35906   0.00000  Uiso   1.00
H736   H     0.84821   0.93815   0.38703   0.00000  Uiso   1.00
H737   H     0.80537   0.95091   0.35059   0.00000  Uiso   1.00
H738   H     0.84020   0.99560   0.37155   0.00000  Uiso   1.00
C739   C     0.08711   0.16611   0.75555   0.00000  Uiso   1.00
C740   C     0.24693   0.16698   0.75036   0.00000  Uiso   1.00
C741   C     0.08817   0.17149   0.52117   0.00000  Uiso   1.00
C742   C     0.24074   0.19040   0.97841   0.00000  Uiso   1.00
C743   C     0.02071   0.12416   0.75585   0.00000  Uiso   1.00
C744   C     0.31293   0.20425   0.77478   0.00000  Uiso   1.00
C745   C     0.31266   0.12684   0.74491   0.00000  Uiso   1.00
C746   C     0.02262   0.20341   0.77814   0.00000  Uiso   1.00
C747   C     0.29148   0.16691   0.75504   0.00000  Uiso   1.00
C748   C     0.04321   0.16436   0.76446   0.00000  Uiso   1.00
C749   C     0.18637   0.02477   0.78353   0.00000  Uiso   1.00
C750   C     0.15054   0.30910   0.71431   0.00000  Uiso   1.00
C751   C     0.14702   0.02400   0.71629   0.00000  Uiso   1.00
C752   C     0.18308   0.30981   0.78554   0.00000  Uiso   1.00
C753   C     0.16655   0.16677   0.66361   0.00000  Uiso   1.00
C754   C     0.16622   0.16669   0.83634   0.00000  Uiso   1.00
C755   C     0.20434   0.17204   0.90677   0.00000  Uiso   1.00
C756   C     0.12710   0.16442   0.59348   0.00000  Uiso   1.00
C757   C     0.16635   0.16726   0.88400   0.00000  Uiso   1.00
C758   C     0.16549   0.16770   0.61586   0.00000  Uiso   1.00
C759   C     0.12814   0.16687   0.90573   0.00000  Uiso   1.00
C760   C     0.20276   0.17656   0.59378   0.00000  Uiso   1.00
C761   C     0.12759   0.17105   0.95222   0.00000  Uiso   1.00
C762   C     0.20233   0.18082   0.54738   0.00000  Uiso   1.00
C763   C     0.16543   0.17567   0.97633   0.00000  Uiso   1.00
C764   C     0.16443   0.17584   0.52344   0.00000  Uiso   1.00
C765   C     0.20422   0.17937   0.95342   0.00000  Uiso   1.00
C766   C     0.12580   0.17045   0.54649   0.00000  Uiso   1.00
C767   C     0.08967   0.17147   0.97472   0.00000  Uiso   1.00
C768   C     0.23933   0.19056   0.52480   0.00000  Uiso   1.00
H769   H     0.06056   0.17153   0.95611   0.00000  Uiso   1.00
H770   H     0.26778   0.19827   0.54326   0.00000  Uiso   1.00
N771   N     0.16667   0.28573   0.75000   0.00000  Uiso   1.00
N772   N     0.16667   0.04760   0.75000   0.00000  Uiso   1.00
O773   O     0.10559   0.20487   0.75000   0.00000  Uiso   1.00
O774   O     0.22774   0.12846   0.75001   0.00000  Uiso   1.00
O775   O     0.22774   0.20487   0.75001   0.00000  Uiso   1.00
O776   O     0.10559   0.12846   0.75000   0.00000  Uiso   1.00
O777   O     0.16666   0.20489   0.68393   0.00000  Uiso   1.00
O778   O     0.16667   0.12844   0.81608   0.00000  Uiso   1.00
O779   O     0.16667   0.20489   0.81608   0.00000  Uiso   1.00
O780   O     0.16666   0.12844   0.68393   0.00000  Uiso   1.00
Zn781  Zn    0.16667   0.21771   0.75000   0.00000  Uiso   1.00
Zn782  Zn    0.16667   0.11563   0.75000   0.00000  Uiso   1.00
Cl783  Cl    0.25041   0.16317   0.87565   0.00000  Uiso   1.00
Cl784  Cl    0.08287   0.14974   0.62617   0.00000  Uiso   1.00
O785   O     0.09138   0.16512   0.88097   0.00000  Uiso   1.00
C786   C     0.07812   0.11961   0.87665   0.00000  Uiso   1.00
H787   H     0.04764   0.11865   0.85891   0.00000  Uiso   1.00
H788   H     0.07359   0.10314   0.90987   0.00000  Uiso   1.00
H789   H     0.10024   0.09993   0.85632   0.00000  Uiso   1.00
O790   O     0.23930   0.18327   0.61818   0.00000  Uiso   1.00
C791   C     0.25956   0.14161   0.62213   0.00000  Uiso   1.00
H792   H     0.28901   0.14724   0.64114   0.00000  Uiso   1.00
H793   H     0.26779   0.12763   0.58876   0.00000  Uiso   1.00
H794   H     0.24026   0.11654   0.64089   0.00000  Uiso   1.00
Cl795  Cl    0.03768   0.17663   0.54335   0.00000  Uiso   1.00
Cl796  Cl    0.28849   0.20927   0.95544   0.00000  Uiso   1.00
Cl797  Cl    0.04174   0.06964   0.76309   0.00000  Uiso   1.00
Cl798  Cl    0.28755   0.25211   0.79658   0.00000  Uiso   1.00
Cl799  Cl    0.29002   0.07984   0.71588   0.00000  Uiso   1.00
Cl800  Cl    0.04976   0.24992   0.80319   0.00000  Uiso   1.00
O801   O     0.20697   0.04969   0.81650   0.00000  Uiso   1.00
C802   C     0.24913   0.03725   0.81985   0.00000  Uiso   1.00
H803   H     0.26811   0.06783   0.82822   0.00000  Uiso   1.00
H804   H     0.26187   0.02303   0.78827   0.00000  Uiso   1.00
H805   H     0.25315   0.01278   0.84767   0.00000  Uiso   1.00
O806   O     0.13674   0.28552   0.67693   0.00000  Uiso   1.00
C807   C     0.16542   0.29286   0.64180   0.00000  Uiso   1.00
H808   H     0.15589   0.27137   0.61284   0.00000  Uiso   1.00
H809   H     0.19747   0.28310   0.65188   0.00000  Uiso   1.00
H810   H     0.16563   0.32846   0.63003   0.00000  Uiso   1.00
O811   O     0.12728   0.04848   0.68282   0.00000  Uiso   1.00
C812   C     0.08747   0.03025   0.67187   0.00000  Uiso   1.00
H813   H     0.06598   0.05853   0.66598   0.00000  Uiso   1.00
H814   H     0.07353   0.00858   0.69862   0.00000  Uiso   1.00
H815   H     0.08898   0.01090   0.64005   0.00000  Uiso   1.00
O816   O     0.19830   0.28685   0.82231   0.00000  Uiso   1.00
C817   C     0.17158   0.29362   0.85906   0.00000  Uiso   1.00
H818   H     0.18154   0.27148   0.88703   0.00000  Uiso   1.00
H819   H     0.13871   0.28425   0.85059   0.00000  Uiso   1.00
H820   H     0.17353   0.32894   0.87155   0.00000  Uiso   1.00
C821   C     0.42044   0.16611   0.75555   0.00000  Uiso   1.00
C822   C     0.58027   0.16698   0.75036   0.00000  Uiso   1.00
C823   C     0.42150   0.17149   0.52117   0.00000  Uiso   1.00
C824   C     0.57407   0.19040   0.97841   0.00000  Uiso   1.00
C825   C     0.35404   0.12416   0.75585   0.00000  Uiso   1.00
C826   C     0.64626   0.20425   0.77478   0.00000  Uiso   1.00
C827   C     0.64599   0.12684   0.74491   0.00000  Uiso   1.00
C828   C     0.35596   0.20341   0.77814   0.00000  Uiso   1.00
C829   C     0.62481   0.16691   0.75504   0.00000  Uiso   1.00
C830   C     0.37654   0.16436   0.76446   0.00000  Uiso   1.00
C831   C     0.51970   0.02477   0.78353   0.00000  Uiso   1.00
C832   C     0.48387   0.30910   0.71431   0.00000  Uiso   1.00
C833   C     0.48036   0.02400   0.71629   0.00000  Uiso   1.00
C834   C     0.51641   0.30981   0.78554   0.00000  Uiso   1.00
C835   C     0.49988   0.16677   0.66361   0.00000  Uiso   1.00
C836   C     0.49955   0.16669   0.83634   0.00000  Uiso   1.00
C837   C     0.53767   0.17204   0.90677   0.00000  Uiso   1.00
C838   C     0.46043   0.16442   0.59348   0.00000  Uiso   1.00
C839   C     0.49969   0.16726   0.88400   0.00000  Uiso   1.00
C840   C     0.49883   0.16770   0.61586   0.00000  Uiso   1.00
C841   C     0.46147   0.16687   0.90573   0.00000  Uiso   1.00
C842   C     0.53610   0.17656   0.59378   0.00000  Uiso   1.00
C843   C     0.46093   0.17105   0.95222   0.00000  Uiso   1.00
C844   C     0.53567   0.18082   0.54738   0.00000  Uiso   1.00
C845   C     0.49876   0.17567   0.97633   0.00000  Uiso   1.00
C846   C     0.49776   0.17584   0.52344   0.00000  Uiso   1.00
C847   C     0.53756   0.17937   0.95342   0.00000  Uiso   1.00
C848   C     0.45913   0.17045   0.54649   0.00000  Uiso   1.00
C849   C     0.42300   0.17147   0.97472   0.00000  Uiso   1.00
C850   C     0.57267   0.19056   0.52480   0.00000  Uiso   1.00
H851   H     0.39389   0.17153   0.95611   0.00000  Uiso   1.00
H852   H     0.60111   0.19827   0.54326   0.00000  Uiso   1.00
N853   N     0.50000   0.28573   0.75000   0.00000  Uiso   1.00
N854   N     0.50000   0.04760   0.75000   0.00000  Uiso   1.00
O855   O     0.43892   0.20487   0.75000   0.00000  Uiso   1.00
O856   O     0.56108   0.12846   0.75001   0.00000  Uiso   1.00
O857   O     0.56108   0.20487   0.75001   0.00000  Uiso   1.00
O858   O     0.43892   0.12846   0.75000   0.00000  Uiso   1.00
O859   O     0.49999   0.20489   0.68393   0.00000  Uiso   1.00
O860   O     0.50001   0.12844   0.81608   0.00000  Uiso   1.00
O861   O     0.50001   0.20489   0.81608   0.00000  Uiso   1.00
O862   O     0.49999   0.12844   0.68393   0.00000  Uiso   1.00
Zn863  Zn    0.50000   0.21771   0.75000   0.00000  Uiso   1.00
Zn864  Zn    0.50000   0.11563   0.75000   0.00000  Uiso   1.00
Cl865  Cl    0.58374   0.16317   0.87565   0.00000  Uiso   1.00
Cl866  Cl    0.41620   0.14974   0.62617   0.00000  Uiso   1.00
O867   O     0.42472   0.16512   0.88097   0.00000  Uiso   1.00
C868   C     0.41145   0.11961   0.87665   0.00000  Uiso   1.00
H869   H     0.38097   0.11865   0.85891   0.00000  Uiso   1.00
H870   H     0.40693   0.10314   0.90987   0.00000  Uiso   1.00
H871   H     0.43358   0.09993   0.85632   0.00000  Uiso   1.00
O872   O     0.57263   0.18327   0.61818   0.00000  Uiso   1.00
C873   C     0.59289   0.14161   0.62213   0.00000  Uiso   1.00
H874   H     0.62234   0.14724   0.64114   0.00000  Uiso   1.00
H875   H     0.60113   0.12763   0.58876   0.00000  Uiso   1.00
H876   H     0.57359   0.11654   0.64089   0.00000  Uiso   1.00
Cl877  Cl    0.37101   0.17663   0.54335   0.00000  Uiso   1.00
Cl878  Cl    0.62183   0.20927   0.95544   0.00000  Uiso   1.00
Cl879  Cl    0.37507   0.06964   0.76309   0.00000  Uiso   1.00
Cl880  Cl    0.62088   0.25211   0.79658   0.00000  Uiso   1.00
Cl881  Cl    0.62336   0.07984   0.71588   0.00000  Uiso   1.00
Cl882  Cl    0.38310   0.24992   0.80319   0.00000  Uiso   1.00
O883   O     0.54030   0.04969   0.81650   0.00000  Uiso   1.00
C884   C     0.58246   0.03725   0.81985   0.00000  Uiso   1.00
H885   H     0.60144   0.06783   0.82822   0.00000  Uiso   1.00
H886   H     0.59520   0.02303   0.78827   0.00000  Uiso   1.00
H887   H     0.58648   0.01278   0.84767   0.00000  Uiso   1.00
O888   O     0.47007   0.28552   0.67693   0.00000  Uiso   1.00
C889   C     0.49875   0.29286   0.64180   0.00000  Uiso   1.00
H890   H     0.48922   0.27137   0.61284   0.00000  Uiso   1.00
H891   H     0.53081   0.28310   0.65188   0.00000  Uiso   1.00
H892   H     0.49896   0.32846   0.63003   0.00000  Uiso   1.00
O893   O     0.46061   0.04848   0.68282   0.00000  Uiso   1.00
C894   C     0.42080   0.03025   0.67187   0.00000  Uiso   1.00
H895   H     0.39931   0.05853   0.66598   0.00000  Uiso   1.00
H896   H     0.40686   0.00858   0.69862   0.00000  Uiso   1.00
H897   H     0.42231   0.01090   0.64005   0.00000  Uiso   1.00
O898   O     0.53163   0.28685   0.82231   0.00000  Uiso   1.00
C899   C     0.50491   0.29362   0.85906   0.00000  Uiso   1.00
H900   H     0.51488   0.27148   0.88703   0.00000  Uiso   1.00
H901   H     0.47204   0.28425   0.85059   0.00000  Uiso   1.00
H902   H     0.50686   0.32894   0.87155   0.00000  Uiso   1.00
C903   C     0.75377   0.16611   0.75555   0.00000  Uiso   1.00
C904   C     0.91360   0.16698   0.75036   0.00000  Uiso   1.00
C905   C     0.75484   0.17149   0.52117   0.00000  Uiso   1.00
C906   C     0.90740   0.19040   0.97841   0.00000  Uiso   1.00
C907   C     0.68738   0.12416   0.75585   0.00000  Uiso   1.00
C908   C     0.97960   0.20425   0.77478   0.00000  Uiso   1.00
C909   C     0.97932   0.12684   0.74491   0.00000  Uiso   1.00
C910   C     0.68929   0.20341   0.77814   0.00000  Uiso   1.00
C911   C     0.95814   0.16691   0.75504   0.00000  Uiso   1.00
C912   C     0.70988   0.16436   0.76446   0.00000  Uiso   1.00
C913   C     0.85303   0.02477   0.78353   0.00000  Uiso   1.00
C914   C     0.81720   0.30910   0.71431   0.00000  Uiso   1.00
C915   C     0.81369   0.02400   0.71629   0.00000  Uiso   1.00
C916   C     0.84974   0.30981   0.78554   0.00000  Uiso   1.00
C917   C     0.83322   0.16677   0.66361   0.00000  Uiso   1.00
C918   C     0.83289   0.16669   0.83634   0.00000  Uiso   1.00
C919   C     0.87100   0.17204   0.90677   0.00000  Uiso   1.00
C920   C     0.79377   0.16442   0.59348   0.00000  Uiso   1.00
C921   C     0.83302   0.16726   0.88400   0.00000  Uiso   1.00
C922   C     0.83216   0.16770   0.61586   0.00000  Uiso   1.00
C923   C     0.79481   0.16687   0.90573   0.00000  Uiso   1.00
C924   C     0.86943   0.17656   0.59378   0.00000  Uiso   1.00
C925   C     0.79426   0.17105   0.95222   0.00000  Uiso   1.00
C926   C     0.86900   0.18082   0.54738   0.00000  Uiso   1.00
C927   C     0.83210   0.17567   0.97633   0.00000  Uiso   1.00
C928   C     0.83110   0.17584   0.52344   0.00000  Uiso   1.00
C929   C     0.87089   0.17937   0.95342   0.00000  Uiso   1.00
C930   C     0.79247   0.17045   0.54649   0.00000  Uiso   1.00
C931   C     0.75634   0.17147   0.97472   0.00000  Uiso   1.00
C932   C     0.90600   0.19056   0.52480   0.00000  Uiso   1.00
H933   H     0.72722   0.17153   0.95611   0.00000  Uiso   1.00
H934   H     0.93445   0.19827   0.54326   0.00000  Uiso   1.00
N935   N     0.83333   0.28573   0.75000   0.00000  Uiso   1.00
N936   N     0.83333   0.04760   0.75000   0.00000  Uiso   1.00
O937   O     0.77226   0.20487   0.75000   0.00000  Uiso   1.00
O938   O     0.89441   0.12846   0.75001   0.00000  Uiso   1.00
O939   O     0.89441   0.20487   0.75001   0.00000  Uiso   1.00
O940   O     0.77226   0.12846   0.75000   0.00000  Uiso   1.00
O941   O     0.83333   0.20489   0.68393   0.00000  Uiso   1.00
O942   O     0.83334   0.12844   0.81608   0.00000  Uiso   1.00
O943   O     0.83334   0.20489   0.81608   0.00000  Uiso   1.00
O944   O     0.83333   0.12844   0.68393   0.00000  Uiso   1.00
Zn945  Zn    0.83333   0.21771   0.75000   0.00000  Uiso   1.00
Zn946  Zn    0.83333   0.11563   0.75000   0.00000  Uiso   1.00
Cl947  Cl    0.91708   0.16317   0.87565   0.00000  Uiso   1.00
Cl948  Cl    0.74954   0.14974   0.62617   0.00000  Uiso   1.00
O949   O     0.75805   0.16512   0.88097   0.00000  Uiso   1.00
C950   C     0.74478   0.11961   0.87665   0.00000  Uiso   1.00
H951   H     0.71431   0.11865   0.85891   0.00000  Uiso   1.00
H952   H     0.74026   0.10314   0.90987   0.00000  Uiso   1.00
H953   H     0.76691   0.09993   0.85632   0.00000  Uiso   1.00
O954   O     0.90596   0.18327   0.61818   0.00000  Uiso   1.00
C955   C     0.92623   0.14161   0.62213   0.00000  Uiso   1.00
H956   H     0.95568   0.14724   0.64114   0.00000  Uiso   1.00
H957   H     0.93446   0.12763   0.58876   0.00000  Uiso   1.00
H958   H     0.90693   0.11654   0.64089   0.00000  Uiso   1.00
Cl959  Cl    0.70434   0.17663   0.54335   0.00000  Uiso   1.00
Cl960  Cl    0.95516   0.20927   0.95544   0.00000  Uiso   1.00
Cl961  Cl    0.70840   0.06964   0.76309   0.00000  Uiso   1.00
Cl962  Cl    0.95422   0.25211   0.79658   0.00000  Uiso   1.00
Cl963  Cl    0.95669   0.07984   0.71588   0.00000  Uiso   1.00
Cl964  Cl    0.71643   0.24992   0.80319   0.00000  Uiso   1.00
O965   O     0.87363   0.04969   0.81650   0.00000  Uiso   1.00
C966   C     0.91579   0.03725   0.81985   0.00000  Uiso   1.00
H967   H     0.93478   0.06783   0.82822   0.00000  Uiso   1.00
H968   H     0.92853   0.02303   0.78827   0.00000  Uiso   1.00
H969   H     0.91982   0.01278   0.84767   0.00000  Uiso   1.00
O970   O     0.80340   0.28552   0.67693   0.00000  Uiso   1.00
C971   C     0.83209   0.29286   0.64180   0.00000  Uiso   1.00
H972   H     0.82256   0.27137   0.61284   0.00000  Uiso   1.00
H973   H     0.86414   0.28310   0.65188   0.00000  Uiso   1.00
H974   H     0.83229   0.32846   0.63003   0.00000  Uiso   1.00
O975   O     0.79394   0.04848   0.68282   0.00000  Uiso   1.00
C976   C     0.75414   0.03025   0.67187   0.00000  Uiso   1.00
H977   H     0.73265   0.05853   0.66598   0.00000  Uiso   1.00
H978   H     0.74019   0.00858   0.69862   0.00000  Uiso   1.00
H979   H     0.75565   0.01090   0.64005   0.00000  Uiso   1.00
O980   O     0.86496   0.28685   0.82231   0.00000  Uiso   1.00
C981   C     0.83825   0.29362   0.85906   0.00000  Uiso   1.00
H982   H     0.84821   0.27148   0.88703   0.00000  Uiso   1.00
H983   H     0.80537   0.28425   0.85059   0.00000  Uiso   1.00
H984   H     0.84020   0.32894   0.87155   0.00000  Uiso   1.00
C985   C     0.08711   0.49944   0.75555   0.00000  Uiso   1.00
C986   C     0.24693   0.50031   0.75036   0.00000  Uiso   1.00
C987   C     0.08817   0.50482   0.52117   0.00000  Uiso   1.00
C988   C     0.24074   0.52374   0.97841   0.00000  Uiso   1.00
C989   C     0.02071   0.45750   0.75585   0.00000  Uiso   1.00
C990   C     0.31293   0.53758   0.77478   0.00000  Uiso   1.00
C991   C     0.31266   0.46017   0.74491   0.00000  Uiso   1.00
C992   C     0.02262   0.53674   0.77814   0.00000  Uiso   1.00
C993   C     0.29148   0.50025   0.75504   0.00000  Uiso   1.00
C994   C     0.04321   0.49769   0.76446   0.00000  Uiso   1.00
C995   C     0.18637   0.35810   0.78353   0.00000  Uiso   1.00
C996   C     0.15054   0.64243   0.71431   0.00000  Uiso   1.00
C997   C     0.14702   0.35733   0.71629   0.00000  Uiso   1.00
C998   C     0.18308   0.64314   0.78554   0.00000  Uiso   1.00
C999   C     0.16655   0.50010   0.66361   0.00000  Uiso   1.00
C1000  C     0.16622   0.50002   0.83634   0.00000  Uiso   1.00
C1001  C     0.20434   0.50537   0.90677   0.00000  Uiso   1.00
C1002  C     0.12710   0.49775   0.59348   0.00000  Uiso   1.00
C1003  C     0.16635   0.50059   0.88400   0.00000  Uiso   1.00
C1004  C     0.16549   0.50103   0.61586   0.00000  Uiso   1.00
C1005  C     0.12814   0.50021   0.90573   0.00000  Uiso   1.00
C1006  C     0.20276   0.50989   0.59378   0.00000  Uiso   1.00
C1007  C     0.12759   0.50439   0.95222   0.00000  Uiso   1.00
C1008  C     0.20233   0.51415   0.54738   0.00000  Uiso   1.00
C1009  C     0.16543   0.50900   0.97633   0.00000  Uiso   1.00
C1010  C     0.16443   0.50918   0.52344   0.00000  Uiso   1.00
C1011  C     0.20422   0.51270   0.95342   0.00000  Uiso   1.00
C1012  C     0.12580   0.50379   0.54649   0.00000  Uiso   1.00
C1013  C     0.08967   0.50480   0.97472   0.00000  Uiso   1.00
C1014  C     0.23933   0.52389   0.52480   0.00000  Uiso   1.00
H1015  H     0.06056   0.50486   0.95611   0.00000  Uiso   1.00
H1016  H     0.26778   0.53160   0.54326   0.00000  Uiso   1.00
N1017  N     0.16667   0.61907   0.75000   0.00000  Uiso   1.00
N1018  N     0.16667   0.38093   0.75000   0.00000  Uiso   1.00
O1019  O     0.10559   0.53821   0.75000   0.00000  Uiso   1.00
O1020  O     0.22774   0.46179   0.75001   0.00000  Uiso   1.00
O1021  O     0.22774   0.53821   0.75001   0.00000  Uiso   1.00
O1022  O     0.10559   0.46179   0.75000   0.00000  Uiso   1.00
O1023  O     0.16666   0.53823   0.68393   0.00000  Uiso   1.00
O1024  O     0.16667   0.46177   0.81608   0.00000  Uiso   1.00
O1025  O     0.16667   0.53823   0.81608   0.00000  Uiso   1.00
O1026  O     0.16666   0.46177   0.68393   0.00000  Uiso   1.00
Zn1027 Zn    0.16667   0.55104   0.75000   0.00000  Uiso   1.00
Zn1028 Zn    0.16667   0.44896   0.75000   0.00000  Uiso   1.00
Cl1029 Cl    0.25041   0.49650   0.87565   0.00000  Uiso   1.00
Cl1030 Cl    0.08287   0.48308   0.62617   0.00000  Uiso   1.00
O1031  O     0.09138   0.49846   0.88097   0.00000  Uiso   1.00
C1032  C     0.07812   0.45294   0.87665   0.00000  Uiso   1.00
H1033  H     0.04764   0.45198   0.85891   0.00000  Uiso   1.00
H1034  H     0.07359   0.43647   0.90987   0.00000  Uiso   1.00
H1035  H     0.10024   0.43326   0.85632   0.00000  Uiso   1.00
O1036  O     0.23930   0.51660   0.61818   0.00000  Uiso   1.00
C1037  C     0.25956   0.47494   0.62213   0.00000  Uiso   1.00
H1038  H     0.28901   0.48057   0.64114   0.00000  Uiso   1.00
H1039  H     0.26779   0.46096   0.58876   0.00000  Uiso   1.00
H1040  H     0.24026   0.44987   0.64089   0.00000  Uiso   1.00
Cl1041 Cl    0.03768   0.50997   0.54335   0.00000  Uiso   1.00
Cl1042 Cl    0.28849   0.54260   0.95544   0.00000  Uiso   1.00
Cl1043 Cl    0.04174   0.40297   0.76309   0.00000  Uiso   1.00
Cl1044 Cl    0.28755   0.58545   0.79658   0.00000  Uiso   1.00
Cl1045 Cl    0.29002   0.41317   0.71588   0.00000  Uiso   1.00
Cl1046 Cl    0.04976   0.58325   0.80319   0.00000  Uiso   1.00
O1047  O     0.20697   0.38302   0.81650   0.00000  Uiso   1.00
C1048  C     0.24913   0.37059   0.81985   0.00000  Uiso   1.00
H1049  H     0.26811   0.40116   0.82822   0.00000  Uiso   1.00
H1050  H     0.26187   0.35636   0.78827   0.00000  Uiso   1.00
H1051  H     0.25315   0.34611   0.84767   0.00000  Uiso   1.00
O1052  O     0.13674   0.61885   0.67693   0.00000  Uiso   1.00
C1053  C     0.16542   0.62619   0.64180   0.00000  Uiso   1.00
H1054  H     0.15589   0.60471   0.61284   0.00000  Uiso   1.00
H1055  H     0.19747   0.61644   0.65188   0.00000  Uiso   1.00
H1056  H     0.16563   0.66179   0.63003   0.00000  Uiso   1.00
O1057  O     0.12728   0.38181   0.68282   0.00000  Uiso   1.00
C1058  C     0.08747   0.36358   0.67187   0.00000  Uiso   1.00
H1059  H     0.06598   0.39186   0.66598   0.00000  Uiso   1.00
H1060  H     0.07353   0.34191   0.69862   0.00000  Uiso   1.00
H1061  H     0.08898   0.34423   0.64005   0.00000  Uiso   1.00
O1062  O     0.19830   0.62018   0.82231   0.00000  Uiso   1.00
C1063  C     0.17158   0.62696   0.85906   0.00000  Uiso   1.00
H1064  H     0.18154   0.60481   0.88703   0.00000  Uiso   1.00
H1065  H     0.13871   0.61758   0.85059   0.00000  Uiso   1.00
H1066  H     0.17353   0.66227   0.87155   0.00000  Uiso   1.00
C1067  C     0.42044   0.49944   0.75555   0.00000  Uiso   1.00
C1068  C     0.58027   0.50031   0.75036   0.00000  Uiso   1.00
C1069  C     0.42150   0.50482   0.52117   0.00000  Uiso   1.00
C1070  C     0.57407   0.52374   0.97841   0.00000  Uiso   1.00
C1071  C     0.35404   0.45750   0.75585   0.00000  Uiso   1.00
C1072  C     0.64626   0.53758   0.77478   0.00000  Uiso   1.00
C1073  C     0.64599   0.46017   0.74491   0.00000  Uiso   1.00
C1074  C     0.35596   0.53674   0.77814   0.00000  Uiso   1.00
C1075  C     0.62481   0.50025   0.75504   0.00000  Uiso   1.00
C1076  C     0.37654   0.49769   0.76446   0.00000  Uiso   1.00
C1077  C     0.51970   0.35810   0.78353   0.00000  Uiso   1.00
C1078  C     0.48387   0.64243   0.71431   0.00000  Uiso   1.00
C1079  C     0.48036   0.35733   0.71629   0.00000  Uiso   1.00
C1080  C     0.51641   0.64314   0.78554   0.00000  Uiso   1.00
C1081  C     0.49988   0.50010   0.66361   0.00000  Uiso   1.00
C1082  C     0.49955   0.50002   0.83634   0.00000  Uiso   1.00
C1083  C     0.53767   0.50537   0.90677   0.00000  Uiso   1.00
C1084  C     0.46043   0.49775   0.59348   0.00000  Uiso   1.00
C1085  C     0.49969   0.50059   0.88400   0.00000  Uiso   1.00
C1086  C     0.49883   0.50103   0.61586   0.00000  Uiso   1.00
C1087  C     0.46147   0.50021   0.90573   0.00000  Uiso   1.00
C1088  C     0.53610   0.50989   0.59378   0.00000  Uiso   1.00
C1089  C     0.46093   0.50439   0.95222   0.00000  Uiso   1.00
C1090  C     0.53567   0.51415   0.54738   0.00000  Uiso   1.00
C1091  C     0.49876   0.50900   0.97633   0.00000  Uiso   1.00
C1092  C     0.49776   0.50918   0.52344   0.00000  Uiso   1.00
C1093  C     0.53756   0.51270   0.95342   0.00000  Uiso   1.00
C1094  C     0.45913   0.50379   0.54649   0.00000  Uiso   1.00
C1095  C     0.42300   0.50480   0.97472   0.00000  Uiso   1.00
C1096  C     0.57267   0.52389   0.52480   0.00000  Uiso   1.00
H1097  H     0.39389   0.50486   0.95611   0.00000  Uiso   1.00
H1098  H     0.60111   0.53160   0.54326   0.00000  Uiso   1.00
N1099  N     0.50000   0.61907   0.75000   0.00000  Uiso   1.00
N1100  N     0.50000   0.38093   0.75000   0.00000  Uiso   1.00
O1101  O     0.43892   0.53821   0.75000   0.00000  Uiso   1.00
O1102  O     0.56108   0.46179   0.75001   0.00000  Uiso   1.00
O1103  O     0.56108   0.53821   0.75001   0.00000  Uiso   1.00
O1104  O     0.43892   0.46179   0.75000   0.00000  Uiso   1.00
O1105  O     0.49999   0.53823   0.68393   0.00000  Uiso   1.00
O1106  O     0.50001   0.46177   0.81608   0.00000  Uiso   1.00
O1107  O     0.50001   0.53823   0.81608   0.00000  Uiso   1.00
O1108  O     0.49999   0.46177   0.68393   0.00000  Uiso   1.00
Zn1109 Zn    0.50000   0.55104   0.75000   0.00000  Uiso   1.00
Zn1110 Zn    0.50000   0.44896   0.75000   0.00000  Uiso   1.00
Cl1111 Cl    0.58374   0.49650   0.87565   0.00000  Uiso   1.00
Cl1112 Cl    0.41620   0.48308   0.62617   0.00000  Uiso   1.00
O1113  O     0.42472   0.49846   0.88097   0.00000  Uiso   1.00
C1114  C     0.41145   0.45294   0.87665   0.00000  Uiso   1.00
H1115  H     0.38097   0.45198   0.85891   0.00000  Uiso   1.00
H1116  H     0.40693   0.43647   0.90987   0.00000  Uiso   1.00
H1117  H     0.43358   0.43326   0.85632   0.00000  Uiso   1.00
O1118  O     0.57263   0.51660   0.61818   0.00000  Uiso   1.00
C1119  C     0.59289   0.47494   0.62213   0.00000  Uiso   1.00
H1120  H     0.62234   0.48057   0.64114   0.00000  Uiso   1.00
H1121  H     0.60113   0.46096   0.58876   0.00000  Uiso   1.00
H1122  H     0.57359   0.44987   0.64089   0.00000  Uiso   1.00
Cl1123 Cl    0.37101   0.50997   0.54335   0.00000  Uiso   1.00
Cl1124 Cl    0.62183   0.54260   0.95544   0.00000  Uiso   1.00
Cl1125 Cl    0.37507   0.40297   0.76309   0.00000  Uiso   1.00
Cl1126 Cl    0.62088   0.58545   0.79658   0.00000  Uiso   1.00
Cl1127 Cl    0.62336   0.41317   0.71588   0.00000  Uiso   1.00
Cl1128 Cl    0.38310   0.58325   0.80319   0.00000  Uiso   1.00
O1129  O     0.54030   0.38302   0.81650   0.00000  Uiso   1.00
C1130  C     0.58246   0.37059   0.81985   0.00000  Uiso   1.00
H1131  H     0.60144   0.40116   0.82822   0.00000  Uiso   1.00
H1132  H     0.59520   0.35636   0.78827   0.00000  Uiso   1.00
H1133  H     0.58648   0.34611   0.84767   0.00000  Uiso   1.00
O1134  O     0.47007   0.61885   0.67693   0.00000  Uiso   1.00
C1135  C     0.49875   0.62619   0.64180   0.00000  Uiso   1.00
H1136  H     0.48922   0.60471   0.61284   0.00000  Uiso   1.00
H1137  H     0.53081   0.61644   0.65188   0.00000  Uiso   1.00
H1138  H     0.49896   0.66179   0.63003   0.00000  Uiso   1.00
O1139  O     0.46061   0.38181   0.68282   0.00000  Uiso   1.00
C1140  C     0.42080   0.36358   0.67187   0.00000  Uiso   1.00
H1141  H     0.39931   0.39186   0.66598   0.00000  Uiso   1.00
H1142  H     0.40686   0.34191   0.69862   0.00000  Uiso   1.00
H1143  H     0.42231   0.34423   0.64005   0.00000  Uiso   1.00
O1144  O     0.53163   0.62018   0.82231   0.00000  Uiso   1.00
C1145  C     0.50491   0.62696   0.85906   0.00000  Uiso   1.00
H1146  H     0.51488   0.60481   0.88703   0.00000  Uiso   1.00
H1147  H     0.47204   0.61758   0.85059   0.00000  Uiso   1.00
H1148  H     0.50686   0.66227   0.87155   0.00000  Uiso   1.00
C1149  C     0.75377   0.49944   0.75555   0.00000  Uiso   1.00
C1150  C     0.91360   0.50031   0.75036   0.00000  Uiso   1.00
C1151  C     0.75484   0.50482   0.52117   0.00000  Uiso   1.00
C1152  C     0.90740   0.52374   0.97841   0.00000  Uiso   1.00
C1153  C     0.68738   0.45750   0.75585   0.00000  Uiso   1.00
C1154  C     0.97960   0.53758   0.77478   0.00000  Uiso   1.00
C1155  C     0.97932   0.46017   0.74491   0.00000  Uiso   1.00
C1156  C     0.68929   0.53674   0.77814   0.00000  Uiso   1.00
C1157  C     0.95814   0.50025   0.75504   0.00000  Uiso   1.00
C1158  C     0.70988   0.49769   0.76446   0.00000  Uiso   1.00
C1159  C     0.85303   0.35810   0.78353   0.00000  Uiso   1.00
C1160  C     0.81720   0.64243   0.71431   0.00000  Uiso   1.00
C1161  C     0.81369   0.35733   0.71629   0.00000  Uiso   1.00
C1162  C     0.84974   0.64314   0.78554   0.00000  Uiso   1.00
C1163  C     0.83322   0.50010   0.66361   0.00000  Uiso   1.00
C1164  C     0.83289   0.50002   0.83634   0.00000  Uiso   1.00
C1165  C     0.87100   0.50537   0.90677   0.00000  Uiso   1.00
C1166  C     0.79377   0.49775   0.59348   0.00000  Uiso   1.00
C1167  C     0.83302   0.50059   0.88400   0.00000  Uiso   1.00
C1168  C     0.83216   0.50103   0.61586   0.00000  Uiso   1.00
C1169  C     0.79481   0.50021   0.90573   0.00000  Uiso   1.00
C1170  C     0.86943   0.50989   0.59378   0.00000  Uiso   1.00
C1171  C     0.79426   0.50439   0.95222   0.00000  Uiso   1.00
C1172  C     0.86900   0.51415   0.54738   0.00000  Uiso   1.00
C1173  C     0.83210   0.50900   0.97633   0.00000  Uiso   1.00
C1174  C     0.83110   0.50918   0.52344   0.00000  Uiso   1.00
C1175  C     0.87089   0.51270   0.95342   0.00000  Uiso   1.00
C1176  C     0.79247   0.50379   0.54649   0.00000  Uiso   1.00
C1177  C     0.75634   0.50480   0.97472   0.00000  Uiso   1.00
C1178  C     0.90600   0.52389   0.52480   0.00000  Uiso   1.00
H1179  H     0.72722   0.50486   0.95611   0.00000  Uiso   1.00
H1180  H     0.93445   0.53160   0.54326   0.00000  Uiso   1.00
N1181  N     0.83333   0.61907   0.75000   0.00000  Uiso   1.00
N1182  N     0.83333   0.38093   0.75000   0.00000  Uiso   1.00
O1183  O     0.77226   0.53821   0.75000   0.00000  Uiso   1.00
O1184  O     0.89441   0.46179   0.75001   0.00000  Uiso   1.00
O1185  O     0.89441   0.53821   0.75001   0.00000  Uiso   1.00
O1186  O     0.77226   0.46179   0.75000   0.00000  Uiso   1.00
O1187  O     0.83333   0.53823   0.68393   0.00000  Uiso   1.00
O1188  O     0.83334   0.46177   0.81608   0.00000  Uiso   1.00
O1189  O     0.83334   0.53823   0.81608   0.00000  Uiso   1.00
O1190  O     0.83333   0.46177   0.68393   0.00000  Uiso   1.00
Zn1191 Zn    0.83333   0.55104   0.75000   0.00000  Uiso   1.00
Zn1192 Zn    0.83333   0.44896   0.75000   0.00000  Uiso   1.00
Cl1193 Cl    0.91708   0.49650   0.87565   0.00000  Uiso   1.00
Cl1194 Cl    0.74954   0.48308   0.62617   0.00000  Uiso   1.00
O1195  O     0.75805   0.49846   0.88097   0.00000  Uiso   1.00
C1196  C     0.74478   0.45294   0.87665   0.00000  Uiso   1.00
H1197  H     0.71431   0.45198   0.85891   0.00000  Uiso   1.00
H1198  H     0.74026   0.43647   0.90987   0.00000  Uiso   1.00
H1199  H     0.76691   0.43326   0.85632   0.00000  Uiso   1.00
O1200  O     0.90596   0.51660   0.61818   0.00000  Uiso   1.00
C1201  C     0.92623   0.47494   0.62213   0.00000  Uiso   1.00
H1202  H     0.95568   0.48057   0.64114   0.00000  Uiso   1.00
H1203  H     0.93446   0.46096   0.58876   0.00000  Uiso   1.00
H1204  H     0.90693   0.44987   0.64089   0.00000  Uiso   1.00
Cl1205 Cl    0.70434   0.50997   0.54335   0.00000  Uiso   1.00
Cl1206 Cl    0.95516   0.54260   0.95544   0.00000  Uiso   1.00
Cl1207 Cl    0.70840   0.40297   0.76309   0.00000  Uiso   1.00
Cl1208 Cl    0.95422   0.58545   0.79658   0.00000  Uiso   1.00
Cl1209 Cl    0.95669   0.41317   0.71588   0.00000  Uiso   1.00
Cl1210 Cl    0.71643   0.58325   0.80319   0.00000  Uiso   1.00
O1211  O     0.87363   0.38302   0.81650   0.00000  Uiso   1.00
C1212  C     0.91579   0.37059   0.81985   0.00000  Uiso   1.00
H1213  H     0.93478   0.40116   0.82822   0.00000  Uiso   1.00
H1214  H     0.92853   0.35636   0.78827   0.00000  Uiso   1.00
H1215  H     0.91982   0.34611   0.84767   0.00000  Uiso   1.00
O1216  O     0.80340   0.61885   0.67693   0.00000  Uiso   1.00
C1217  C     0.83209   0.62619   0.64180   0.00000  Uiso   1.00
H1218  H     0.82256   0.60471   0.61284   0.00000  Uiso   1.00
H1219  H     0.86414   0.61644   0.65188   0.00000  Uiso   1.00
H1220  H     0.83229   0.66179   0.63003   0.00000  Uiso   1.00
O1221  O     0.79394   0.38181   0.68282   0.00000  Uiso   1.00
C1222  C     0.75414   0.36358   0.67187   0.00000  Uiso   1.00
H1223  H     0.73265   0.39186   0.66598   0.00000  Uiso   1.00
H1224  H     0.74019   0.34191   0.69862   0.00000  Uiso   1.00
H1225  H     0.75565   0.34423   0.64005   0.00000  Uiso   1.00
O1226  O     0.86496   0.62018   0.82231   0.00000  Uiso   1.00
C1227  C     0.83825   0.62696   0.85906   0.00000  Uiso   1.00
H1228  H     0.84821   0.60481   0.88703   0.00000  Uiso   1.00
H1229  H     0.80537   0.61758   0.85059   0.00000  Uiso   1.00
H1230  H     0.84020   0.66227   0.87155   0.00000  Uiso   1.00
C1231  C     0.08711   0.83277   0.75555   0.00000  Uiso   1.00
C1232  C     0.24693   0.83365   0.75036   0.00000  Uiso   1.00
C1233  C     0.08817   0.83816   0.52117   0.00000  Uiso   1.00
C1234  C     0.24074   0.85707   0.97841   0.00000  Uiso   1.00
C1235  C     0.02071   0.79083   0.75585   0.00000  Uiso   1.00
C1236  C     0.31293   0.87091   0.77478   0.00000  Uiso   1.00
C1237  C     0.31266   0.79350   0.74491   0.00000  Uiso   1.00
C1238  C     0.02262   0.87008   0.77814   0.00000  Uiso   1.00
C1239  C     0.29148   0.83358   0.75504   0.00000  Uiso   1.00
C1240  C     0.04321   0.83103   0.76446   0.00000  Uiso   1.00
C1241  C     0.18637   0.69144   0.78353   0.00000  Uiso   1.00
C1242  C     0.15054   0.97576   0.71431   0.00000  Uiso   1.00
C1243  C     0.14702   0.69067   0.71629   0.00000  Uiso   1.00
C1244  C     0.18308   0.97648   0.78554   0.00000  Uiso   1.00
C1245  C     0.16655   0.83343   0.66361   0.00000  Uiso   1.00
C1246  C     0.16622   0.83336   0.83634   0.00000  Uiso   1.00
C1247  C     0.20434   0.83870   0.90677   0.00000  Uiso   1.00
C1248  C     0.12710   0.83109   0.59348   0.00000  Uiso   1.00
C1249  C     0.16635   0.83393   0.88400   0.00000  Uiso   1.00
C1250  C     0.16549   0.83436   0.61586   0.00000  Uiso   1.00
C1251  C     0.12814   0.83354   0.90573   0.00000  Uiso   1.00
C1252  C     0.20276   0.84323   0.59378   0.00000  Uiso   1.00
C1253  C     0.12759   0.83772   0.95222   0.00000  Uiso   1.00
C1254  C     0.20233   0.84748   0.54738   0.00000  Uiso   1.00
C1255  C     0.16543   0.84233   0.97633   0.00000  Uiso   1.00
C1256  C     0.16443   0.84251   0.52344   0.00000  Uiso   1.00
C1257  C     0.20422   0.84604   0.95342   0.00000  Uiso   1.00
C1258  C     0.12580   0.83712   0.54649   0.00000  Uiso   1.00
C1259  C     0.08967   0.83814   0.97472   0.00000  Uiso   1.00
C1260  C     0.23933   0.85723   0.52480   0.00000  Uiso   1.00
H1261  H     0.06056   0.83819   0.95611   0.00000  Uiso   1.00
H1262  H     0.26778   0.86494   0.54326   0.00000  Uiso   1.00
N1263  N     0.16667   0.95240   0.75000   0.00000  Uiso   1.00
N1264  N     0.16667   0.71427   0.75000   0.00000  Uiso   1.00
O1265  O     0.10559   0.87154   0.75000   0.00000  Uiso   1.00
O1266  O     0.22774   0.79513   0.75001   0.00000  Uiso   1.00
O1267  O     0.22774   0.87154   0.75001   0.00000  Uiso   1.00
O1268  O     0.10559   0.79513   0.75000   0.00000  Uiso   1.00
O1269  O     0.16666   0.87156   0.68393   0.00000  Uiso   1.00
O1270  O     0.16667   0.79511   0.81608   0.00000  Uiso   1.00
O1271  O     0.16667   0.87156   0.81608   0.00000  Uiso   1.00
O1272  O     0.16666   0.79511   0.68393   0.00000  Uiso   1.00
Zn1273 Zn    0.16667   0.88437   0.75000   0.00000  Uiso   1.00
Zn1274 Zn    0.16667   0.78229   0.75000   0.00000  Uiso   1.00
Cl1275 Cl    0.25041   0.82983   0.87565   0.00000  Uiso   1.00
Cl1276 Cl    0.08287   0.81641   0.62617   0.00000  Uiso   1.00
O1277  O     0.09138   0.83179   0.88097   0.00000  Uiso   1.00
C1278  C     0.07812   0.78627   0.87665   0.00000  Uiso   1.00
H1279  H     0.04764   0.78532   0.85891   0.00000  Uiso   1.00
H1280  H     0.07359   0.76981   0.90987   0.00000  Uiso   1.00
H1281  H     0.10024   0.76660   0.85632   0.00000  Uiso   1.00
O1282  O     0.23930   0.84993   0.61818   0.00000  Uiso   1.00
C1283  C     0.25956   0.80827   0.62213   0.00000  Uiso   1.00
H1284  H     0.28901   0.81391   0.64114   0.00000  Uiso   1.00
H1285  H     0.26779   0.79430   0.58876   0.00000  Uiso   1.00
H1286  H     0.24026   0.78320   0.64089   0.00000  Uiso   1.00
Cl1287 Cl    0.03768   0.84330   0.54335   0.00000  Uiso   1.00
Cl1288 Cl    0.28849   0.87593   0.95544   0.00000  Uiso   1.00
Cl1289 Cl    0.04174   0.73630   0.76309   0.00000  Uiso   1.00
Cl1290 Cl    0.28755   0.91878   0.79658   0.00000  Uiso   1.00
Cl1291 Cl    0.29002   0.74650   0.71588   0.00000  Uiso   1.00
Cl1292 Cl    0.04976   0.91658   0.80319   0.00000  Uiso   1.00
O1293  O     0.20697   0.71635   0.81650   0.00000  Uiso   1.00
C1294  C     0.24913   0.70392   0.81985   0.00000  Uiso   1.00
H1295  H     0.26811   0.73449   0.82822   0.00000  Uiso   1.00
H1296  H     0.26187   0.68969   0.78827   0.00000  Uiso   1.00
H1297  H     0.25315   0.67944   0.84767   0.00000  Uiso   1.00
O1298  O     0.13674   0.95218   0.67693   0.00000  Uiso   1.00
C1299  C     0.16542   0.95952   0.64180   0.00000  Uiso   1.00
H1300  H     0.15589   0.93804   0.61284   0.00000  Uiso   1.00
H1301  H     0.19747   0.94977   0.65188   0.00000  Uiso   1.00
H1302  H     0.16563   0.99513   0.63003   0.00000  Uiso   1.00
O1303  O     0.12728   0.71515   0.68282   0.00000  Uiso   1.00
C1304  C     0.08747   0.69691   0.67187   0.00000  Uiso   1.00
H1305  H     0.06598   0.72519   0.66598   0.00000  Uiso   1.00
H1306  H     0.07353   0.67525   0.69862   0.00000  Uiso   1.00
H1307  H     0.08898   0.67756   0.64005   0.00000  Uiso   1.00
O1308  O     0.19830   0.95352   0.82231   0.00000  Uiso   1.00
C1309  C     0.17158   0.96029   0.85906   0.00000  Uiso   1.00
H1310  H     0.18154   0.93815   0.88703   0.00000  Uiso   1.00
H1311  H     0.13871   0.95091   0.85059   0.00000  Uiso   1.00
H1312  H     0.17353   0.99560   0.87155   0.00000  Uiso   1.00
C1313  C     0.42044   0.83277   0.75555   0.00000  Uiso   1.00
C1314  C     0.58027   0.83365   0.75036   0.00000  Uiso   1.00
C1315  C     0.42150   0.83816   0.52117   0.00000  Uiso   1.00
C1316  C     0.57407   0.85707   0.97841   0.00000  Uiso   1.00
C1317  C     0.35404   0.79083   0.75585   0.00000  Uiso   1.00
C1318  C     0.64626   0.87091   0.77478   0.00000  Uiso   1.00
C1319  C     0.64599   0.79350   0.74491   0.00000  Uiso   1.00
C1320  C     0.35596   0.87008   0.77814   0.00000  Uiso   1.00
C1321  C     0.62481   0.83358   0.75504   0.00000  Uiso   1.00
C1322  C     0.37654   0.83103   0.76446   0.00000  Uiso   1.00
C1323  C     0.51970   0.69144   0.78353   0.00000  Uiso   1.00
C1324  C     0.48387   0.97576   0.71431   0.00000  Uiso   1.00
C1325  C     0.48036   0.69067   0.71629   0.00000  Uiso   1.00
C1326  C     0.51641   0.97648   0.78554   0.00000  Uiso   1.00
C1327  C     0.49988   0.83343   0.66361   0.00000  Uiso   1.00
C1328  C     0.49955   0.83336   0.83634   0.00000  Uiso   1.00
C1329  C     0.53767   0.83870   0.90677   0.00000  Uiso   1.00
C1330  C     0.46043   0.83109   0.59348   0.00000  Uiso   1.00
C1331  C     0.49969   0.83393   0.88400   0.00000  Uiso   1.00
C1332  C     0.49883   0.83436   0.61586   0.00000  Uiso   1.00
C1333  C     0.46147   0.83354   0.90573   0.00000  Uiso   1.00
C1334  C     0.53610   0.84323   0.59378   0.00000  Uiso   1.00
C1335  C     0.46093   0.83772   0.95222   0.00000  Uiso   1.00
C1336  C     0.53567   0.84748   0.54738   0.00000  Uiso   1.00
C1337  C     0.49876   0.84233   0.97633   0.00000  Uiso   1.00
C1338  C     0.49776   0.84251   0.52344   0.00000  Uiso   1.00
C1339  C     0.53756   0.84604   0.95342   0.00000  Uiso   1.00
C1340  C     0.45913   0.83712   0.54649   0.00000  Uiso   1.00
C1341  C     0.42300   0.83814   0.97472   0.00000  Uiso   1.00
C1342  C     0.57267   0.85723   0.52480   0.00000  Uiso   1.00
H1343  H     0.39389   0.83819   0.95611   0.00000  Uiso   1.00
H1344  H     0.60111   0.86494   0.54326   0.00000  Uiso   1.00
N1345  N     0.50000   0.95240   0.75000   0.00000  Uiso   1.00
N1346  N     0.50000   0.71427   0.75000   0.00000  Uiso   1.00
O1347  O     0.43892   0.87154   0.75000   0.00000  Uiso   1.00
O1348  O     0.56108   0.79513   0.75001   0.00000  Uiso   1.00
O1349  O     0.56108   0.87154   0.75001   0.00000  Uiso   1.00
O1350  O     0.43892   0.79513   0.75000   0.00000  Uiso   1.00
O1351  O     0.49999   0.87156   0.68393   0.00000  Uiso   1.00
O1352  O     0.50001   0.79511   0.81608   0.00000  Uiso   1.00
O1353  O     0.50001   0.87156   0.81608   0.00000  Uiso   1.00
O1354  O     0.49999   0.79511   0.68393   0.00000  Uiso   1.00
Zn1355 Zn    0.50000   0.88437   0.75000   0.00000  Uiso   1.00
Zn1356 Zn    0.50000   0.78229   0.75000   0.00000  Uiso   1.00
Cl1357 Cl    0.58374   0.82983   0.87565   0.00000  Uiso   1.00
Cl1358 Cl    0.41620   0.81641   0.62617   0.00000  Uiso   1.00
O1359  O     0.42472   0.83179   0.88097   0.00000  Uiso   1.00
C1360  C     0.41145   0.78627   0.87665   0.00000  Uiso   1.00
H1361  H     0.38097   0.78532   0.85891   0.00000  Uiso   1.00
H1362  H     0.40693   0.76981   0.90987   0.00000  Uiso   1.00
H1363  H     0.43358   0.76660   0.85632   0.00000  Uiso   1.00
O1364  O     0.57263   0.84993   0.61818   0.00000  Uiso   1.00
C1365  C     0.59289   0.80827   0.62213   0.00000  Uiso   1.00
H1366  H     0.62234   0.81391   0.64114   0.00000  Uiso   1.00
H1367  H     0.60113   0.79430   0.58876   0.00000  Uiso   1.00
H1368  H     0.57359   0.78320   0.64089   0.00000  Uiso   1.00
Cl1369 Cl    0.37101   0.84330   0.54335   0.00000  Uiso   1.00
Cl1370 Cl    0.62183   0.87593   0.95544   0.00000  Uiso   1.00
Cl1371 Cl    0.37507   0.73630   0.76309   0.00000  Uiso   1.00
Cl1372 Cl    0.62088   0.91878   0.79658   0.00000  Uiso   1.00
Cl1373 Cl    0.62336   0.74650   0.71588   0.00000  Uiso   1.00
Cl1374 Cl    0.38310   0.91658   0.80319   0.00000  Uiso   1.00
O1375  O     0.54030   0.71635   0.81650   0.00000  Uiso   1.00
C1376  C     0.58246   0.70392   0.81985   0.00000  Uiso   1.00
H1377  H     0.60144   0.73449   0.82822   0.00000  Uiso   1.00
H1378  H     0.59520   0.68969   0.78827   0.00000  Uiso   1.00
H1379  H     0.58648   0.67944   0.84767   0.00000  Uiso   1.00
O1380  O     0.47007   0.95218   0.67693   0.00000  Uiso   1.00
C1381  C     0.49875   0.95952   0.64180   0.00000  Uiso   1.00
H1382  H     0.48922   0.93804   0.61284   0.00000  Uiso   1.00
H1383  H     0.53081   0.94977   0.65188   0.00000  Uiso   1.00
H1384  H     0.49896   0.99513   0.63003   0.00000  Uiso   1.00
O1385  O     0.46061   0.71515   0.68282   0.00000  Uiso   1.00
C1386  C     0.42080   0.69691   0.67187   0.00000  Uiso   1.00
H1387  H     0.39931   0.72519   0.66598   0.00000  Uiso   1.00
H1388  H     0.40686   0.67525   0.69862   0.00000  Uiso   1.00
H1389  H     0.42231   0.67756   0.64005   0.00000  Uiso   1.00
O1390  O     0.53163   0.95352   0.82231   0.00000  Uiso   1.00
C1391  C     0.50491   0.96029   0.85906   0.00000  Uiso   1.00
H1392  H     0.51488   0.93815   0.88703   0.00000  Uiso   1.00
H1393  H     0.47204   0.95091   0.85059   0.00000  Uiso   1.00
H1394  H     0.50686   0.99560   0.87155   0.00000  Uiso   1.00
C1395  C     0.75377   0.83277   0.75555   0.00000  Uiso   1.00
C1396  C     0.91360   0.83365   0.75036   0.00000  Uiso   1.00
C1397  C     0.75484   0.83816   0.52117   0.00000  Uiso   1.00
C1398  C     0.90740   0.85707   0.97841   0.00000  Uiso   1.00
C1399  C     0.68738   0.79083   0.75585   0.00000  Uiso   1.00
C1400  C     0.97960   0.87091   0.77478   0.00000  Uiso   1.00
C1401  C     0.97932   0.79350   0.74491   0.00000  Uiso   1.00
C1402  C     0.68929   0.87008   0.77814   0.00000  Uiso   1.00
C1403  C     0.95814   0.83358   0.75504   0.00000  Uiso   1.00
C1404  C     0.70988   0.83103   0.76446   0.00000  Uiso   1.00
C1405  C     0.85303   0.69144   0.78353   0.00000  Uiso   1.00
C1406  C     0.81720   0.97576   0.71431   0.00000  Uiso   1.00
C1407  C     0.81369   0.69067   0.71629   0.00000  Uiso   1.00
C1408  C     0.84974   0.97648   0.78554   0.00000  Uiso   1.00
C1409  C     0.83322   0.83343   0.66361   0.00000  Uiso   1.00
C1410  C     0.83289   0.83336   0.83634   0.00000  Uiso   1.00
C1411  C     0.87100   0.83870   0.90677   0.00000  Uiso   1.00
C1412  C     0.79377   0.83109   0.59348   0.00000  Uiso   1.00
C1413  C     0.83302   0.83393   0.88400   0.00000  Uiso   1.00
C1414  C     0.83216   0.83436   0.61586   0.00000  Uiso   1.00
C1415  C     0.79481   0.83354   0.90573   0.00000  Uiso   1.00
C1416  C     0.86943   0.84323   0.59378   0.00000  Uiso   1.00
C1417  C     0.79426   0.83772   0.95222   0.00000  Uiso   1.00
C1418  C     0.86900   0.84748   0.54738   0.00000  Uiso   1.00
C1419  C     0.83210   0.84233   0.97633   0.00000  Uiso   1.00
C1420  C     0.83110   0.84251   0.52344   0.00000  Uiso   1.00
C1421  C     0.87089   0.84604   0.95342   0.00000  Uiso   1.00
C1422  C     0.79247   0.83712   0.54649   0.00000  Uiso   1.00
C1423  C     0.75634   0.83814   0.97472   0.00000  Uiso   1.00
C1424  C     0.90600   0.85723   0.52480   0.00000  Uiso   1.00
H1425  H     0.72722   0.83819   0.95611   0.00000  Uiso   1.00
H1426  H     0.93445   0.86494   0.54326   0.00000  Uiso   1.00
N1427  N     0.83333   0.95240   0.75000   0.00000  Uiso   1.00
N1428  N     0.83333   0.71427   0.75000   0.00000  Uiso   1.00
O1429  O     0.77226   0.87154   0.75000   0.00000  Uiso   1.00
O1430  O     0.89441   0.79513   0.75001   0.00000  Uiso   1.00
O1431  O     0.89441   0.87154   0.75001   0.00000  Uiso   1.00
O1432  O     0.77226   0.79513   0.75000   0.00000  Uiso   1.00
O1433  O     0.83333   0.87156   0.68393   0.00000  Uiso   1.00
O1434  O     0.83334   0.79511   0.81608   0.00000  Uiso   1.00
O1435  O     0.83334   0.87156   0.81608   0.00000  Uiso   1.00
O1436  O     0.83333   0.79511   0.68393   0.00000  Uiso   1.00
Zn1437 Zn    0.83333   0.88437   0.75000   0.00000  Uiso   1.00
Zn1438 Zn    0.83333   0.78229   0.75000   0.00000  Uiso   1.00
Cl1439 Cl    0.91708   0.82983   0.87565   0.00000  Uiso   1.00
Cl1440 Cl    0.74954   0.81641   0.62617   0.00000  Uiso   1.00
O1441  O     0.75805   0.83179   0.88097   0.00000  Uiso   1.00
C1442  C     0.74478   0.78627   0.87665   0.00000  Uiso   1.00
H1443  H     0.71431   0.78532   0.85891   0.00000  Uiso   1.00
H1444  H     0.74026   0.76981   0.90987   0.00000  Uiso   1.00
H1445  H     0.76691   0.76660   0.85632   0.00000  Uiso   1.00
O1446  O     0.90596   0.84993   0.61818   0.00000  Uiso   1.00
C1447  C     0.92623   0.80827   0.62213   0.00000  Uiso   1.00
H1448  H     0.95568   0.81391   0.64114   0.00000  Uiso   1.00
H1449  H     0.93446   0.79430   0.58876   0.00000  Uiso   1.00
H1450  H     0.90693   0.78320   0.64089   0.00000  Uiso   1.00
Cl1451 Cl    0.70434   0.84330   0.54335   0.00000  Uiso   1.00
Cl1452 Cl    0.95516   0.87593   0.95544   0.00000  Uiso   1.00
Cl1453 Cl    0.70840   0.73630   0.76309   0.00000  Uiso   1.00
Cl1454 Cl    0.95422   0.91878   0.79658   0.00000  Uiso   1.00
Cl1455 Cl    0.95669   0.74650   0.71588   0.00000  Uiso   1.00
Cl1456 Cl    0.71643   0.91658   0.80319   0.00000  Uiso   1.00
O1457  O     0.87363   0.71635   0.81650   0.00000  Uiso   1.00
C1458  C     0.91579   0.70392   0.81985   0.00000  Uiso   1.00
H1459  H     0.93478   0.73449   0.82822   0.00000  Uiso   1.00
H1460  H     0.92853   0.68969   0.78827   0.00000  Uiso   1.00
H1461  H     0.91982   0.67944   0.84767   0.00000  Uiso   1.00
O1462  O     0.80340   0.95218   0.67693   0.00000  Uiso   1.00
C1463  C     0.83209   0.95952   0.64180   0.00000  Uiso   1.00
H1464  H     0.82256   0.93804   0.61284   0.00000  Uiso   1.00
H1465  H     0.86414   0.94977   0.65188   0.00000  Uiso   1.00
H1466  H     0.83229   0.99513   0.63003   0.00000  Uiso   1.00
O1467  O     0.79394   0.71515   0.68282   0.00000  Uiso   1.00
C1468  C     0.75414   0.69691   0.67187   0.00000  Uiso   1.00
H1469  H     0.73265   0.72519   0.66598   0.00000  Uiso   1.00
H1470  H     0.74019   0.67525   0.69862   0.00000  Uiso   1.00
H1471  H     0.75565   0.67756   0.64005   0.00000  Uiso   1.00
O1472  O     0.86496   0.95352   0.82231   0.00000  Uiso   1.00
C1473  C     0.83825   0.96029   0.85906   0.00000  Uiso   1.00
H1474  H     0.84821   0.93815   0.88703   0.00000  Uiso   1.00
H1475  H     0.80537   0.95091   0.85059   0.00000  Uiso   1.00
H1476  H     0.84020   0.99560   0.87155   0.00000  Uiso   1.00
loop_
_geom_bond_atom_site_label_1
_geom_bond_atom_site_label_2
_geom_bond_distance
_geom_bond_site_symmetry_2
_ccdc_geom_bond_type
C1     O38     1.284   .     A
C1     O35     1.294   .     A
C1     C10     1.437   .     S
C2     O36     1.286   .     A
C2     C9      1.437   .     S
C2     O37     1.291   .     A
C3     C28     1.421   .     A
C3     Cl57    1.766   .     S
C3     C767    1.385   1_554 S
C4     C27     1.418   .     A
C4     Cl58    1.766   .     S
C4     C768    1.383   .     S
C5     Cl59    1.775   .     S
C5     C10     1.404   .     A
C5     C171    1.371   1_455 S
C6     C9      1.417   .     A
C6     Cl60    1.774   .     S
C6     C90     1.386   .     S
C7     Cl61    1.779   .     S
C7     C9      1.413   .     A
C7     C87     1.371   .     S
C8     C10     1.405   .     A
C8     Cl62    1.777   .     S
C8     C170    1.386   1_455 S
C11    O63     1.385   .     S
C11    N34     1.365   .     A
C11    C506    1.433   1_545 S
C12    O68     1.380   .     S
C12    N33     1.372   .     A
C12    C259    1.436   .     S
C13    O73     1.389   .     S
C13    N34     1.367   .     A
C13    C504    1.436   1_545 S
C14    N33     1.373   .     A
C14    O78     1.380   .     S
C14    C257    1.433   .     S
C15    C20     1.423   .     S
C15    O39     1.281   .     A
C15    O42     1.286   .     A
C16    O40     1.284   .     A
C16    C19     1.420   .     S
C16    O41     1.282   .     A
C17    Cl45    1.777   .     S
C17    C27     1.406   .     A
C17    C19     1.397   .     A
C18    Cl46    1.776   .     S
C18    C28     1.411   .     A
C18    C20     1.400   .     A
C19    C21     1.392   .     A
C20    C22     1.391   .     A
C21    C23     1.391   .     A
C21    O47     1.388   .     S
C22    O52     1.387   .     S
C22    C24     1.388   .     A
C23    C29     1.395   .     A
C23    C25     1.412   .     A
C24    C26     1.412   .     A
C24    C30     1.396   .     A
C25    C27     1.428   .     A
C25    C764    1.404   .     S
C26    C28     1.429   .     A
C26    C763    1.404   1_554 S
C29    H31     1.084   .     S
C29    C741    1.385   .     S
C30    H32     1.084   .     S
C30    C742    1.383   1_554 S
N33    Zn43    2.015   .     S
N34    Zn44    2.015   .     S
O35    Zn43    1.992   .     S
O36    Zn44    1.992   .     S
O37    Zn43    2.006   .     S
O38    Zn44    2.006   .     S
O39    Zn43    2.005   .     S
O40    Zn44    2.005   .     S
O41    Zn43    2.005   .     S
O42    Zn44    2.005   .     S
O47    C48     1.412   .     S
C48    H51     1.111   .     S
C48    H50     1.113   .     S
C48    H49     1.109   .     S
O52    C53     1.410   .     S
C53    H54     1.109   .     S
C53    H55     1.113   .     S
C53    H56     1.112   .     S
O63    C64     1.414   .     S
C64    H67     1.110   .     S
C64    H66     1.115   .     S
C64    H65     1.109   .     S
O68    C69     1.414   .     S
C69    H71     1.114   .     S
C69    H72     1.111   .     S
C69    H70     1.109   .     S
O73    C74     1.415   .     S
C74    H76     1.115   .     S
C74    H77     1.109   .     S
C74    H75     1.109   .     S
O78    C79     1.413   .     S
C79    H80     1.109   .     S
C79    H81     1.114   .     S
C79    H82     1.110   .     S
C83    O120    1.284   .     A
C83    O117    1.294   .     A
C83    C92     1.437   .     S
C84    O118    1.286   .     A
C84    C91     1.437   .     S
C84    O119    1.291   .     A
C85    C110    1.421   .     A
C85    Cl139   1.766   .     S
C85    C849    1.385   1_554 S
C86    C109    1.418   .     A
C86    Cl140   1.766   .     S
C86    C850    1.383   .     S
C87    Cl141   1.775   .     S
C87    C92     1.404   .     A
C88    C91     1.417   .     A
C88    Cl142   1.774   .     S
C88    C172    1.386   .     S
C89    Cl143   1.779   .     S
C89    C91     1.413   .     A
C89    C169    1.371   .     S
C90    C92     1.405   .     A
C90    Cl144   1.777   .     S
C93    O145    1.385   .     S
C93    N116    1.365   .     A
C93    C588    1.433   1_545 S
C94    O150    1.380   .     S
C94    N115    1.372   .     A
C94    C341    1.436   .     S
C95    O155    1.389   .     S
C95    N116    1.367   .     A
C95    C586    1.436   1_545 S
C96    N115    1.373   .     A
C96    O160    1.380   .     S
C96    C339    1.433   .     S
C97    C102    1.423   .     S
C97    O121    1.281   .     A
C97    O124    1.286   .     A
C98    O122    1.284   .     A
C98    C101    1.420   .     S
C98    O123    1.282   .     A
C99    Cl127   1.777   .     S
C99    C109    1.406   .     A
C99    C101    1.397   .     A
C100   Cl128   1.776   .     S
C100   C110    1.411   .     A
C100   C102    1.400   .     A
C101   C103    1.392   .     A
C102   C104    1.391   .     A
C103   C105    1.391   .     A
C103   O129    1.388   .     S
C104   O134    1.387   .     S
C104   C106    1.388   .     A
C105   C111    1.395   .     A
C105   C107    1.412   .     A
C106   C108    1.412   .     A
C106   C112    1.396   .     A
C107   C109    1.428   .     A
C107   C846    1.404   .     S
C108   C110    1.429   .     A
C108   C845    1.404   1_554 S
C111   H113    1.084   .     S
C111   C823    1.385   .     S
C112   H114    1.084   .     S
C112   C824    1.383   1_554 S
N115   Zn125   2.015   .     S
N116   Zn126   2.015   .     S
O117   Zn125   1.992   .     S
O118   Zn126   1.992   .     S
O119   Zn125   2.006   .     S
O120   Zn126   2.006   .     S
O121   Zn125   2.005   .     S
O122   Zn126   2.005   .     S
O123   Zn125   2.005   .     S
O124   Zn126   2.005   .     S
O129   C130    1.412   .     S
C130   H133    1.111   .     S
C130   H132    1.113   .     S
C130   H131    1.109   .     S
O134   C135    1.410   .     S
C135   H136    1.109   .     S
C135   H137    1.113   .     S
C135   H138    1.112   .     S
O145   C146    1.414   .     S
C146   H149    1.110   .     S
C146   H148    1.115   .     S
C146   H147    1.109   .     S
O150   C151    1.414   .     S
C151   H153    1.114   .     S
C151   H154    1.111   .     S
C151   H152    1.109   .     S
O155   C156    1.415   .     S
C156   H158    1.115   .     S
C156   H159    1.109   .     S
C156   H157    1.109   .     S
O160   C161    1.413   .     S
C161   H162    1.109   .     S
C161   H163    1.114   .     S
C161   H164    1.110   .     S
C165   O202    1.284   .     A
C165   O199    1.294   .     A
C165   C174    1.437   .     S
C166   O200    1.286   .     A
C166   C173    1.437   .     S
C166   O201    1.291   .     A
C167   C192    1.421   .     A
C167   Cl221   1.766   .     S
C167   C931    1.385   1_554 S
C168   C191    1.418   .     A
C168   Cl222   1.766   .     S
C168   C932    1.383   .     S
C169   Cl223   1.775   .     S
C169   C174    1.404   .     A
C170   C173    1.417   .     A
C170   Cl224   1.774   .     S
C170   C8      1.386   1_655 S
C171   Cl225   1.779   .     S
C171   C173    1.413   .     A
C171   C5      1.371   1_655 S
C172   C174    1.405   .     A
C172   Cl226   1.777   .     S
C175   O227    1.385   .     S
C175   N198    1.365   .     A
C175   C670    1.433   1_545 S
C176   O232    1.380   .     S
C176   N197    1.372   .     A
C176   C423    1.436   .     S
C177   O237    1.389   .     S
C177   N198    1.367   .     A
C177   C668    1.436   1_545 S
C178   N197    1.373   .     A
C178   O242    1.380   .     S
C178   C421    1.433   .     S
C179   C184    1.423   .     S
C179   O203    1.281   .     A
C179   O206    1.286   .     A
C180   O204    1.284   .     A
C180   C183    1.420   .     S
C180   O205    1.282   .     A
C181   Cl209   1.777   .     S
C181   C191    1.406   .     A
C181   C183    1.397   .     A
C182   Cl210   1.776   .     S
C182   C192    1.411   .     A
C182   C184    1.400   .     A
C183   C185    1.392   .     A
C184   C186    1.391   .     A
C185   C187    1.391   .     A
C185   O211    1.388   .     S
C186   O216    1.387   .     S
C186   C188    1.388   .     A
C187   C193    1.395   .     A
C187   C189    1.412   .     A
C188   C190    1.412   .     A
C188   C194    1.396   .     A
C189   C191    1.428   .     A
C189   C928    1.404   .     S
C190   C192    1.429   .     A
C190   C927    1.404   1_554 S
C193   H195    1.084   .     S
C193   C905    1.385   .     S
C194   H196    1.084   .     S
C194   C906    1.383   1_554 S
N197   Zn207   2.015   .     S
N198   Zn208   2.015   .     S
O199   Zn207   1.992   .     S
O200   Zn208   1.992   .     S
O201   Zn207   2.006   .     S
O202   Zn208   2.006   .     S
O203   Zn207   2.005   .     S
O204   Zn208   2.005   .     S
O205   Zn207   2.005   .     S
O206   Zn208   2.005   .     S
O211   C212    1.412   .     S
C212   H215    1.111   .     S
C212   H214    1.113   .     S
C212   H213    1.109   .     S
O216   C217    1.410   .     S
C217   H218    1.109   .     S
C217   H219    1.113   .     S
C217   H220    1.112   .     S
O227   C228    1.414   .     S
C228   H231    1.110   .     S
C228   H230    1.115   .     S
C228   H229    1.109   .     S
O232   C233    1.414   .     S
C233   H235    1.114   .     S
C233   H236    1.111   .     S
C233   H234    1.109   .     S
O237   C238    1.415   .     S
C238   H240    1.115   .     S
C238   H241    1.109   .     S
C238   H239    1.109   .     S
O242   C243    1.413   .     S
C243   H244    1.109   .     S
C243   H245    1.114   .     S
C243   H246    1.110   .     S
C247   O284    1.284   .     A
C247   O281    1.294   .     A
C247   C256    1.437   .     S
C248   O282    1.286   .     A
C248   C255    1.437   .     S
C248   O283    1.291   .     A
C249   C274    1.421   .     A
C249   Cl303   1.766   .     S
C249   C1013   1.385   1_554 S
C250   C273    1.418   .     A
C250   Cl304   1.766   .     S
C250   C1014   1.383   .     S
C251   Cl305   1.775   .     S
C251   C256    1.404   .     A
C251   C417    1.371   1_455 S
C252   C255    1.417   .     A
C252   Cl306   1.774   .     S
C252   C336    1.386   .     S
C253   Cl307   1.779   .     S
C253   C255    1.413   .     A
C253   C333    1.371   .     S
C254   C256    1.405   .     A
C254   Cl308   1.777   .     S
C254   C416    1.386   1_455 S
C257   O309    1.385   .     S
C257   N280    1.365   .     A
C258   O314    1.380   .     S
C258   N279    1.372   .     A
C258   C505    1.436   .     S
C259   O319    1.389   .     S
C259   N280    1.367   .     A
C260   N279    1.373   .     A
C260   O324    1.380   .     S
C260   C503    1.433   .     S
C261   C266    1.423   .     S
C261   O285    1.281   .     A
C261   O288    1.286   .     A
C262   O286    1.284   .     A
C262   C265    1.420   .     S
C262   O287    1.282   .     A
C263   Cl291   1.777   .     S
C263   C273    1.406   .     A
C263   C265    1.397   .     A
C264   Cl292   1.776   .     S
C264   C274    1.411   .     A
C264   C266    1.400   .     A
C265   C267    1.392   .     A
C266   C268    1.391   .     A
C267   C269    1.391   .     A
C267   O293    1.388   .     S
C268   O298    1.387   .     S
C268   C270    1.388   .     A
C269   C275    1.395   .     A
C269   C271    1.412   .     A
C270   C272    1.412   .     A
C270   C276    1.396   .     A
C271   C273    1.428   .     A
C271   C1010   1.404   .     S
C272   C274    1.429   .     A
C272   C1009   1.404   1_554 S
C275   H277    1.084   .     S
C275   C987    1.385   .     S
C276   H278    1.084   .     S
C276   C988    1.383   1_554 S
N279   Zn289   2.015   .     S
N280   Zn290   2.015   .     S
O281   Zn289   1.992   .     S
O282   Zn290   1.992   .     S
O283   Zn289   2.006   .     S
O284   Zn290   2.006   .     S
O285   Zn289   2.005   .     S
O286   Zn290   2.005   .     S
O287   Zn289   2.005   .     S
O288   Zn290   2.005   .     S
O293   C294    1.412   .     S
C294   H297    1.111   .     S
C294   H296    1.113   .     S
C294   H295    1.109   .     S
O298   C299    1.410   .     S
C299   H300    1.109   .     S
C299   H301    1.113   .     S
C299   H302    1.112   .     S
O309   C310    1.414   .     S
C310   H313    1.110   .     S
C310   H312    1.115   .     S
C310   H311    1.109   .     S
O314   C315    1.414   .     S
C315   H317    1.114   .     S
C315   H318    1.111   .     S
C315   H316    1.109   .     S
O319   C320    1.415   .     S
C320   H322    1.115   .     S
C320   H323    1.109   .     S
C320   H321    1.109   .     S
O324   C325    1.413   .     S
C325   H326    1.109   .     S
C325   H327    1.114   .     S
C325   H328    1.110   .     S
C329   O366    1.284   .     A
C329   O363    1.294   .     A
C329   C338    1.437   .     S
C330   O364    1.286   .     A
C330   C337    1.437   .     S
C330   O365    1.291   .     A
C331   C356    1.421   .     A
C331   Cl385   1.766   .     S
C331   C1095   1.385   1_554 S
C332   C355    1.418   .     A
C332   Cl386   1.766   .     S
C332   C1096   1.383   .     S
C333   Cl387   1.775   .     S
C333   C338    1.404   .     A
C334   C337    1.417   .     A
C334   Cl388   1.774   .     S
C334   C418    1.386   .     S
C335   Cl389   1.779   .     S
C335   C337    1.413   .     A
C335   C415    1.371   .     S
C336   C338    1.405   .     A
C336   Cl390   1.777   .     S
C339   O391    1.385   .     S
C339   N362    1.365   .     A
C340   O396    1.380   .     S
C340   N361    1.372   .     A
C340   C587    1.436   .     S
C341   O401    1.389   .     S
C341   N362    1.367   .     A
C342   N361    1.373   .     A
C342   O406    1.380   .     S
C342   C585    1.433   .     S
C343   C348    1.423   .     S
C343   O367    1.281   .     A
C343   O370    1.286   .     A
C344   O368    1.284   .     A
C344   C347    1.420   .     S
C344   O369    1.282   .     A
C345   Cl373   1.777   .     S
C345   C355    1.406   .     A
C345   C347    1.397   .     A
C346   Cl374   1.776   .     S
C346   C356    1.411   .     A
C346   C348    1.400   .     A
C347   C349    1.392   .     A
C348   C350    1.391   .     A
C349   C351    1.391   .     A
C349   O375    1.388   .     S
C350   O380    1.387   .     S
C350   C352    1.388   .     A
C351   C357    1.395   .     A
C351   C353    1.412   .     A
C352   C354    1.412   .     A
C352   C358    1.396   .     A
C353   C355    1.428   .     A
C353   C1092   1.404   .     S
C354   C356    1.429   .     A
C354   C1091   1.404   1_554 S
C357   H359    1.084   .     S
C357   C1069   1.385   .     S
C358   H360    1.084   .     S
C358   C1070   1.383   1_554 S
N361   Zn371   2.015   .     S
N362   Zn372   2.015   .     S
O363   Zn371   1.992   .     S
O364   Zn372   1.992   .     S
O365   Zn371   2.006   .     S
O366   Zn372   2.006   .     S
O367   Zn371   2.005   .     S
O368   Zn372   2.005   .     S
O369   Zn371   2.005   .     S
O370   Zn372   2.005   .     S
O375   C376    1.412   .     S
C376   H379    1.111   .     S
C376   H378    1.113   .     S
C376   H377    1.109   .     S
O380   C381    1.410   .     S
C381   H382    1.109   .     S
C381   H383    1.113   .     S
C381   H384    1.112   .     S
O391   C392    1.414   .     S
C392   H395    1.110   .     S
C392   H394    1.115   .     S
C392   H393    1.109   .     S
O396   C397    1.414   .     S
C397   H399    1.114   .     S
C397   H400    1.111   .     S
C397   H398    1.109   .     S
O401   C402    1.415   .     S
C402   H404    1.115   .     S
C402   H405    1.109   .     S
C402   H403    1.109   .     S
O406   C407    1.413   .     S
C407   H408    1.109   .     S
C407   H409    1.114   .     S
C407   H410    1.110   .     S
C411   O448    1.284   .     A
C411   O445    1.294   .     A
C411   C420    1.437   .     S
C412   O446    1.286   .     A
C412   C419    1.437   .     S
C412   O447    1.291   .     A
C413   C438    1.421   .     A
C413   Cl467   1.766   .     S
C413   C1177   1.385   1_554 S
C414   C437    1.418   .     A
C414   Cl468   1.766   .     S
C414   C1178   1.383   .     S
C415   Cl469   1.775   .     S
C415   C420    1.404   .     A
C416   C419    1.417   .     A
C416   Cl470   1.774   .     S
C416   C254    1.386   1_655 S
C417   Cl471   1.779   .     S
C417   C419    1.413   .     A
C417   C251    1.371   1_655 S
C418   C420    1.405   .     A
C418   Cl472   1.777   .     S
C421   O473    1.385   .     S
C421   N444    1.365   .     A
C422   O478    1.380   .     S
C422   N443    1.372   .     A
C422   C669    1.436   .     S
C423   O483    1.389   .     S
C423   N444    1.367   .     A
C424   N443    1.373   .     A
C424   O488    1.380   .     S
C424   C667    1.433   .     S
C425   C430    1.423   .     S
C425   O449    1.281   .     A
C425   O452    1.286   .     A
C426   O450    1.284   .     A
C426   C429    1.420   .     S
C426   O451    1.282   .     A
C427   Cl455   1.777   .     S
C427   C437    1.406   .     A
C427   C429    1.397   .     A
C428   Cl456   1.776   .     S
C428   C438    1.411   .     A
C428   C430    1.400   .     A
C429   C431    1.392   .     A
C430   C432    1.391   .     A
C431   C433    1.391   .     A
C431   O457    1.388   .     S
C432   O462    1.387   .     S
C432   C434    1.388   .     A
C433   C439    1.395   .     A
C433   C435    1.412   .     A
C434   C436    1.412   .     A
C434   C440    1.396   .     A
C435   C437    1.428   .     A
C435   C1174   1.404   .     S
C436   C438    1.429   .     A
C436   C1173   1.404   1_554 S
C439   H441    1.084   .     S
C439   C1151   1.385   .     S
C440   H442    1.084   .     S
C440   C1152   1.383   1_554 S
N443   Zn453   2.015   .     S
N444   Zn454   2.015   .     S
O445   Zn453   1.992   .     S
O446   Zn454   1.992   .     S
O447   Zn453   2.006   .     S
O448   Zn454   2.006   .     S
O449   Zn453   2.005   .     S
O450   Zn454   2.005   .     S
O451   Zn453   2.005   .     S
O452   Zn454   2.005   .     S
O457   C458    1.412   .     S
C458   H461    1.111   .     S
C458   H460    1.113   .     S
C458   H459    1.109   .     S
O462   C463    1.410   .     S
C463   H464    1.109   .     S
C463   H465    1.113   .     S
C463   H466    1.112   .     S
O473   C474    1.414   .     S
C474   H477    1.110   .     S
C474   H476    1.115   .     S
C474   H475    1.109   .     S
O478   C479    1.414   .     S
C479   H481    1.114   .     S
C479   H482    1.111   .     S
C479   H480    1.109   .     S
O483   C484    1.415   .     S
C484   H486    1.115   .     S
C484   H487    1.109   .     S
C484   H485    1.109   .     S
O488   C489    1.413   .     S
C489   H490    1.109   .     S
C489   H491    1.114   .     S
C489   H492    1.110   .     S
C493   O530    1.284   .     A
C493   O527    1.294   .     A
C493   C502    1.437   .     S
C494   O528    1.286   .     A
C494   C501    1.437   .     S
C494   O529    1.291   .     A
C495   C520    1.421   .     A
C495   Cl549   1.766   .     S
C495   C1259   1.385   1_554 S
C496   C519    1.418   .     A
C496   Cl550   1.766   .     S
C496   C1260   1.383   .     S
C497   Cl551   1.775   .     S
C497   C502    1.404   .     A
C497   C663    1.371   1_455 S
C498   C501    1.417   .     A
C498   Cl552   1.774   .     S
C498   C582    1.386   .     S
C499   Cl553   1.779   .     S
C499   C501    1.413   .     A
C499   C579    1.371   .     S
C500   C502    1.405   .     A
C500   Cl554   1.777   .     S
C500   C662    1.386   1_455 S
C503   O555    1.385   .     S
C503   N526    1.365   .     A
C504   O560    1.380   .     S
C504   N525    1.372   .     A
C504   C13     1.436   1_565 S
C505   O565    1.389   .     S
C505   N526    1.367   .     A
C506   N525    1.373   .     A
C506   O570    1.380   .     S
C506   C11     1.433   1_565 S
C507   C512    1.423   .     S
C507   O531    1.281   .     A
C507   O534    1.286   .     A
C508   O532    1.284   .     A
C508   C511    1.420   .     S
C508   O533    1.282   .     A
C509   Cl537   1.777   .     S
C509   C519    1.406   .     A
C509   C511    1.397   .     A
C510   Cl538   1.776   .     S
C510   C520    1.411   .     A
C510   C512    1.400   .     A
C511   C513    1.392   .     A
C512   C514    1.391   .     A
C513   C515    1.391   .     A
C513   O539    1.388   .     S
C514   O544    1.387   .     S
C514   C516    1.388   .     A
C515   C521    1.395   .     A
C515   C517    1.412   .     A
C516   C518    1.412   .     A
C516   C522    1.396   .     A
C517   C519    1.428   .     A
C517   C1256   1.404   .     S
C518   C520    1.429   .     A
C518   C1255   1.404   1_554 S
C521   H523    1.084   .     S
C521   C1233   1.385   .     S
C522   H524    1.084   .     S
C522   C1234   1.383   1_554 S
N525   Zn535   2.015   .     S
N526   Zn536   2.015   .     S
O527   Zn535   1.992   .     S
O528   Zn536   1.992   .     S
O529   Zn535   2.006   .     S
O530   Zn536   2.006   .     S
O531   Zn535   2.005   .     S
O532   Zn536   2.005   .     S
O533   Zn535   2.005   .     S
O534   Zn536   2.005   .     S
O539   C540    1.412   .     S
C540   H543    1.111   .     S
C540   H542    1.113   .     S
C540   H541    1.109   .     S
O544   C545    1.410   .     S
C545   H546    1.109   .     S
C545   H547    1.113   .     S
C545   H548    1.112   .     S
O555   C556    1.414   .     S
C556   H559    1.110   .     S
C556   H558    1.115   .     S
C556   H557    1.109   .     S
O560   C561    1.414   .     S
C561   H563    1.114   .     S
C561   H564    1.111   .     S
C561   H562    1.109   .     S
O565   C566    1.415   .     S
C566   H568    1.115   .     S
C566   H569    1.109   .     S
C566   H567    1.109   .     S
O570   C571    1.413   .     S
C571   H572    1.109   .     S
C571   H573    1.114   .     S
C571   H574    1.110   .     S
C575   O612    1.284   .     A
C575   O609    1.294   .     A
C575   C584    1.437   .     S
C576   O610    1.286   .     A
C576   C583    1.437   .     S
C576   O611    1.291   .     A
C577   C602    1.421   .     A
C577   Cl631   1.766   .     S
C577   C1341   1.385   1_554 S
C578   C601    1.418   .     A
C578   Cl632   1.766   .     S
C578   C1342   1.383   .     S
C579   Cl633   1.775   .     S
C579   C584    1.404   .     A
C580   C583    1.417   .     A
C580   Cl634   1.774   .     S
C580   C664    1.386   .     S
C581   Cl635   1.779   .     S
C581   C583    1.413   .     A
C581   C661    1.371   .     S
C582   C584    1.405   .     A
C582   Cl636   1.777   .     S
C585   O637    1.385   .     S
C585   N608    1.365   .     A
C586   O642    1.380   .     S
C586   N607    1.372   .     A
C586   C95     1.436   1_565 S
C587   O647    1.389   .     S
C587   N608    1.367   .     A
C588   N607    1.373   .     A
C588   O652    1.380   .     S
C588   C93     1.433   1_565 S
C589   C594    1.423   .     S
C589   O613    1.281   .     A
C589   O616    1.286   .     A
C590   O614    1.284   .     A
C590   C593    1.420   .     S
C590   O615    1.282   .     A
C591   Cl619   1.777   .     S
C591   C601    1.406   .     A
C591   C593    1.397   .     A
C592   Cl620   1.776   .     S
C592   C602    1.411   .     A
C592   C594    1.400   .     A
C593   C595    1.392   .     A
C594   C596    1.391   .     A
C595   C597    1.391   .     A
C595   O621    1.388   .     S
C596   O626    1.387   .     S
C596   C598    1.388   .     A
C597   C603    1.395   .     A
C597   C599    1.412   .     A
C598   C600    1.412   .     A
C598   C604    1.396   .     A
C599   C601    1.428   .     A
C599   C1338   1.404   .     S
C600   C602    1.429   .     A
C600   C1337   1.404   1_554 S
C603   H605    1.084   .     S
C603   C1315   1.385   .     S
C604   H606    1.084   .     S
C604   C1316   1.383   1_554 S
N607   Zn617   2.015   .     S
N608   Zn618   2.015   .     S
O609   Zn617   1.992   .     S
O610   Zn618   1.992   .     S
O611   Zn617   2.006   .     S
O612   Zn618   2.006   .     S
O613   Zn617   2.005   .     S
O614   Zn618   2.005   .     S
O615   Zn617   2.005   .     S
O616   Zn618   2.005   .     S
O621   C622    1.412   .     S
C622   H625    1.111   .     S
C622   H624    1.113   .     S
C622   H623    1.109   .     S
O626   C627    1.410   .     S
C627   H628    1.109   .     S
C627   H629    1.113   .     S
C627   H630    1.112   .     S
O637   C638    1.414   .     S
C638   H641    1.110   .     S
C638   H640    1.115   .     S
C638   H639    1.109   .     S
O642   C643    1.414   .     S
C643   H645    1.114   .     S
C643   H646    1.111   .     S
C643   H644    1.109   .     S
O647   C648    1.415   .     S
C648   H650    1.115   .     S
C648   H651    1.109   .     S
C648   H649    1.109   .     S
O652   C653    1.413   .     S
C653   H654    1.109   .     S
C653   H655    1.114   .     S
C653   H656    1.110   .     S
C657   O694    1.284   .     A
C657   O691    1.294   .     A
C657   C666    1.437   .     S
C658   O692    1.286   .     A
C658   C665    1.437   .     S
C658   O693    1.291   .     A
C659   C684    1.421   .     A
C659   Cl713   1.766   .     S
C659   C1423   1.385   1_554 S
C660   C683    1.418   .     A
C660   Cl714   1.766   .     S
C660   C1424   1.383   .     S
C661   Cl715   1.775   .     S
C661   C666    1.404   .     A
C662   C665    1.417   .     A
C662   Cl716   1.774   .     S
C662   C500    1.386   1_655 S
C663   Cl717   1.779   .     S
C663   C665    1.413   .     A
C663   C497    1.371   1_655 S
C664   C666    1.405   .     A
C664   Cl718   1.777   .     S
C667   O719    1.385   .     S
C667   N690    1.365   .     A
C668   O724    1.380   .     S
C668   N689    1.372   .     A
C668   C177    1.436   1_565 S
C669   O729    1.389   .     S
C669   N690    1.367   .     A
C670   N689    1.373   .     A
C670   O734    1.380   .     S
C670   C175    1.433   1_565 S
C671   C676    1.423   .     S
C671   O695    1.281   .     A
C671   O698    1.286   .     A
C672   O696    1.284   .     A
C672   C675    1.420   .     S
C672   O697    1.282   .     A
C673   Cl701   1.777   .     S
C673   C683    1.406   .     A
C673   C675    1.397   .     A
C674   Cl702   1.776   .     S
C674   C684    1.411   .     A
C674   C676    1.400   .     A
C675   C677    1.392   .     A
C676   C678    1.391   .     A
C677   C679    1.391   .     A
C677   O703    1.388   .     S
C678   O708    1.387   .     S
C678   C680    1.388   .     A
C679   C685    1.395   .     A
C679   C681    1.412   .     A
C680   C682    1.412   .     A
C680   C686    1.396   .     A
C681   C683    1.428   .     A
C681   C1420   1.404   .     S
C682   C684    1.429   .     A
C682   C1419   1.404   1_554 S
C685   H687    1.084   .     S
C685   C1397   1.385   .     S
C686   H688    1.084   .     S
C686   C1398   1.383   1_554 S
N689   Zn699   2.015   .     S
N690   Zn700   2.015   .     S
O691   Zn699   1.992   .     S
O692   Zn700   1.992   .     S
O693   Zn699   2.006   .     S
O694   Zn700   2.006   .     S
O695   Zn699   2.005   .     S
O696   Zn700   2.005   .     S
O697   Zn699   2.005   .     S
O698   Zn700   2.005   .     S
O703   C704    1.412   .     S
C704   H707    1.111   .     S
C704   H706    1.113   .     S
C704   H705    1.109   .     S
O708   C709    1.410   .     S
C709   H710    1.109   .     S
C709   H711    1.113   .     S
C709   H712    1.112   .     S
O719   C720    1.414   .     S
C720   H723    1.110   .     S
C720   H722    1.115   .     S
C720   H721    1.109   .     S
O724   C725    1.414   .     S
C725   H727    1.114   .     S
C725   H728    1.111   .     S
C725   H726    1.109   .     S
O729   C730    1.415   .     S
C730   H732    1.115   .     S
C730   H733    1.109   .     S
C730   H731    1.109   .     S
O734   C735    1.413   .     S
C735   H736    1.109   .     S
C735   H737    1.114   .     S
C735   H738    1.110   .     S
C739   O776    1.284   .     A
C739   O773    1.294   .     A
C739   C748    1.437   .     S
C740   O774    1.286   .     A
C740   C747    1.437   .     S
C740   O775    1.291   .     A
C741   C766    1.421   .     A
C741   Cl795   1.766   .     S
C742   C765    1.418   .     A
C742   Cl796   1.766   .     S
C742   C30     1.383   1_556 S
C743   Cl797   1.775   .     S
C743   C748    1.404   .     A
C743   C909    1.371   1_455 S
C744   C747    1.417   .     A
C744   Cl798   1.774   .     S
C744   C828    1.386   .     S
C745   Cl799   1.779   .     S
C745   C747    1.413   .     A
C745   C825    1.371   .     S
C746   C748    1.405   .     A
C746   Cl800   1.777   .     S
C746   C908    1.386   1_455 S
C749   O801    1.385   .     S
C749   N772    1.365   .     A
C749   C1244   1.433   1_545 S
C750   O806    1.380   .     S
C750   N771    1.372   .     A
C750   C997    1.436   .     S
C751   O811    1.389   .     S
C751   N772    1.367   .     A
C751   C1242   1.436   1_545 S
C752   N771    1.373   .     A
C752   O816    1.380   .     S
C752   C995    1.433   .     S
C753   C758    1.423   .     S
C753   O777    1.281   .     A
C753   O780    1.286   .     A
C754   O778    1.284   .     A
C754   C757    1.420   .     S
C754   O779    1.282   .     A
C755   Cl783   1.777   .     S
C755   C765    1.406   .     A
C755   C757    1.397   .     A
C756   Cl784   1.776   .     S
C756   C766    1.411   .     A
C756   C758    1.400   .     A
C757   C759    1.392   .     A
C758   C760    1.391   .     A
C759   C761    1.391   .     A
C759   O785    1.388   .     S
C760   O790    1.387   .     S
C760   C762    1.388   .     A
C761   C767    1.395   .     A
C761   C763    1.412   .     A
C762   C764    1.412   .     A
C762   C768    1.396   .     A
C763   C765    1.428   .     A
C763   C26     1.404   1_556 S
C764   C766    1.429   .     A
C767   H769    1.084   .     S
C767   C3      1.385   1_556 S
C768   H770    1.084   .     S
N771   Zn781   2.015   .     S
N772   Zn782   2.015   .     S
O773   Zn781   1.992   .     S
O774   Zn782   1.992   .     S
O775   Zn781   2.006   .     S
O776   Zn782   2.006   .     S
O777   Zn781   2.005   .     S
O778   Zn782   2.005   .     S
O779   Zn781   2.005   .     S
O780   Zn782   2.005   .     S
O785   C786    1.412   .     S
C786   H789    1.111   .     S
C786   H788    1.113   .     S
C786   H787    1.109   .     S
O790   C791    1.410   .     S
C791   H792    1.109   .     S
C791   H793    1.113   .     S
C791   H794    1.112   .     S
O801   C802    1.414   .     S
C802   H805    1.110   .     S
C802   H804    1.115   .     S
C802   H803    1.109   .     S
O806   C807    1.414   .     S
C807   H809    1.114   .     S
C807   H810    1.111   .     S
C807   H808    1.109   .     S
O811   C812    1.415   .     S
C812   H814    1.115   .     S
C812   H815    1.109   .     S
C812   H813    1.109   .     S
O816   C817    1.413   .     S
C817   H818    1.109   .     S
C817   H819    1.114   .     S
C817   H820    1.110   .     S
C821   O858    1.284   .     A
C821   O855    1.294   .     A
C821   C830    1.437   .     S
C822   O856    1.286   .     A
C822   C829    1.437   .     S
C822   O857    1.291   .     A
C823   C848    1.421   .     A
C823   Cl877   1.766   .     S
C824   C847    1.418   .     A
C824   Cl878   1.766   .     S
C824   C112    1.383   1_556 S
C825   Cl879   1.775   .     S
C825   C830    1.404   .     A
C826   C829    1.417   .     A
C826   Cl880   1.774   .     S
C826   C910    1.386   .     S
C827   Cl881   1.779   .     S
C827   C829    1.413   .     A
C827   C907    1.371   .     S
C828   C830    1.405   .     A
C828   Cl882   1.777   .     S
C831   O883    1.385   .     S
C831   N854    1.365   .     A
C831   C1326   1.433   1_545 S
C832   O888    1.380   .     S
C832   N853    1.372   .     A
C832   C1079   1.436   .     S
C833   O893    1.389   .     S
C833   N854    1.367   .     A
C833   C1324   1.436   1_545 S
C834   N853    1.373   .     A
C834   O898    1.380   .     S
C834   C1077   1.433   .     S
C835   C840    1.423   .     S
C835   O859    1.281   .     A
C835   O862    1.286   .     A
C836   O860    1.284   .     A
C836   C839    1.420   .     S
C836   O861    1.282   .     A
C837   Cl865   1.777   .     S
C837   C847    1.406   .     A
C837   C839    1.397   .     A
C838   Cl866   1.776   .     S
C838   C848    1.411   .     A
C838   C840    1.400   .     A
C839   C841    1.392   .     A
C840   C842    1.391   .     A
C841   C843    1.391   .     A
C841   O867    1.388   .     S
C842   O872    1.387   .     S
C842   C844    1.388   .     A
C843   C849    1.395   .     A
C843   C845    1.412   .     A
C844   C846    1.412   .     A
C844   C850    1.396   .     A
C845   C847    1.428   .     A
C845   C108    1.404   1_556 S
C846   C848    1.429   .     A
C849   H851    1.084   .     S
C849   C85     1.385   1_556 S
C850   H852    1.084   .     S
N853   Zn863   2.015   .     S
N854   Zn864   2.015   .     S
O855   Zn863   1.992   .     S
O856   Zn864   1.992   .     S
O857   Zn863   2.006   .     S
O858   Zn864   2.006   .     S
O859   Zn863   2.005   .     S
O860   Zn864   2.005   .     S
O861   Zn863   2.005   .     S
O862   Zn864   2.005   .     S
O867   C868    1.412   .     S
C868   H871    1.111   .     S
C868   H870    1.113   .     S
C868   H869    1.109   .     S
O872   C873    1.410   .     S
C873   H874    1.109   .     S
C873   H875    1.113   .     S
C873   H876    1.112   .     S
O883   C884    1.414   .     S
C884   H887    1.110   .     S
C884   H886    1.115   .     S
C884   H885    1.109   .     S
O888   C889    1.414   .     S
C889   H891    1.114   .     S
C889   H892    1.111   .     S
C889   H890    1.109   .     S
O893   C894    1.415   .     S
C894   H896    1.115   .     S
C894   H897    1.109   .     S
C894   H895    1.109   .     S
O898   C899    1.413   .     S
C899   H900    1.109   .     S
C899   H901    1.114   .     S
C899   H902    1.110   .     S
C903   O940    1.284   .     A
C903   O937    1.294   .     A
C903   C912    1.437   .     S
C904   O938    1.286   .     A
C904   C911    1.437   .     S
C904   O939    1.291   .     A
C905   C930    1.421   .     A
C905   Cl959   1.766   .     S
C906   C929    1.418   .     A
C906   Cl960   1.766   .     S
C906   C194    1.383   1_556 S
C907   Cl961   1.775   .     S
C907   C912    1.404   .     A
C908   C911    1.417   .     A
C908   Cl962   1.774   .     S
C908   C746    1.386   1_655 S
C909   Cl963   1.779   .     S
C909   C911    1.413   .     A
C909   C743    1.371   1_655 S
C910   C912    1.405   .     A
C910   Cl964   1.777   .     S
C913   O965    1.385   .     S
C913   N936    1.365   .     A
C913   C1408   1.433   1_545 S
C914   O970    1.380   .     S
C914   N935    1.372   .     A
C914   C1161   1.436   .     S
C915   O975    1.389   .     S
C915   N936    1.367   .     A
C915   C1406   1.436   1_545 S
C916   N935    1.373   .     A
C916   O980    1.380   .     S
C916   C1159   1.433   .     S
C917   C922    1.423   .     S
C917   O941    1.281   .     A
C917   O944    1.286   .     A
C918   O942    1.284   .     A
C918   C921    1.420   .     S
C918   O943    1.282   .     A
C919   Cl947   1.777   .     S
C919   C929    1.406   .     A
C919   C921    1.397   .     A
C920   Cl948   1.776   .     S
C920   C930    1.411   .     A
C920   C922    1.400   .     A
C921   C923    1.392   .     A
C922   C924    1.391   .     A
C923   C925    1.391   .     A
C923   O949    1.388   .     S
C924   O954    1.387   .     S
C924   C926    1.388   .     A
C925   C931    1.395   .     A
C925   C927    1.412   .     A
C926   C928    1.412   .     A
C926   C932    1.396   .     A
C927   C929    1.428   .     A
C927   C190    1.404   1_556 S
C928   C930    1.429   .     A
C931   H933    1.084   .     S
C931   C167    1.385   1_556 S
C932   H934    1.084   .     S
N935   Zn945   2.015   .     S
N936   Zn946   2.015   .     S
O937   Zn945   1.992   .     S
O938   Zn946   1.992   .     S
O939   Zn945   2.006   .     S
O940   Zn946   2.006   .     S
O941   Zn945   2.005   .     S
O942   Zn946   2.005   .     S
O943   Zn945   2.005   .     S
O944   Zn946   2.005   .     S
O949   C950    1.412   .     S
C950   H953    1.111   .     S
C950   H952    1.113   .     S
C950   H951    1.109   .     S
O954   C955    1.410   .     S
C955   H956    1.109   .     S
C955   H957    1.113   .     S
C955   H958    1.112   .     S
O965   C966    1.414   .     S
C966   H969    1.110   .     S
C966   H968    1.115   .     S
C966   H967    1.109   .     S
O970   C971    1.414   .     S
C971   H973    1.114   .     S
C971   H974    1.111   .     S
C971   H972    1.109   .     S
O975   C976    1.415   .     S
C976   H978    1.115   .     S
C976   H979    1.109   .     S
C976   H977    1.109   .     S
O980   C981    1.413   .     S
C981   H982    1.109   .     S
C981   H983    1.114   .     S
C981   H984    1.110   .     S
C985   O1022   1.284   .     A
C985   O1019   1.294   .     A
C985   C994    1.437   .     S
C986   O1020   1.286   .     A
C986   C993    1.437   .     S
C986   O1021   1.291   .     A
C987   C1012   1.421   .     A
C987   Cl1041  1.766   .     S
C988   C1011   1.418   .     A
C988   Cl1042  1.766   .     S
C988   C276    1.383   1_556 S
C989   Cl1043  1.775   .     S
C989   C994    1.404   .     A
C989   C1155   1.371   1_455 S
C990   C993    1.417   .     A
C990   Cl1044  1.774   .     S
C990   C1074   1.386   .     S
C991   Cl1045  1.779   .     S
C991   C993    1.413   .     A
C991   C1071   1.371   .     S
C992   C994    1.405   .     A
C992   Cl1046  1.777   .     S
C992   C1154   1.386   1_455 S
C995   O1047   1.385   .     S
C995   N1018   1.365   .     A
C996   O1052   1.380   .     S
C996   N1017   1.372   .     A
C996   C1243   1.436   .     S
C997   O1057   1.389   .     S
C997   N1018   1.367   .     A
C998   N1017   1.373   .     A
C998   O1062   1.380   .     S
C998   C1241   1.433   .     S
C999   C1004   1.423   .     S
C999   O1023   1.281   .     A
C999   O1026   1.286   .     A
C1000  O1024   1.284   .     A
C1000  C1003   1.420   .     S
C1000  O1025   1.282   .     A
C1001  Cl1029  1.777   .     S
C1001  C1011   1.406   .     A
C1001  C1003   1.397   .     A
C1002  Cl1030  1.776   .     S
C1002  C1012   1.411   .     A
C1002  C1004   1.400   .     A
C1003  C1005   1.392   .     A
C1004  C1006   1.391   .     A
C1005  C1007   1.391   .     A
C1005  O1031   1.388   .     S
C1006  O1036   1.387   .     S
C1006  C1008   1.388   .     A
C1007  C1013   1.395   .     A
C1007  C1009   1.412   .     A
C1008  C1010   1.412   .     A
C1008  C1014   1.396   .     A
C1009  C1011   1.428   .     A
C1009  C272    1.404   1_556 S
C1010  C1012   1.429   .     A
C1013  H1015   1.084   .     S
C1013  C249    1.385   1_556 S
C1014  H1016   1.084   .     S
N1017  Zn1027  2.015   .     S
N1018  Zn1028  2.015   .     S
O1019  Zn1027  1.992   .     S
O1020  Zn1028  1.992   .     S
O1021  Zn1027  2.006   .     S
O1022  Zn1028  2.006   .     S
O1023  Zn1027  2.005   .     S
O1024  Zn1028  2.005   .     S
O1025  Zn1027  2.005   .     S
O1026  Zn1028  2.005   .     S
O1031  C1032   1.412   .     S
C1032  H1035   1.111   .     S
C1032  H1034   1.113   .     S
C1032  H1033   1.109   .     S
O1036  C1037   1.410   .     S
C1037  H1038   1.109   .     S
C1037  H1039   1.113   .     S
C1037  H1040   1.112   .     S
O1047  C1048   1.414   .     S
C1048  H1051   1.110   .     S
C1048  H1050   1.115   .     S
C1048  H1049   1.109   .     S
O1052  C1053   1.414   .     S
C1053  H1055   1.114   .     S
C1053  H1056   1.111   .     S
C1053  H1054   1.109   .     S
O1057  C1058   1.415   .     S
C1058  H1060   1.115   .     S
C1058  H1061   1.109   .     S
C1058  H1059   1.109   .     S
O1062  C1063   1.413   .     S
C1063  H1064   1.109   .     S
C1063  H1065   1.114   .     S
C1063  H1066   1.110   .     S
C1067  O1104   1.284   .     A
C1067  O1101   1.294   .     A
C1067  C1076   1.437   .     S
C1068  O1102   1.286   .     A
C1068  C1075   1.437   .     S
C1068  O1103   1.291   .     A
C1069  C1094   1.421   .     A
C1069  Cl1123  1.766   .     S
C1070  C1093   1.418   .     A
C1070  Cl1124  1.766   .     S
C1070  C358    1.383   1_556 S
C1071  Cl1125  1.775   .     S
C1071  C1076   1.404   .     A
C1072  C1075   1.417   .     A
C1072  Cl1126  1.774   .     S
C1072  C1156   1.386   .     S
C1073  Cl1127  1.779   .     S
C1073  C1075   1.413   .     A
C1073  C1153   1.371   .     S
C1074  C1076   1.405   .     A
C1074  Cl1128  1.777   .     S
C1077  O1129   1.385   .     S
C1077  N1100   1.365   .     A
C1078  O1134   1.380   .     S
C1078  N1099   1.372   .     A
C1078  C1325   1.436   .     S
C1079  O1139   1.389   .     S
C1079  N1100   1.367   .     A
C1080  N1099   1.373   .     A
C1080  O1144   1.380   .     S
C1080  C1323   1.433   .     S
C1081  C1086   1.423   .     S
C1081  O1105   1.281   .     A
C1081  O1108   1.286   .     A
C1082  O1106   1.284   .     A
C1082  C1085   1.420   .     S
C1082  O1107   1.282   .     A
C1083  Cl1111  1.777   .     S
C1083  C1093   1.406   .     A
C1083  C1085   1.397   .     A
C1084  Cl1112  1.776   .     S
C1084  C1094   1.411   .     A
C1084  C1086   1.400   .     A
C1085  C1087   1.392   .     A
C1086  C1088   1.391   .     A
C1087  C1089   1.391   .     A
C1087  O1113   1.388   .     S
C1088  O1118   1.387   .     S
C1088  C1090   1.388   .     A
C1089  C1095   1.395   .     A
C1089  C1091   1.412   .     A
C1090  C1092   1.412   .     A
C1090  C1096   1.396   .     A
C1091  C1093   1.428   .     A
C1091  C354    1.404   1_556 S
C1092  C1094   1.429   .     A
C1095  H1097   1.084   .     S
C1095  C331    1.385   1_556 S
C1096  H1098   1.084   .     S
N1099  Zn1109  2.015   .     S
N1100  Zn1110  2.015   .     S
O1101  Zn1109  1.992   .     S
O1102  Zn1110  1.992   .     S
O1103  Zn1109  2.006   .     S
O1104  Zn1110  2.006   .     S
O1105  Zn1109  2.005   .     S
O1106  Zn1110  2.005   .     S
O1107  Zn1109  2.005   .     S
O1108  Zn1110  2.005   .     S
O1113  C1114   1.412   .     S
C1114  H1117   1.111   .     S
C1114  H1116   1.113   .     S
C1114  H1115   1.109   .     S
O1118  C1119   1.410   .     S
C1119  H1120   1.109   .     S
C1119  H1121   1.113   .     S
C1119  H1122   1.112   .     S
O1129  C1130   1.414   .     S
C1130  H1133   1.110   .     S
C1130  H1132   1.115   .     S
C1130  H1131   1.109   .     S
O1134  C1135   1.414   .     S
C1135  H1137   1.114   .     S
C1135  H1138   1.111   .     S
C1135  H1136   1.109   .     S
O1139  C1140   1.415   .     S
C1140  H1142   1.115   .     S
C1140  H1143   1.109   .     S
C1140  H1141   1.109   .     S
O1144  C1145   1.413   .     S
C1145  H1146   1.109   .     S
C1145  H1147   1.114   .     S
C1145  H1148   1.110   .     S
C1149  O1186   1.284   .     A
C1149  O1183   1.294   .     A
C1149  C1158   1.437   .     S
C1150  O1184   1.286   .     A
C1150  C1157   1.437   .     S
C1150  O1185   1.291   .     A
C1151  C1176   1.421   .     A
C1151  Cl1205  1.766   .     S
C1152  C1175   1.418   .     A
C1152  Cl1206  1.766   .     S
C1152  C440    1.383   1_556 S
C1153  Cl1207  1.775   .     S
C1153  C1158   1.404   .     A
C1154  C1157   1.417   .     A
C1154  Cl1208  1.774   .     S
C1154  C992    1.386   1_655 S
C1155  Cl1209  1.779   .     S
C1155  C1157   1.413   .     A
C1155  C989    1.371   1_655 S
C1156  C1158   1.405   .     A
C1156  Cl1210  1.777   .     S
C1159  O1211   1.385   .     S
C1159  N1182   1.365   .     A
C1160  O1216   1.380   .     S
C1160  N1181   1.372   .     A
C1160  C1407   1.436   .     S
C1161  O1221   1.389   .     S
C1161  N1182   1.367   .     A
C1162  N1181   1.373   .     A
C1162  O1226   1.380   .     S
C1162  C1405   1.433   .     S
C1163  C1168   1.423   .     S
C1163  O1187   1.281   .     A
C1163  O1190   1.286   .     A
C1164  O1188   1.284   .     A
C1164  C1167   1.420   .     S
C1164  O1189   1.282   .     A
C1165  Cl1193  1.777   .     S
C1165  C1175   1.406   .     A
C1165  C1167   1.397   .     A
C1166  Cl1194  1.776   .     S
C1166  C1176   1.411   .     A
C1166  C1168   1.400   .     A
C1167  C1169   1.392   .     A
C1168  C1170   1.391   .     A
C1169  C1171   1.391   .     A
C1169  O1195   1.388   .     S
C1170  O1200   1.387   .     S
C1170  C1172   1.388   .     A
C1171  C1177   1.395   .     A
C1171  C1173   1.412   .     A
C1172  C1174   1.412   .     A
C1172  C1178   1.396   .     A
C1173  C1175   1.428   .     A
C1173  C436    1.404   1_556 S
C1174  C1176   1.429   .     A
C1177  H1179   1.084   .     S
C1177  C413    1.385   1_556 S
C1178  H1180   1.084   .     S
N1181  Zn1191  2.015   .     S
N1182  Zn1192  2.015   .     S
O1183  Zn1191  1.992   .     S
O1184  Zn1192  1.992   .     S
O1185  Zn1191  2.006   .     S
O1186  Zn1192  2.006   .     S
O1187  Zn1191  2.005   .     S
O1188  Zn1192  2.005   .     S
O1189  Zn1191  2.005   .     S
O1190  Zn1192  2.005   .     S
O1195  C1196   1.412   .     S
C1196  H1199   1.111   .     S
C1196  H1198   1.113   .     S
C1196  H1197   1.109   .     S
O1200  C1201   1.410   .     S
C1201  H1202   1.109   .     S
C1201  H1203   1.113   .     S
C1201  H1204   1.112   .     S
O1211  C1212   1.414   .     S
C1212  H1215   1.110   .     S
C1212  H1214   1.115   .     S
C1212  H1213   1.109   .     S
O1216  C1217   1.414   .     S
C1217  H1219   1.114   .     S
C1217  H1220   1.111   .     S
C1217  H1218   1.109   .     S
O1221  C1222   1.415   .     S
C1222  H1224   1.115   .     S
C1222  H1225   1.109   .     S
C1222  H1223   1.109   .     S
O1226  C1227   1.413   .     S
C1227  H1228   1.109   .     S
C1227  H1229   1.114   .     S
C1227  H1230   1.110   .     S
C1231  O1268   1.284   .     A
C1231  O1265   1.294   .     A
C1231  C1240   1.437   .     S
C1232  O1266   1.286   .     A
C1232  C1239   1.437   .     S
C1232  O1267   1.291   .     A
C1233  C1258   1.421   .     A
C1233  Cl1287  1.766   .     S
C1234  C1257   1.418   .     A
C1234  Cl1288  1.766   .     S
C1234  C522    1.383   1_556 S
C1235  Cl1289  1.775   .     S
C1235  C1240   1.404   .     A
C1235  C1401   1.371   1_455 S
C1236  C1239   1.417   .     A
C1236  Cl1290  1.774   .     S
C1236  C1320   1.386   .     S
C1237  Cl1291  1.779   .     S
C1237  C1239   1.413   .     A
C1237  C1317   1.371   .     S
C1238  C1240   1.405   .     A
C1238  Cl1292  1.777   .     S
C1238  C1400   1.386   1_455 S
C1241  O1293   1.385   .     S
C1241  N1264   1.365   .     A
C1242  O1298   1.380   .     S
C1242  N1263   1.372   .     A
C1242  C751    1.436   1_565 S
C1243  O1303   1.389   .     S
C1243  N1264   1.367   .     A
C1244  N1263   1.373   .     A
C1244  O1308   1.380   .     S
C1244  C749    1.433   1_565 S
C1245  C1250   1.423   .     S
C1245  O1269   1.281   .     A
C1245  O1272   1.286   .     A
C1246  O1270   1.284   .     A
C1246  C1249   1.420   .     S
C1246  O1271   1.282   .     A
C1247  Cl1275  1.777   .     S
C1247  C1257   1.406   .     A
C1247  C1249   1.397   .     A
C1248  Cl1276  1.776   .     S
C1248  C1258   1.411   .     A
C1248  C1250   1.400   .     A
C1249  C1251   1.392   .     A
C1250  C1252   1.391   .     A
C1251  C1253   1.391   .     A
C1251  O1277   1.388   .     S
C1252  O1282   1.387   .     S
C1252  C1254   1.388   .     A
C1253  C1259   1.395   .     A
C1253  C1255   1.412   .     A
C1254  C1256   1.412   .     A
C1254  C1260   1.396   .     A
C1255  C1257   1.428   .     A
C1255  C518    1.404   1_556 S
C1256  C1258   1.429   .     A
C1259  H1261   1.084   .     S
C1259  C495    1.385   1_556 S
C1260  H1262   1.084   .     S
N1263  Zn1273  2.015   .     S
N1264  Zn1274  2.015   .     S
O1265  Zn1273  1.992   .     S
O1266  Zn1274  1.992   .     S
O1267  Zn1273  2.006   .     S
O1268  Zn1274  2.006   .     S
O1269  Zn1273  2.005   .     S
O1270  Zn1274  2.005   .     S
O1271  Zn1273  2.005   .     S
O1272  Zn1274  2.005   .     S
O1277  C1278   1.412   .     S
C1278  H1281   1.111   .     S
C1278  H1280   1.113   .     S
C1278  H1279   1.109   .     S
O1282  C1283   1.410   .     S
C1283  H1284   1.109   .     S
C1283  H1285   1.113   .     S
C1283  H1286   1.112   .     S
O1293  C1294   1.414   .     S
C1294  H1297   1.110   .     S
C1294  H1296   1.115   .     S
C1294  H1295   1.109   .     S
O1298  C1299   1.414   .     S
C1299  H1301   1.114   .     S
C1299  H1302   1.111   .     S
C1299  H1300   1.109   .     S
O1303  C1304   1.415   .     S
C1304  H1306   1.115   .     S
C1304  H1307   1.109   .     S
C1304  H1305   1.109   .     S
O1308  C1309   1.413   .     S
C1309  H1310   1.109   .     S
C1309  H1311   1.114   .     S
C1309  H1312   1.110   .     S
C1313  O1350   1.284   .     A
C1313  O1347   1.294   .     A
C1313  C1322   1.437   .     S
C1314  O1348   1.286   .     A
C1314  C1321   1.437   .     S
C1314  O1349   1.291   .     A
C1315  C1340   1.421   .     A
C1315  Cl1369  1.766   .     S
C1316  C1339   1.418   .     A
C1316  Cl1370  1.766   .     S
C1316  C604    1.383   1_556 S
C1317  Cl1371  1.775   .     S
C1317  C1322   1.404   .     A
C1318  C1321   1.417   .     A
C1318  Cl1372  1.774   .     S
C1318  C1402   1.386   .     S
C1319  Cl1373  1.779   .     S
C1319  C1321   1.413   .     A
C1319  C1399   1.371   .     S
C1320  C1322   1.405   .     A
C1320  Cl1374  1.777   .     S
C1323  O1375   1.385   .     S
C1323  N1346   1.365   .     A
C1324  O1380   1.380   .     S
C1324  N1345   1.372   .     A
C1324  C833    1.436   1_565 S
C1325  O1385   1.389   .     S
C1325  N1346   1.367   .     A
C1326  N1345   1.373   .     A
C1326  O1390   1.380   .     S
C1326  C831    1.433   1_565 S
C1327  C1332   1.423   .     S
C1327  O1351   1.281   .     A
C1327  O1354   1.286   .     A
C1328  O1352   1.284   .     A
C1328  C1331   1.420   .     S
C1328  O1353   1.282   .     A
C1329  Cl1357  1.777   .     S
C1329  C1339   1.406   .     A
C1329  C1331   1.397   .     A
C1330  Cl1358  1.776   .     S
C1330  C1340   1.411   .     A
C1330  C1332   1.400   .     A
C1331  C1333   1.392   .     A
C1332  C1334   1.391   .     A
C1333  C1335   1.391   .     A
C1333  O1359   1.388   .     S
C1334  O1364   1.387   .     S
C1334  C1336   1.388   .     A
C1335  C1341   1.395   .     A
C1335  C1337   1.412   .     A
C1336  C1338   1.412   .     A
C1336  C1342   1.396   .     A
C1337  C1339   1.428   .     A
C1337  C600    1.404   1_556 S
C1338  C1340   1.429   .     A
C1341  H1343   1.084   .     S
C1341  C577    1.385   1_556 S
C1342  H1344   1.084   .     S
N1345  Zn1355  2.015   .     S
N1346  Zn1356  2.015   .     S
O1347  Zn1355  1.992   .     S
O1348  Zn1356  1.992   .     S
O1349  Zn1355  2.006   .     S
O1350  Zn1356  2.006   .     S
O1351  Zn1355  2.005   .     S
O1352  Zn1356  2.005   .     S
O1353  Zn1355  2.005   .     S
O1354  Zn1356  2.005   .     S
O1359  C1360   1.412   .     S
C1360  H1363   1.111   .     S
C1360  H1362   1.113   .     S
C1360  H1361   1.109   .     S
O1364  C1365   1.410   .     S
C1365  H1366   1.109   .     S
C1365  H1367   1.113   .     S
C1365  H1368   1.112   .     S
O1375  C1376   1.414   .     S
C1376  H1379   1.110   .     S
C1376  H1378   1.115   .     S
C1376  H1377   1.109   .     S
O1380  C1381   1.414   .     S
C1381  H1383   1.114   .     S
C1381  H1384   1.111   .     S
C1381  H1382   1.109   .     S
O1385  C1386   1.415   .     S
C1386  H1388   1.115   .     S
C1386  H1389   1.109   .     S
C1386  H1387   1.109   .     S
O1390  C1391   1.413   .     S
C1391  H1392   1.109   .     S
C1391  H1393   1.114   .     S
C1391  H1394   1.110   .     S
C1395  O1432   1.284   .     A
C1395  O1429   1.294   .     A
C1395  C1404   1.437   .     S
C1396  O1430   1.286   .     A
C1396  C1403   1.437   .     S
C1396  O1431   1.291   .     A
C1397  C1422   1.421   .     A
C1397  Cl1451  1.766   .     S
C1398  C1421   1.418   .     A
C1398  Cl1452  1.766   .     S
C1398  C686    1.383   1_556 S
C1399  Cl1453  1.775   .     S
C1399  C1404   1.404   .     A
C1400  C1403   1.417   .     A
C1400  Cl1454  1.774   .     S
C1400  C1238   1.386   1_655 S
C1401  Cl1455  1.779   .     S
C1401  C1403   1.413   .     A
C1401  C1235   1.371   1_655 S
C1402  C1404   1.405   .     A
C1402  Cl1456  1.777   .     S
C1405  O1457   1.385   .     S
C1405  N1428   1.365   .     A
C1406  O1462   1.380   .     S
C1406  N1427   1.372   .     A
C1406  C915    1.436   1_565 S
C1407  O1467   1.389   .     S
C1407  N1428   1.367   .     A
C1408  N1427   1.373   .     A
C1408  O1472   1.380   .     S
C1408  C913    1.433   1_565 S
C1409  C1414   1.423   .     S
C1409  O1433   1.281   .     A
C1409  O1436   1.286   .     A
C1410  O1434   1.284   .     A
C1410  C1413   1.420   .     S
C1410  O1435   1.282   .     A
C1411  Cl1439  1.777   .     S
C1411  C1421   1.406   .     A
C1411  C1413   1.397   .     A
C1412  Cl1440  1.776   .     S
C1412  C1422   1.411   .     A
C1412  C1414   1.400   .     A
C1413  C1415   1.392   .     A
C1414  C1416   1.391   .     A
C1415  C1417   1.391   .     A
C1415  O1441   1.388   .     S
C1416  O1446   1.387   .     S
C1416  C1418   1.388   .     A
C1417  C1423   1.395   .     A
C1417  C1419   1.412   .     A
C1418  C1420   1.412   .     A
C1418  C1424   1.396   .     A
C1419  C1421   1.428   .     A
C1419  C682    1.404   1_556 S
C1420  C1422   1.429   .     A
C1423  H1425   1.084   .     S
C1423  C659    1.385   1_556 S
C1424  H1426   1.084   .     S
N1427  Zn1437  2.015   .     S
N1428  Zn1438  2.015   .     S
O1429  Zn1437  1.992   .     S
O1430  Zn1438  1.992   .     S
O1431  Zn1437  2.006   .     S
O1432  Zn1438  2.006   .     S
O1433  Zn1437  2.005   .     S
O1434  Zn1438  2.005   .     S
O1435  Zn1437  2.005   .     S
O1436  Zn1438  2.005   .     S
O1441  C1442   1.412   .     S
C1442  H1445   1.111   .     S
C1442  H1444   1.113   .     S
C1442  H1443   1.109   .     S
O1446  C1447   1.410   .     S
C1447  H1448   1.109   .     S
C1447  H1449   1.113   .     S
C1447  H1450   1.112   .     S
O1457  C1458   1.414   .     S
C1458  H1461   1.110   .     S
C1458  H1460   1.115   .     S
C1458  H1459   1.109   .     S
O1462  C1463   1.414   .     S
C1463  H1465   1.114   .     S
C1463  H1466   1.111   .     S
C1463  H1464   1.109   .     S
O1467  C1468   1.415   .     S
C1468  H1470   1.115   .     S
C1468  H1471   1.109   .     S
C1468  H1469   1.109   .     S
O1472  C1473   1.413   .     S
C1473  H1474   1.109   .     S
C1473  H1475   1.114   .     S
C1473  H1476   1.110   .     S
