data_str_m3_o1_o18_pcu_sym.80
_audit_creation_date              2020-01-03
_audit_creation_method            'Materials Studio'
_symmetry_space_group_name_H-M    'P1'
_symmetry_Int_Tables_number       1
_symmetry_cell_setting            triclinic
loop_
_symmetry_equiv_pos_as_xyz
  x,y,z
_cell_length_a                    29.5977
_cell_length_b                    31.9677
_cell_length_c                    30.9196
_cell_angle_alpha                 90.4924
_cell_angle_beta                  66.9909
_cell_angle_gamma                 90.6743
loop_
_atom_site_label
_atom_site_type_symbol
_atom_site_fract_x
_atom_site_fract_y
_atom_site_fract_z
_atom_site_U_iso_or_equiv
_atom_site_adp_type
_atom_site_occupancy
C1     C     0.16761   0.24656   0.24832   0.00000  Uiso   1.00
C2     C     0.15275   0.31260   0.21625   0.00000  Uiso   1.00
C3     C     0.16450   0.04258   0.25308   0.00000  Uiso   1.00
C4     C     0.16885   0.29075   0.24685   0.00000  Uiso   1.00
C5     C     0.32030   0.13967   0.22198   0.00000  Uiso   1.00
C6     C     0.01292   0.19337   0.27837   0.00000  Uiso   1.00
C7     C     0.03571   0.13924   0.22164   0.00000  Uiso   1.00
C8     C     0.29760   0.19393   0.27854   0.00000  Uiso   1.00
C9     C     0.13564   0.16594   0.33817   0.00000  Uiso   1.00
C10    C     0.19774   0.16655   0.16166   0.00000  Uiso   1.00
C11    C     0.11552   0.15859   0.38874   0.00000  Uiso   1.00
C12    C     0.16573   0.08677   0.25166   0.00000  Uiso   1.00
C13    C     0.21843   0.16787   0.11015   0.00000  Uiso   1.00
C14    C     0.06957   0.11359   0.45461   0.00000  Uiso   1.00
C15    C     0.27673   0.19617   0.03631   0.00000  Uiso   1.00
C16    C     0.07661   0.13006   0.41028   0.00000  Uiso   1.00
C17    C     0.26510   0.18518   0.08360   0.00000  Uiso   1.00
C18    C     0.14339   0.17341   0.41266   0.00000  Uiso   1.00
C19    C     0.18809   0.15474   0.08793   0.00000  Uiso   1.00
C20    C     0.14075   0.15455   0.45410   0.00000  Uiso   1.00
C21    C     0.20063   0.16141   0.04013   0.00000  Uiso   1.00
C22    C     0.10245   0.12506   0.47611   0.00000  Uiso   1.00
C23    C     0.13084   0.11843   0.03926   0.00000  Uiso   1.00
C24    C     0.24382   0.18490   0.01476   0.00000  Uiso   1.00
C25    C     0.17613   0.16370   0.47341   0.00000  Uiso   1.00
C26    C     0.16888   0.14795   0.01819   0.00000  Uiso   1.00
C27    C     0.32648   0.16187   0.10318   0.00000  Uiso   1.00
C28    C     0.01125   0.13736   0.38964   0.00000  Uiso   1.00
C29    C     0.03072   0.08163   0.47579   0.00000  Uiso   1.00
C30    C     0.32136   0.22197   0.01135   0.00000  Uiso   1.00
C31    C     0.19308   0.04109   0.32107   0.00000  Uiso   1.00
C32    C     0.14069   0.29224   0.17858   0.00000  Uiso   1.00
C33    C     0.05746   0.08157   0.16963   0.00000  Uiso   1.00
C34    C     0.21973   0.18642   0.44843   0.00000  Uiso   1.00
C35    C     0.27661   0.25337   0.32771   0.00000  Uiso   1.00
C36    C     0.09860   0.10710   0.01854   0.00000  Uiso   1.00
C37    C     0.25306   0.19618   0.46842   0.00000  Uiso   1.00
C38    C     0.18321   0.31112   0.27954   0.00000  Uiso   1.00
C39    C     0.15012   0.02221   0.22039   0.00000  Uiso   1.00
C40    C     0.18071   0.02073   0.28360   0.00000  Uiso   1.00
H41    H     0.07038   0.08423   0.03652   0.00000  Uiso   1.00
H42    H     0.02362   0.21375   0.30079   0.00000  Uiso   1.00
H43    H     0.30450   0.13475   0.12307   0.00000  Uiso   1.00
H44    H     0.01944   0.17097   0.11923   0.00000  Uiso   1.00
H45    H     0.01476   0.15198   0.06642   0.00000  Uiso   1.00
H46    H     0.33099   0.12809   0.36218   0.00000  Uiso   1.00
H47    H     0.02054   0.17135   0.38505   0.00000  Uiso   1.00
H48    H     0.31433   0.13182   0.42419   0.00000  Uiso   1.00
H49    H     0.01404   0.02138   0.49441   0.00000  Uiso   1.00
H50    H     0.01660   0.27512   0.47614   0.00000  Uiso   1.00
H51    H     0.23316   0.03961   0.36093   0.00000  Uiso   1.00
H52    H     0.28623   0.21265   0.44683   0.00000  Uiso   1.00
H53    H     0.10133   0.29399   0.13806   0.00000  Uiso   1.00
H54    H     0.04601   0.09546   0.14272   0.00000  Uiso   1.00
H55    H     0.02805   0.06157   0.19478   0.00000  Uiso   1.00
H56    H     0.08907   0.06106   0.15062   0.00000  Uiso   1.00
H57    H     0.30511   0.27235   0.30022   0.00000  Uiso   1.00
H58    H     0.28968   0.24225   0.35472   0.00000  Uiso   1.00
H59    H     0.24504   0.27406   0.34618   0.00000  Uiso   1.00
H60    H     0.15272   0.14174   0.10953   0.00000  Uiso   1.00
H61    H     0.16934   0.19818   0.39618   0.00000  Uiso   1.00
H62    H     0.12653   0.10192   0.07090   0.00000  Uiso   1.00
H63    H     0.23052   0.19540   0.41228   0.00000  Uiso   1.00
H64    H     0.19411   0.29316   0.30340   0.00000  Uiso   1.00
H65    H     0.13913   0.04019   0.19658   0.00000  Uiso   1.00
H66    H     0.30929   0.11877   0.20022   0.00000  Uiso   1.00
N67    N     0.04759   0.16668   0.25001   0.00000  Uiso   1.00
N68    N     0.28574   0.16666   0.24999   0.00000  Uiso   1.00
O69    O     0.12846   0.22775   0.25001   0.00000  Uiso   1.00
O70    O     0.05193   0.11234   0.38464   0.00000  Uiso   1.00
O71    O     0.32088   0.09162   0.49103   0.00000  Uiso   1.00
O72    O     0.04371   0.04020   0.47881   0.00000  Uiso   1.00
O73    O     0.02833   0.20983   0.00780   0.00000  Uiso   1.00
O74    O     0.31704   0.26061   0.49254   0.00000  Uiso   1.00
O75    O     0.17180   0.07270   0.34079   0.00000  Uiso   1.00
O76    O     0.22820   0.02321   0.33489   0.00000  Uiso   1.00
O77    O     0.16183   0.26047   0.15915   0.00000  Uiso   1.00
O78    O     0.10610   0.31037   0.16421   0.00000  Uiso   1.00
O79    O     0.07299   0.11287   0.19328   0.00000  Uiso   1.00
O80    O     0.20488   0.10558   0.25000   0.00000  Uiso   1.00
O81    O     0.26015   0.21965   0.30782   0.00000  Uiso   1.00
O82    O     0.20490   0.22774   0.25000   0.00000  Uiso   1.00
O83    O     0.12843   0.10559   0.25000   0.00000  Uiso   1.00
O84    O     0.10661   0.16667   0.31613   0.00000  Uiso   1.00
O85    O     0.22672   0.16666   0.18388   0.00000  Uiso   1.00
O86    O     0.18305   0.16666   0.31612   0.00000  Uiso   1.00
O87    O     0.15028   0.16667   0.18388   0.00000  Uiso   1.00
O88    O     0.29657   0.19650   0.10511   0.00000  Uiso   1.00
Zn89   Zn    0.11562   0.16667   0.25000   0.00000  Uiso   1.00
Zn90   Zn    0.21771   0.16666   0.25000   0.00000  Uiso   1.00
C91    C     0.50094   0.24656   0.24832   0.00000  Uiso   1.00
C92    C     0.48608   0.31260   0.21625   0.00000  Uiso   1.00
C93    C     0.49784   0.04258   0.25308   0.00000  Uiso   1.00
C94    C     0.50219   0.29075   0.24685   0.00000  Uiso   1.00
C95    C     0.65363   0.13967   0.22198   0.00000  Uiso   1.00
C96    C     0.34625   0.19337   0.27837   0.00000  Uiso   1.00
C97    C     0.36904   0.13924   0.22164   0.00000  Uiso   1.00
C98    C     0.63093   0.19393   0.27854   0.00000  Uiso   1.00
C99    C     0.46898   0.16594   0.33817   0.00000  Uiso   1.00
C100   C     0.53107   0.16655   0.16166   0.00000  Uiso   1.00
C101   C     0.44885   0.15859   0.38874   0.00000  Uiso   1.00
C102   C     0.49906   0.08677   0.25166   0.00000  Uiso   1.00
C103   C     0.55177   0.16787   0.11015   0.00000  Uiso   1.00
C104   C     0.40291   0.11359   0.45461   0.00000  Uiso   1.00
C105   C     0.61007   0.19617   0.03631   0.00000  Uiso   1.00
C106   C     0.40994   0.13006   0.41028   0.00000  Uiso   1.00
C107   C     0.59843   0.18518   0.08360   0.00000  Uiso   1.00
C108   C     0.47672   0.17341   0.41266   0.00000  Uiso   1.00
C109   C     0.52142   0.15474   0.08793   0.00000  Uiso   1.00
C110   C     0.47408   0.15455   0.45410   0.00000  Uiso   1.00
C111   C     0.53397   0.16141   0.04013   0.00000  Uiso   1.00
C112   C     0.43578   0.12506   0.47611   0.00000  Uiso   1.00
C113   C     0.46417   0.11843   0.03926   0.00000  Uiso   1.00
C114   C     0.57715   0.18490   0.01476   0.00000  Uiso   1.00
C115   C     0.50946   0.16370   0.47341   0.00000  Uiso   1.00
C116   C     0.50221   0.14795   0.01819   0.00000  Uiso   1.00
C117   C     0.65981   0.16187   0.10318   0.00000  Uiso   1.00
C118   C     0.34459   0.13736   0.38964   0.00000  Uiso   1.00
C119   C     0.36405   0.08163   0.47579   0.00000  Uiso   1.00
C120   C     0.65470   0.22197   0.01135   0.00000  Uiso   1.00
C121   C     0.52641   0.04109   0.32107   0.00000  Uiso   1.00
C122   C     0.47402   0.29224   0.17858   0.00000  Uiso   1.00
C123   C     0.39079   0.08157   0.16963   0.00000  Uiso   1.00
C124   C     0.55306   0.18642   0.44843   0.00000  Uiso   1.00
C125   C     0.60994   0.25337   0.32771   0.00000  Uiso   1.00
C126   C     0.43194   0.10710   0.01854   0.00000  Uiso   1.00
C127   C     0.58640   0.19618   0.46842   0.00000  Uiso   1.00
C128   C     0.51654   0.31112   0.27954   0.00000  Uiso   1.00
C129   C     0.48345   0.02221   0.22039   0.00000  Uiso   1.00
C130   C     0.51404   0.02073   0.28360   0.00000  Uiso   1.00
H131   H     0.40371   0.08423   0.03652   0.00000  Uiso   1.00
H132   H     0.35696   0.21375   0.30079   0.00000  Uiso   1.00
H133   H     0.63783   0.13475   0.12307   0.00000  Uiso   1.00
H134   H     0.35277   0.17097   0.11923   0.00000  Uiso   1.00
H135   H     0.34810   0.15198   0.06642   0.00000  Uiso   1.00
H136   H     0.66432   0.12809   0.36218   0.00000  Uiso   1.00
H137   H     0.35388   0.17135   0.38505   0.00000  Uiso   1.00
H138   H     0.64766   0.13182   0.42419   0.00000  Uiso   1.00
H139   H     0.34737   0.02138   0.49441   0.00000  Uiso   1.00
H140   H     0.34994   0.27512   0.47614   0.00000  Uiso   1.00
H141   H     0.56649   0.03961   0.36093   0.00000  Uiso   1.00
H142   H     0.61956   0.21265   0.44683   0.00000  Uiso   1.00
H143   H     0.43466   0.29399   0.13806   0.00000  Uiso   1.00
H144   H     0.37934   0.09546   0.14272   0.00000  Uiso   1.00
H145   H     0.36139   0.06157   0.19478   0.00000  Uiso   1.00
H146   H     0.42241   0.06106   0.15062   0.00000  Uiso   1.00
H147   H     0.63844   0.27235   0.30022   0.00000  Uiso   1.00
H148   H     0.62302   0.24225   0.35472   0.00000  Uiso   1.00
H149   H     0.57837   0.27406   0.34618   0.00000  Uiso   1.00
H150   H     0.48605   0.14174   0.10953   0.00000  Uiso   1.00
H151   H     0.50267   0.19818   0.39618   0.00000  Uiso   1.00
H152   H     0.45986   0.10192   0.07090   0.00000  Uiso   1.00
H153   H     0.56386   0.19540   0.41228   0.00000  Uiso   1.00
H154   H     0.52744   0.29316   0.30340   0.00000  Uiso   1.00
H155   H     0.47247   0.04019   0.19658   0.00000  Uiso   1.00
H156   H     0.64263   0.11877   0.20022   0.00000  Uiso   1.00
N157   N     0.38093   0.16668   0.25001   0.00000  Uiso   1.00
N158   N     0.61907   0.16666   0.24999   0.00000  Uiso   1.00
O159   O     0.46179   0.22775   0.25001   0.00000  Uiso   1.00
O160   O     0.38526   0.11234   0.38464   0.00000  Uiso   1.00
O161   O     0.65421   0.09162   0.49103   0.00000  Uiso   1.00
O162   O     0.37705   0.04020   0.47881   0.00000  Uiso   1.00
O163   O     0.36166   0.20983   0.00780   0.00000  Uiso   1.00
O164   O     0.65037   0.26061   0.49254   0.00000  Uiso   1.00
O165   O     0.50513   0.07270   0.34079   0.00000  Uiso   1.00
O166   O     0.56153   0.02321   0.33489   0.00000  Uiso   1.00
O167   O     0.49516   0.26047   0.15915   0.00000  Uiso   1.00
O168   O     0.43943   0.31037   0.16421   0.00000  Uiso   1.00
O169   O     0.40632   0.11287   0.19328   0.00000  Uiso   1.00
O170   O     0.53821   0.10558   0.25000   0.00000  Uiso   1.00
O171   O     0.59348   0.21965   0.30782   0.00000  Uiso   1.00
O172   O     0.53823   0.22774   0.25000   0.00000  Uiso   1.00
O173   O     0.46177   0.10559   0.25000   0.00000  Uiso   1.00
O174   O     0.43994   0.16667   0.31613   0.00000  Uiso   1.00
O175   O     0.56006   0.16666   0.18388   0.00000  Uiso   1.00
O176   O     0.51639   0.16666   0.31612   0.00000  Uiso   1.00
O177   O     0.48361   0.16667   0.18388   0.00000  Uiso   1.00
O178   O     0.62990   0.19650   0.10511   0.00000  Uiso   1.00
Zn179  Zn    0.44896   0.16667   0.25000   0.00000  Uiso   1.00
Zn180  Zn    0.55104   0.16666   0.25000   0.00000  Uiso   1.00
C181   C     0.83428   0.24656   0.24832   0.00000  Uiso   1.00
C182   C     0.81941   0.31260   0.21625   0.00000  Uiso   1.00
C183   C     0.83117   0.04258   0.25308   0.00000  Uiso   1.00
C184   C     0.83552   0.29075   0.24685   0.00000  Uiso   1.00
C185   C     0.98696   0.13967   0.22198   0.00000  Uiso   1.00
C186   C     0.67958   0.19337   0.27837   0.00000  Uiso   1.00
C187   C     0.70237   0.13924   0.22164   0.00000  Uiso   1.00
C188   C     0.96427   0.19393   0.27854   0.00000  Uiso   1.00
C189   C     0.80231   0.16594   0.33817   0.00000  Uiso   1.00
C190   C     0.86441   0.16655   0.16166   0.00000  Uiso   1.00
C191   C     0.78218   0.15859   0.38874   0.00000  Uiso   1.00
C192   C     0.83240   0.08677   0.25166   0.00000  Uiso   1.00
C193   C     0.88510   0.16787   0.11015   0.00000  Uiso   1.00
C194   C     0.73624   0.11359   0.45461   0.00000  Uiso   1.00
C195   C     0.94340   0.19617   0.03631   0.00000  Uiso   1.00
C196   C     0.74327   0.13006   0.41028   0.00000  Uiso   1.00
C197   C     0.93176   0.18518   0.08360   0.00000  Uiso   1.00
C198   C     0.81006   0.17341   0.41266   0.00000  Uiso   1.00
C199   C     0.85475   0.15474   0.08793   0.00000  Uiso   1.00
C200   C     0.80741   0.15455   0.45410   0.00000  Uiso   1.00
C201   C     0.86730   0.16141   0.04013   0.00000  Uiso   1.00
C202   C     0.76911   0.12506   0.47611   0.00000  Uiso   1.00
C203   C     0.79750   0.11843   0.03926   0.00000  Uiso   1.00
C204   C     0.91048   0.18490   0.01476   0.00000  Uiso   1.00
C205   C     0.84280   0.16370   0.47341   0.00000  Uiso   1.00
C206   C     0.83554   0.14795   0.01819   0.00000  Uiso   1.00
C207   C     0.99314   0.16187   0.10318   0.00000  Uiso   1.00
C208   C     0.67792   0.13736   0.38964   0.00000  Uiso   1.00
C209   C     0.69739   0.08163   0.47579   0.00000  Uiso   1.00
C210   C     0.98803   0.22197   0.01135   0.00000  Uiso   1.00
C211   C     0.85975   0.04109   0.32107   0.00000  Uiso   1.00
C212   C     0.80735   0.29224   0.17858   0.00000  Uiso   1.00
C213   C     0.72413   0.08157   0.16963   0.00000  Uiso   1.00
C214   C     0.88640   0.18642   0.44843   0.00000  Uiso   1.00
C215   C     0.94327   0.25337   0.32771   0.00000  Uiso   1.00
C216   C     0.76527   0.10710   0.01854   0.00000  Uiso   1.00
C217   C     0.91973   0.19618   0.46842   0.00000  Uiso   1.00
C218   C     0.84987   0.31112   0.27954   0.00000  Uiso   1.00
C219   C     0.81679   0.02221   0.22039   0.00000  Uiso   1.00
C220   C     0.84738   0.02073   0.28360   0.00000  Uiso   1.00
H221   H     0.73705   0.08423   0.03652   0.00000  Uiso   1.00
H222   H     0.69029   0.21375   0.30079   0.00000  Uiso   1.00
H223   H     0.97116   0.13475   0.12307   0.00000  Uiso   1.00
H224   H     0.68610   0.17097   0.11923   0.00000  Uiso   1.00
H225   H     0.68143   0.15198   0.06642   0.00000  Uiso   1.00
H226   H     0.99765   0.12809   0.36218   0.00000  Uiso   1.00
H227   H     0.68721   0.17135   0.38505   0.00000  Uiso   1.00
H228   H     0.98100   0.13182   0.42419   0.00000  Uiso   1.00
H229   H     0.68071   0.02138   0.49441   0.00000  Uiso   1.00
H230   H     0.68327   0.27512   0.47614   0.00000  Uiso   1.00
H231   H     0.89983   0.03961   0.36093   0.00000  Uiso   1.00
H232   H     0.95289   0.21265   0.44683   0.00000  Uiso   1.00
H233   H     0.76799   0.29399   0.13806   0.00000  Uiso   1.00
H234   H     0.71267   0.09546   0.14272   0.00000  Uiso   1.00
H235   H     0.69472   0.06157   0.19478   0.00000  Uiso   1.00
H236   H     0.75574   0.06106   0.15062   0.00000  Uiso   1.00
H237   H     0.97178   0.27235   0.30022   0.00000  Uiso   1.00
H238   H     0.95635   0.24225   0.35472   0.00000  Uiso   1.00
H239   H     0.91170   0.27406   0.34618   0.00000  Uiso   1.00
H240   H     0.81939   0.14174   0.10953   0.00000  Uiso   1.00
H241   H     0.83601   0.19818   0.39618   0.00000  Uiso   1.00
H242   H     0.79320   0.10192   0.07090   0.00000  Uiso   1.00
H243   H     0.89719   0.19540   0.41228   0.00000  Uiso   1.00
H244   H     0.86077   0.29316   0.30340   0.00000  Uiso   1.00
H245   H     0.80580   0.04019   0.19658   0.00000  Uiso   1.00
H246   H     0.97596   0.11877   0.20022   0.00000  Uiso   1.00
N247   N     0.71426   0.16668   0.25001   0.00000  Uiso   1.00
N248   N     0.95241   0.16666   0.24999   0.00000  Uiso   1.00
O249   O     0.79512   0.22775   0.25001   0.00000  Uiso   1.00
O250   O     0.71860   0.11234   0.38464   0.00000  Uiso   1.00
O251   O     0.98754   0.09162   0.49103   0.00000  Uiso   1.00
O252   O     0.71038   0.04020   0.47881   0.00000  Uiso   1.00
O253   O     0.69499   0.20983   0.00780   0.00000  Uiso   1.00
O254   O     0.98371   0.26061   0.49254   0.00000  Uiso   1.00
O255   O     0.83847   0.07270   0.34079   0.00000  Uiso   1.00
O256   O     0.89487   0.02321   0.33489   0.00000  Uiso   1.00
O257   O     0.82849   0.26047   0.15915   0.00000  Uiso   1.00
O258   O     0.77276   0.31037   0.16421   0.00000  Uiso   1.00
O259   O     0.73966   0.11287   0.19328   0.00000  Uiso   1.00
O260   O     0.87154   0.10558   0.25000   0.00000  Uiso   1.00
O261   O     0.92681   0.21965   0.30782   0.00000  Uiso   1.00
O262   O     0.87157   0.22774   0.25000   0.00000  Uiso   1.00
O263   O     0.79510   0.10559   0.25000   0.00000  Uiso   1.00
O264   O     0.77328   0.16667   0.31613   0.00000  Uiso   1.00
O265   O     0.89339   0.16666   0.18388   0.00000  Uiso   1.00
O266   O     0.84972   0.16666   0.31612   0.00000  Uiso   1.00
O267   O     0.81695   0.16667   0.18388   0.00000  Uiso   1.00
O268   O     0.96324   0.19650   0.10511   0.00000  Uiso   1.00
Zn269  Zn    0.78229   0.16667   0.25000   0.00000  Uiso   1.00
Zn270  Zn    0.88438   0.16666   0.25000   0.00000  Uiso   1.00
C271   C     0.16761   0.57989   0.24832   0.00000  Uiso   1.00
C272   C     0.15275   0.64593   0.21625   0.00000  Uiso   1.00
C273   C     0.16450   0.37592   0.25308   0.00000  Uiso   1.00
C274   C     0.16885   0.62408   0.24685   0.00000  Uiso   1.00
C275   C     0.32030   0.47301   0.22198   0.00000  Uiso   1.00
C276   C     0.01292   0.52670   0.27837   0.00000  Uiso   1.00
C277   C     0.03571   0.47258   0.22164   0.00000  Uiso   1.00
C278   C     0.29760   0.52726   0.27854   0.00000  Uiso   1.00
C279   C     0.13564   0.49928   0.33817   0.00000  Uiso   1.00
C280   C     0.19774   0.49988   0.16166   0.00000  Uiso   1.00
C281   C     0.11552   0.49192   0.38874   0.00000  Uiso   1.00
C282   C     0.16573   0.42011   0.25166   0.00000  Uiso   1.00
C283   C     0.21843   0.50120   0.11015   0.00000  Uiso   1.00
C284   C     0.06957   0.44693   0.45461   0.00000  Uiso   1.00
C285   C     0.27673   0.52951   0.03631   0.00000  Uiso   1.00
C286   C     0.07661   0.46339   0.41028   0.00000  Uiso   1.00
C287   C     0.26510   0.51851   0.08360   0.00000  Uiso   1.00
C288   C     0.14339   0.50674   0.41266   0.00000  Uiso   1.00
C289   C     0.18809   0.48807   0.08793   0.00000  Uiso   1.00
C290   C     0.14075   0.48788   0.45410   0.00000  Uiso   1.00
C291   C     0.20063   0.49474   0.04013   0.00000  Uiso   1.00
C292   C     0.10245   0.45839   0.47611   0.00000  Uiso   1.00
C293   C     0.13084   0.45176   0.03926   0.00000  Uiso   1.00
C294   C     0.24382   0.51823   0.01476   0.00000  Uiso   1.00
C295   C     0.17613   0.49703   0.47341   0.00000  Uiso   1.00
C296   C     0.16888   0.48128   0.01819   0.00000  Uiso   1.00
C297   C     0.32648   0.49520   0.10318   0.00000  Uiso   1.00
C298   C     0.01125   0.47070   0.38964   0.00000  Uiso   1.00
C299   C     0.03072   0.41496   0.47579   0.00000  Uiso   1.00
C300   C     0.32136   0.55530   0.01135   0.00000  Uiso   1.00
C301   C     0.19308   0.37443   0.32107   0.00000  Uiso   1.00
C302   C     0.14069   0.62558   0.17858   0.00000  Uiso   1.00
C303   C     0.05746   0.41490   0.16963   0.00000  Uiso   1.00
C304   C     0.21973   0.51975   0.44843   0.00000  Uiso   1.00
C305   C     0.27661   0.58670   0.32771   0.00000  Uiso   1.00
C306   C     0.09860   0.44043   0.01854   0.00000  Uiso   1.00
C307   C     0.25306   0.52952   0.46842   0.00000  Uiso   1.00
C308   C     0.18321   0.64446   0.27954   0.00000  Uiso   1.00
C309   C     0.15012   0.35555   0.22039   0.00000  Uiso   1.00
C310   C     0.18071   0.35407   0.28360   0.00000  Uiso   1.00
H311   H     0.07038   0.41756   0.03652   0.00000  Uiso   1.00
H312   H     0.02362   0.54708   0.30079   0.00000  Uiso   1.00
H313   H     0.30450   0.46809   0.12307   0.00000  Uiso   1.00
H314   H     0.01944   0.50430   0.11923   0.00000  Uiso   1.00
H315   H     0.01476   0.48531   0.06642   0.00000  Uiso   1.00
H316   H     0.33099   0.46142   0.36218   0.00000  Uiso   1.00
H317   H     0.02054   0.50469   0.38505   0.00000  Uiso   1.00
H318   H     0.31433   0.46516   0.42419   0.00000  Uiso   1.00
H319   H     0.01404   0.35471   0.49441   0.00000  Uiso   1.00
H320   H     0.01660   0.60846   0.47614   0.00000  Uiso   1.00
H321   H     0.23316   0.37294   0.36093   0.00000  Uiso   1.00
H322   H     0.28623   0.54598   0.44683   0.00000  Uiso   1.00
H323   H     0.10133   0.62732   0.13806   0.00000  Uiso   1.00
H324   H     0.04601   0.42880   0.14272   0.00000  Uiso   1.00
H325   H     0.02805   0.39490   0.19478   0.00000  Uiso   1.00
H326   H     0.08907   0.39440   0.15062   0.00000  Uiso   1.00
H327   H     0.30511   0.60568   0.30022   0.00000  Uiso   1.00
H328   H     0.28968   0.57558   0.35472   0.00000  Uiso   1.00
H329   H     0.24504   0.60739   0.34618   0.00000  Uiso   1.00
H330   H     0.15272   0.47508   0.10953   0.00000  Uiso   1.00
H331   H     0.16934   0.53151   0.39618   0.00000  Uiso   1.00
H332   H     0.12653   0.43525   0.07090   0.00000  Uiso   1.00
H333   H     0.23052   0.52873   0.41228   0.00000  Uiso   1.00
H334   H     0.19411   0.62649   0.30340   0.00000  Uiso   1.00
H335   H     0.13913   0.37352   0.19658   0.00000  Uiso   1.00
H336   H     0.30929   0.45210   0.20022   0.00000  Uiso   1.00
N337   N     0.04759   0.50001   0.25001   0.00000  Uiso   1.00
N338   N     0.28574   0.49999   0.24999   0.00000  Uiso   1.00
O339   O     0.12846   0.56108   0.25001   0.00000  Uiso   1.00
O340   O     0.05193   0.44567   0.38464   0.00000  Uiso   1.00
O341   O     0.32088   0.42495   0.49103   0.00000  Uiso   1.00
O342   O     0.04371   0.37353   0.47881   0.00000  Uiso   1.00
O343   O     0.02833   0.54316   0.00780   0.00000  Uiso   1.00
O344   O     0.31704   0.59394   0.49254   0.00000  Uiso   1.00
O345   O     0.17180   0.40603   0.34079   0.00000  Uiso   1.00
O346   O     0.22820   0.35654   0.33489   0.00000  Uiso   1.00
O347   O     0.16183   0.59381   0.15915   0.00000  Uiso   1.00
O348   O     0.10610   0.64371   0.16421   0.00000  Uiso   1.00
O349   O     0.07299   0.44620   0.19328   0.00000  Uiso   1.00
O350   O     0.20488   0.43892   0.25000   0.00000  Uiso   1.00
O351   O     0.26015   0.55298   0.30782   0.00000  Uiso   1.00
O352   O     0.20490   0.56107   0.25000   0.00000  Uiso   1.00
O353   O     0.12843   0.43893   0.25000   0.00000  Uiso   1.00
O354   O     0.10661   0.50001   0.31613   0.00000  Uiso   1.00
O355   O     0.22672   0.49999   0.18388   0.00000  Uiso   1.00
O356   O     0.18305   0.50000   0.31612   0.00000  Uiso   1.00
O357   O     0.15028   0.50000   0.18388   0.00000  Uiso   1.00
O358   O     0.29657   0.52984   0.10511   0.00000  Uiso   1.00
Zn359  Zn    0.11562   0.50001   0.25000   0.00000  Uiso   1.00
Zn360  Zn    0.21771   0.49999   0.25000   0.00000  Uiso   1.00
C361   C     0.50094   0.57989   0.24832   0.00000  Uiso   1.00
C362   C     0.48608   0.64593   0.21625   0.00000  Uiso   1.00
C363   C     0.49784   0.37592   0.25308   0.00000  Uiso   1.00
C364   C     0.50219   0.62408   0.24685   0.00000  Uiso   1.00
C365   C     0.65363   0.47301   0.22198   0.00000  Uiso   1.00
C366   C     0.34625   0.52670   0.27837   0.00000  Uiso   1.00
C367   C     0.36904   0.47258   0.22164   0.00000  Uiso   1.00
C368   C     0.63093   0.52726   0.27854   0.00000  Uiso   1.00
C369   C     0.46898   0.49928   0.33817   0.00000  Uiso   1.00
C370   C     0.53107   0.49988   0.16166   0.00000  Uiso   1.00
C371   C     0.44885   0.49192   0.38874   0.00000  Uiso   1.00
C372   C     0.49906   0.42011   0.25166   0.00000  Uiso   1.00
C373   C     0.55177   0.50120   0.11015   0.00000  Uiso   1.00
C374   C     0.40291   0.44693   0.45461   0.00000  Uiso   1.00
C375   C     0.61007   0.52951   0.03631   0.00000  Uiso   1.00
C376   C     0.40994   0.46339   0.41028   0.00000  Uiso   1.00
C377   C     0.59843   0.51851   0.08360   0.00000  Uiso   1.00
C378   C     0.47672   0.50674   0.41266   0.00000  Uiso   1.00
C379   C     0.52142   0.48807   0.08793   0.00000  Uiso   1.00
C380   C     0.47408   0.48788   0.45410   0.00000  Uiso   1.00
C381   C     0.53397   0.49474   0.04013   0.00000  Uiso   1.00
C382   C     0.43578   0.45839   0.47611   0.00000  Uiso   1.00
C383   C     0.46417   0.45176   0.03926   0.00000  Uiso   1.00
C384   C     0.57715   0.51823   0.01476   0.00000  Uiso   1.00
C385   C     0.50946   0.49703   0.47341   0.00000  Uiso   1.00
C386   C     0.50221   0.48128   0.01819   0.00000  Uiso   1.00
C387   C     0.65981   0.49520   0.10318   0.00000  Uiso   1.00
C388   C     0.34459   0.47070   0.38964   0.00000  Uiso   1.00
C389   C     0.36405   0.41496   0.47579   0.00000  Uiso   1.00
C390   C     0.65470   0.55530   0.01135   0.00000  Uiso   1.00
C391   C     0.52641   0.37443   0.32107   0.00000  Uiso   1.00
C392   C     0.47402   0.62558   0.17858   0.00000  Uiso   1.00
C393   C     0.39079   0.41490   0.16963   0.00000  Uiso   1.00
C394   C     0.55306   0.51975   0.44843   0.00000  Uiso   1.00
C395   C     0.60994   0.58670   0.32771   0.00000  Uiso   1.00
C396   C     0.43194   0.44043   0.01854   0.00000  Uiso   1.00
C397   C     0.58640   0.52952   0.46842   0.00000  Uiso   1.00
C398   C     0.51654   0.64446   0.27954   0.00000  Uiso   1.00
C399   C     0.48345   0.35555   0.22039   0.00000  Uiso   1.00
C400   C     0.51404   0.35407   0.28360   0.00000  Uiso   1.00
H401   H     0.40371   0.41756   0.03652   0.00000  Uiso   1.00
H402   H     0.35696   0.54708   0.30079   0.00000  Uiso   1.00
H403   H     0.63783   0.46809   0.12307   0.00000  Uiso   1.00
H404   H     0.35277   0.50430   0.11923   0.00000  Uiso   1.00
H405   H     0.34810   0.48531   0.06642   0.00000  Uiso   1.00
H406   H     0.66432   0.46142   0.36218   0.00000  Uiso   1.00
H407   H     0.35388   0.50469   0.38505   0.00000  Uiso   1.00
H408   H     0.64766   0.46516   0.42419   0.00000  Uiso   1.00
H409   H     0.34737   0.35471   0.49441   0.00000  Uiso   1.00
H410   H     0.34994   0.60846   0.47614   0.00000  Uiso   1.00
H411   H     0.56649   0.37294   0.36093   0.00000  Uiso   1.00
H412   H     0.61956   0.54598   0.44683   0.00000  Uiso   1.00
H413   H     0.43466   0.62732   0.13806   0.00000  Uiso   1.00
H414   H     0.37934   0.42880   0.14272   0.00000  Uiso   1.00
H415   H     0.36139   0.39490   0.19478   0.00000  Uiso   1.00
H416   H     0.42241   0.39440   0.15062   0.00000  Uiso   1.00
H417   H     0.63844   0.60568   0.30022   0.00000  Uiso   1.00
H418   H     0.62302   0.57558   0.35472   0.00000  Uiso   1.00
H419   H     0.57837   0.60739   0.34618   0.00000  Uiso   1.00
H420   H     0.48605   0.47508   0.10953   0.00000  Uiso   1.00
H421   H     0.50267   0.53151   0.39618   0.00000  Uiso   1.00
H422   H     0.45986   0.43525   0.07090   0.00000  Uiso   1.00
H423   H     0.56386   0.52873   0.41228   0.00000  Uiso   1.00
H424   H     0.52744   0.62649   0.30340   0.00000  Uiso   1.00
H425   H     0.47247   0.37352   0.19658   0.00000  Uiso   1.00
H426   H     0.64263   0.45210   0.20022   0.00000  Uiso   1.00
N427   N     0.38093   0.50001   0.25001   0.00000  Uiso   1.00
N428   N     0.61907   0.49999   0.24999   0.00000  Uiso   1.00
O429   O     0.46179   0.56108   0.25001   0.00000  Uiso   1.00
O430   O     0.38526   0.44567   0.38464   0.00000  Uiso   1.00
O431   O     0.65421   0.42495   0.49103   0.00000  Uiso   1.00
O432   O     0.37705   0.37353   0.47881   0.00000  Uiso   1.00
O433   O     0.36166   0.54316   0.00780   0.00000  Uiso   1.00
O434   O     0.65037   0.59394   0.49254   0.00000  Uiso   1.00
O435   O     0.50513   0.40603   0.34079   0.00000  Uiso   1.00
O436   O     0.56153   0.35654   0.33489   0.00000  Uiso   1.00
O437   O     0.49516   0.59381   0.15915   0.00000  Uiso   1.00
O438   O     0.43943   0.64371   0.16421   0.00000  Uiso   1.00
O439   O     0.40632   0.44620   0.19328   0.00000  Uiso   1.00
O440   O     0.53821   0.43892   0.25000   0.00000  Uiso   1.00
O441   O     0.59348   0.55298   0.30782   0.00000  Uiso   1.00
O442   O     0.53823   0.56107   0.25000   0.00000  Uiso   1.00
O443   O     0.46177   0.43893   0.25000   0.00000  Uiso   1.00
O444   O     0.43994   0.50001   0.31613   0.00000  Uiso   1.00
O445   O     0.56006   0.49999   0.18388   0.00000  Uiso   1.00
O446   O     0.51639   0.50000   0.31612   0.00000  Uiso   1.00
O447   O     0.48361   0.50000   0.18388   0.00000  Uiso   1.00
O448   O     0.62990   0.52984   0.10511   0.00000  Uiso   1.00
Zn449  Zn    0.44896   0.50001   0.25000   0.00000  Uiso   1.00
Zn450  Zn    0.55104   0.49999   0.25000   0.00000  Uiso   1.00
C451   C     0.83428   0.57989   0.24832   0.00000  Uiso   1.00
C452   C     0.81941   0.64593   0.21625   0.00000  Uiso   1.00
C453   C     0.83117   0.37592   0.25308   0.00000  Uiso   1.00
C454   C     0.83552   0.62408   0.24685   0.00000  Uiso   1.00
C455   C     0.98696   0.47301   0.22198   0.00000  Uiso   1.00
C456   C     0.67958   0.52670   0.27837   0.00000  Uiso   1.00
C457   C     0.70237   0.47258   0.22164   0.00000  Uiso   1.00
C458   C     0.96427   0.52726   0.27854   0.00000  Uiso   1.00
C459   C     0.80231   0.49928   0.33817   0.00000  Uiso   1.00
C460   C     0.86441   0.49988   0.16166   0.00000  Uiso   1.00
C461   C     0.78218   0.49192   0.38874   0.00000  Uiso   1.00
C462   C     0.83240   0.42011   0.25166   0.00000  Uiso   1.00
C463   C     0.88510   0.50120   0.11015   0.00000  Uiso   1.00
C464   C     0.73624   0.44693   0.45461   0.00000  Uiso   1.00
C465   C     0.94340   0.52951   0.03631   0.00000  Uiso   1.00
C466   C     0.74327   0.46339   0.41028   0.00000  Uiso   1.00
C467   C     0.93176   0.51851   0.08360   0.00000  Uiso   1.00
C468   C     0.81006   0.50674   0.41266   0.00000  Uiso   1.00
C469   C     0.85475   0.48807   0.08793   0.00000  Uiso   1.00
C470   C     0.80741   0.48788   0.45410   0.00000  Uiso   1.00
C471   C     0.86730   0.49474   0.04013   0.00000  Uiso   1.00
C472   C     0.76911   0.45839   0.47611   0.00000  Uiso   1.00
C473   C     0.79750   0.45176   0.03926   0.00000  Uiso   1.00
C474   C     0.91048   0.51823   0.01476   0.00000  Uiso   1.00
C475   C     0.84280   0.49703   0.47341   0.00000  Uiso   1.00
C476   C     0.83554   0.48128   0.01819   0.00000  Uiso   1.00
C477   C     0.99314   0.49520   0.10318   0.00000  Uiso   1.00
C478   C     0.67792   0.47070   0.38964   0.00000  Uiso   1.00
C479   C     0.69739   0.41496   0.47579   0.00000  Uiso   1.00
C480   C     0.98803   0.55530   0.01135   0.00000  Uiso   1.00
C481   C     0.85975   0.37443   0.32107   0.00000  Uiso   1.00
C482   C     0.80735   0.62558   0.17858   0.00000  Uiso   1.00
C483   C     0.72413   0.41490   0.16963   0.00000  Uiso   1.00
C484   C     0.88640   0.51975   0.44843   0.00000  Uiso   1.00
C485   C     0.94327   0.58670   0.32771   0.00000  Uiso   1.00
C486   C     0.76527   0.44043   0.01854   0.00000  Uiso   1.00
C487   C     0.91973   0.52952   0.46842   0.00000  Uiso   1.00
C488   C     0.84987   0.64446   0.27954   0.00000  Uiso   1.00
C489   C     0.81679   0.35555   0.22039   0.00000  Uiso   1.00
C490   C     0.84738   0.35407   0.28360   0.00000  Uiso   1.00
H491   H     0.73705   0.41756   0.03652   0.00000  Uiso   1.00
H492   H     0.69029   0.54708   0.30079   0.00000  Uiso   1.00
H493   H     0.97116   0.46809   0.12307   0.00000  Uiso   1.00
H494   H     0.68610   0.50430   0.11923   0.00000  Uiso   1.00
H495   H     0.68143   0.48531   0.06642   0.00000  Uiso   1.00
H496   H     0.99765   0.46142   0.36218   0.00000  Uiso   1.00
H497   H     0.68721   0.50469   0.38505   0.00000  Uiso   1.00
H498   H     0.98100   0.46516   0.42419   0.00000  Uiso   1.00
H499   H     0.68071   0.35471   0.49441   0.00000  Uiso   1.00
H500   H     0.68327   0.60846   0.47614   0.00000  Uiso   1.00
H501   H     0.89983   0.37294   0.36093   0.00000  Uiso   1.00
H502   H     0.95289   0.54598   0.44683   0.00000  Uiso   1.00
H503   H     0.76799   0.62732   0.13806   0.00000  Uiso   1.00
H504   H     0.71267   0.42880   0.14272   0.00000  Uiso   1.00
H505   H     0.69472   0.39490   0.19478   0.00000  Uiso   1.00
H506   H     0.75574   0.39440   0.15062   0.00000  Uiso   1.00
H507   H     0.97178   0.60568   0.30022   0.00000  Uiso   1.00
H508   H     0.95635   0.57558   0.35472   0.00000  Uiso   1.00
H509   H     0.91170   0.60739   0.34618   0.00000  Uiso   1.00
H510   H     0.81939   0.47508   0.10953   0.00000  Uiso   1.00
H511   H     0.83601   0.53151   0.39618   0.00000  Uiso   1.00
H512   H     0.79320   0.43525   0.07090   0.00000  Uiso   1.00
H513   H     0.89719   0.52873   0.41228   0.00000  Uiso   1.00
H514   H     0.86077   0.62649   0.30340   0.00000  Uiso   1.00
H515   H     0.80580   0.37352   0.19658   0.00000  Uiso   1.00
H516   H     0.97596   0.45210   0.20022   0.00000  Uiso   1.00
N517   N     0.71426   0.50001   0.25001   0.00000  Uiso   1.00
N518   N     0.95241   0.49999   0.24999   0.00000  Uiso   1.00
O519   O     0.79512   0.56108   0.25001   0.00000  Uiso   1.00
O520   O     0.71860   0.44567   0.38464   0.00000  Uiso   1.00
O521   O     0.98754   0.42495   0.49103   0.00000  Uiso   1.00
O522   O     0.71038   0.37353   0.47881   0.00000  Uiso   1.00
O523   O     0.69499   0.54316   0.00780   0.00000  Uiso   1.00
O524   O     0.98371   0.59394   0.49254   0.00000  Uiso   1.00
O525   O     0.83847   0.40603   0.34079   0.00000  Uiso   1.00
O526   O     0.89487   0.35654   0.33489   0.00000  Uiso   1.00
O527   O     0.82849   0.59381   0.15915   0.00000  Uiso   1.00
O528   O     0.77276   0.64371   0.16421   0.00000  Uiso   1.00
O529   O     0.73966   0.44620   0.19328   0.00000  Uiso   1.00
O530   O     0.87154   0.43892   0.25000   0.00000  Uiso   1.00
O531   O     0.92681   0.55298   0.30782   0.00000  Uiso   1.00
O532   O     0.87157   0.56107   0.25000   0.00000  Uiso   1.00
O533   O     0.79510   0.43893   0.25000   0.00000  Uiso   1.00
O534   O     0.77328   0.50001   0.31613   0.00000  Uiso   1.00
O535   O     0.89339   0.49999   0.18388   0.00000  Uiso   1.00
O536   O     0.84972   0.50000   0.31612   0.00000  Uiso   1.00
O537   O     0.81695   0.50000   0.18388   0.00000  Uiso   1.00
O538   O     0.96324   0.52984   0.10511   0.00000  Uiso   1.00
Zn539  Zn    0.78229   0.50001   0.25000   0.00000  Uiso   1.00
Zn540  Zn    0.88438   0.49999   0.25000   0.00000  Uiso   1.00
C541   C     0.16761   0.91322   0.24832   0.00000  Uiso   1.00
C542   C     0.15275   0.97927   0.21625   0.00000  Uiso   1.00
C543   C     0.16450   0.70925   0.25308   0.00000  Uiso   1.00
C544   C     0.16885   0.95742   0.24685   0.00000  Uiso   1.00
C545   C     0.32030   0.80634   0.22198   0.00000  Uiso   1.00
C546   C     0.01292   0.86004   0.27837   0.00000  Uiso   1.00
C547   C     0.03571   0.80591   0.22164   0.00000  Uiso   1.00
C548   C     0.29760   0.86060   0.27854   0.00000  Uiso   1.00
C549   C     0.13564   0.83261   0.33817   0.00000  Uiso   1.00
C550   C     0.19774   0.83321   0.16166   0.00000  Uiso   1.00
C551   C     0.11552   0.82526   0.38874   0.00000  Uiso   1.00
C552   C     0.16573   0.75344   0.25166   0.00000  Uiso   1.00
C553   C     0.21843   0.83454   0.11015   0.00000  Uiso   1.00
C554   C     0.06957   0.78026   0.45461   0.00000  Uiso   1.00
C555   C     0.27673   0.86284   0.03631   0.00000  Uiso   1.00
C556   C     0.07661   0.79673   0.41028   0.00000  Uiso   1.00
C557   C     0.26510   0.85184   0.08360   0.00000  Uiso   1.00
C558   C     0.14339   0.84007   0.41266   0.00000  Uiso   1.00
C559   C     0.18809   0.82141   0.08793   0.00000  Uiso   1.00
C560   C     0.14075   0.82122   0.45410   0.00000  Uiso   1.00
C561   C     0.20063   0.82808   0.04013   0.00000  Uiso   1.00
C562   C     0.10245   0.79173   0.47611   0.00000  Uiso   1.00
C563   C     0.13084   0.78510   0.03926   0.00000  Uiso   1.00
C564   C     0.24382   0.85157   0.01476   0.00000  Uiso   1.00
C565   C     0.17613   0.83037   0.47341   0.00000  Uiso   1.00
C566   C     0.16888   0.81462   0.01819   0.00000  Uiso   1.00
C567   C     0.32648   0.82853   0.10318   0.00000  Uiso   1.00
C568   C     0.01125   0.80403   0.38964   0.00000  Uiso   1.00
C569   C     0.03072   0.74829   0.47579   0.00000  Uiso   1.00
C570   C     0.32136   0.88864   0.01135   0.00000  Uiso   1.00
C571   C     0.19308   0.70776   0.32107   0.00000  Uiso   1.00
C572   C     0.14069   0.95891   0.17858   0.00000  Uiso   1.00
C573   C     0.05746   0.74824   0.16963   0.00000  Uiso   1.00
C574   C     0.21973   0.85308   0.44843   0.00000  Uiso   1.00
C575   C     0.27661   0.92004   0.32771   0.00000  Uiso   1.00
C576   C     0.09860   0.77376   0.01854   0.00000  Uiso   1.00
C577   C     0.25306   0.86285   0.46842   0.00000  Uiso   1.00
C578   C     0.18321   0.97779   0.27954   0.00000  Uiso   1.00
C579   C     0.15012   0.68888   0.22039   0.00000  Uiso   1.00
C580   C     0.18071   0.68740   0.28360   0.00000  Uiso   1.00
H581   H     0.07038   0.75090   0.03652   0.00000  Uiso   1.00
H582   H     0.02362   0.88042   0.30079   0.00000  Uiso   1.00
H583   H     0.30450   0.80142   0.12307   0.00000  Uiso   1.00
H584   H     0.01944   0.83763   0.11923   0.00000  Uiso   1.00
H585   H     0.01476   0.81864   0.06642   0.00000  Uiso   1.00
H586   H     0.33099   0.79476   0.36218   0.00000  Uiso   1.00
H587   H     0.02054   0.83802   0.38505   0.00000  Uiso   1.00
H588   H     0.31433   0.79849   0.42419   0.00000  Uiso   1.00
H589   H     0.01404   0.68804   0.49441   0.00000  Uiso   1.00
H590   H     0.01660   0.94179   0.47614   0.00000  Uiso   1.00
H591   H     0.23316   0.70628   0.36093   0.00000  Uiso   1.00
H592   H     0.28623   0.87931   0.44683   0.00000  Uiso   1.00
H593   H     0.10133   0.96065   0.13806   0.00000  Uiso   1.00
H594   H     0.04601   0.76213   0.14272   0.00000  Uiso   1.00
H595   H     0.02805   0.72823   0.19478   0.00000  Uiso   1.00
H596   H     0.08907   0.72773   0.15062   0.00000  Uiso   1.00
H597   H     0.30511   0.93901   0.30022   0.00000  Uiso   1.00
H598   H     0.28968   0.90892   0.35472   0.00000  Uiso   1.00
H599   H     0.24504   0.94073   0.34618   0.00000  Uiso   1.00
H600   H     0.15272   0.80841   0.10953   0.00000  Uiso   1.00
H601   H     0.16934   0.86484   0.39618   0.00000  Uiso   1.00
H602   H     0.12653   0.76858   0.07090   0.00000  Uiso   1.00
H603   H     0.23052   0.86207   0.41228   0.00000  Uiso   1.00
H604   H     0.19411   0.95982   0.30340   0.00000  Uiso   1.00
H605   H     0.13913   0.70685   0.19658   0.00000  Uiso   1.00
H606   H     0.30929   0.78543   0.20022   0.00000  Uiso   1.00
N607   N     0.04759   0.83334   0.25001   0.00000  Uiso   1.00
N608   N     0.28574   0.83332   0.24999   0.00000  Uiso   1.00
O609   O     0.12846   0.89442   0.25001   0.00000  Uiso   1.00
O610   O     0.05193   0.77900   0.38464   0.00000  Uiso   1.00
O611   O     0.32088   0.75828   0.49103   0.00000  Uiso   1.00
O612   O     0.04371   0.70687   0.47881   0.00000  Uiso   1.00
O613   O     0.02833   0.87649   0.00780   0.00000  Uiso   1.00
O614   O     0.31704   0.92728   0.49254   0.00000  Uiso   1.00
O615   O     0.17180   0.73936   0.34079   0.00000  Uiso   1.00
O616   O     0.22820   0.68987   0.33489   0.00000  Uiso   1.00
O617   O     0.16183   0.92714   0.15915   0.00000  Uiso   1.00
O618   O     0.10610   0.97704   0.16421   0.00000  Uiso   1.00
O619   O     0.07299   0.77954   0.19328   0.00000  Uiso   1.00
O620   O     0.20488   0.77225   0.25000   0.00000  Uiso   1.00
O621   O     0.26015   0.88631   0.30782   0.00000  Uiso   1.00
O622   O     0.20490   0.89441   0.25000   0.00000  Uiso   1.00
O623   O     0.12843   0.77226   0.25000   0.00000  Uiso   1.00
O624   O     0.10661   0.83334   0.31613   0.00000  Uiso   1.00
O625   O     0.22672   0.83333   0.18388   0.00000  Uiso   1.00
O626   O     0.18305   0.83333   0.31612   0.00000  Uiso   1.00
O627   O     0.15028   0.83334   0.18388   0.00000  Uiso   1.00
O628   O     0.29657   0.86317   0.10511   0.00000  Uiso   1.00
Zn629  Zn    0.11562   0.83334   0.25000   0.00000  Uiso   1.00
Zn630  Zn    0.21771   0.83333   0.25000   0.00000  Uiso   1.00
C631   C     0.50094   0.91322   0.24832   0.00000  Uiso   1.00
C632   C     0.48608   0.97927   0.21625   0.00000  Uiso   1.00
C633   C     0.49784   0.70925   0.25308   0.00000  Uiso   1.00
C634   C     0.50219   0.95742   0.24685   0.00000  Uiso   1.00
C635   C     0.65363   0.80634   0.22198   0.00000  Uiso   1.00
C636   C     0.34625   0.86004   0.27837   0.00000  Uiso   1.00
C637   C     0.36904   0.80591   0.22164   0.00000  Uiso   1.00
C638   C     0.63093   0.86060   0.27854   0.00000  Uiso   1.00
C639   C     0.46898   0.83261   0.33817   0.00000  Uiso   1.00
C640   C     0.53107   0.83321   0.16166   0.00000  Uiso   1.00
C641   C     0.44885   0.82526   0.38874   0.00000  Uiso   1.00
C642   C     0.49906   0.75344   0.25166   0.00000  Uiso   1.00
C643   C     0.55177   0.83454   0.11015   0.00000  Uiso   1.00
C644   C     0.40291   0.78026   0.45461   0.00000  Uiso   1.00
C645   C     0.61007   0.86284   0.03631   0.00000  Uiso   1.00
C646   C     0.40994   0.79673   0.41028   0.00000  Uiso   1.00
C647   C     0.59843   0.85184   0.08360   0.00000  Uiso   1.00
C648   C     0.47672   0.84007   0.41266   0.00000  Uiso   1.00
C649   C     0.52142   0.82141   0.08793   0.00000  Uiso   1.00
C650   C     0.47408   0.82122   0.45410   0.00000  Uiso   1.00
C651   C     0.53397   0.82808   0.04013   0.00000  Uiso   1.00
C652   C     0.43578   0.79173   0.47611   0.00000  Uiso   1.00
C653   C     0.46417   0.78510   0.03926   0.00000  Uiso   1.00
C654   C     0.57715   0.85157   0.01476   0.00000  Uiso   1.00
C655   C     0.50946   0.83037   0.47341   0.00000  Uiso   1.00
C656   C     0.50221   0.81462   0.01819   0.00000  Uiso   1.00
C657   C     0.65981   0.82853   0.10318   0.00000  Uiso   1.00
C658   C     0.34459   0.80403   0.38964   0.00000  Uiso   1.00
C659   C     0.36405   0.74829   0.47579   0.00000  Uiso   1.00
C660   C     0.65470   0.88864   0.01135   0.00000  Uiso   1.00
C661   C     0.52641   0.70776   0.32107   0.00000  Uiso   1.00
C662   C     0.47402   0.95891   0.17858   0.00000  Uiso   1.00
C663   C     0.39079   0.74824   0.16963   0.00000  Uiso   1.00
C664   C     0.55306   0.85308   0.44843   0.00000  Uiso   1.00
C665   C     0.60994   0.92004   0.32771   0.00000  Uiso   1.00
C666   C     0.43194   0.77376   0.01854   0.00000  Uiso   1.00
C667   C     0.58640   0.86285   0.46842   0.00000  Uiso   1.00
C668   C     0.51654   0.97779   0.27954   0.00000  Uiso   1.00
C669   C     0.48345   0.68888   0.22039   0.00000  Uiso   1.00
C670   C     0.51404   0.68740   0.28360   0.00000  Uiso   1.00
H671   H     0.40371   0.75090   0.03652   0.00000  Uiso   1.00
H672   H     0.35696   0.88042   0.30079   0.00000  Uiso   1.00
H673   H     0.63783   0.80142   0.12307   0.00000  Uiso   1.00
H674   H     0.35277   0.83763   0.11923   0.00000  Uiso   1.00
H675   H     0.34810   0.81864   0.06642   0.00000  Uiso   1.00
H676   H     0.66432   0.79476   0.36218   0.00000  Uiso   1.00
H677   H     0.35388   0.83802   0.38505   0.00000  Uiso   1.00
H678   H     0.64766   0.79849   0.42419   0.00000  Uiso   1.00
H679   H     0.34737   0.68804   0.49441   0.00000  Uiso   1.00
H680   H     0.34994   0.94179   0.47614   0.00000  Uiso   1.00
H681   H     0.56649   0.70628   0.36093   0.00000  Uiso   1.00
H682   H     0.61956   0.87931   0.44683   0.00000  Uiso   1.00
H683   H     0.43466   0.96065   0.13806   0.00000  Uiso   1.00
H684   H     0.37934   0.76213   0.14272   0.00000  Uiso   1.00
H685   H     0.36139   0.72823   0.19478   0.00000  Uiso   1.00
H686   H     0.42241   0.72773   0.15062   0.00000  Uiso   1.00
H687   H     0.63844   0.93901   0.30022   0.00000  Uiso   1.00
H688   H     0.62302   0.90892   0.35472   0.00000  Uiso   1.00
H689   H     0.57837   0.94073   0.34618   0.00000  Uiso   1.00
H690   H     0.48605   0.80841   0.10953   0.00000  Uiso   1.00
H691   H     0.50267   0.86484   0.39618   0.00000  Uiso   1.00
H692   H     0.45986   0.76858   0.07090   0.00000  Uiso   1.00
H693   H     0.56386   0.86207   0.41228   0.00000  Uiso   1.00
H694   H     0.52744   0.95982   0.30340   0.00000  Uiso   1.00
H695   H     0.47247   0.70685   0.19658   0.00000  Uiso   1.00
H696   H     0.64263   0.78543   0.20022   0.00000  Uiso   1.00
N697   N     0.38093   0.83334   0.25001   0.00000  Uiso   1.00
N698   N     0.61907   0.83332   0.24999   0.00000  Uiso   1.00
O699   O     0.46179   0.89442   0.25001   0.00000  Uiso   1.00
O700   O     0.38526   0.77900   0.38464   0.00000  Uiso   1.00
O701   O     0.65421   0.75828   0.49103   0.00000  Uiso   1.00
O702   O     0.37705   0.70687   0.47881   0.00000  Uiso   1.00
O703   O     0.36166   0.87649   0.00780   0.00000  Uiso   1.00
O704   O     0.65037   0.92728   0.49254   0.00000  Uiso   1.00
O705   O     0.50513   0.73936   0.34079   0.00000  Uiso   1.00
O706   O     0.56153   0.68987   0.33489   0.00000  Uiso   1.00
O707   O     0.49516   0.92714   0.15915   0.00000  Uiso   1.00
O708   O     0.43943   0.97704   0.16421   0.00000  Uiso   1.00
O709   O     0.40632   0.77954   0.19328   0.00000  Uiso   1.00
O710   O     0.53821   0.77225   0.25000   0.00000  Uiso   1.00
O711   O     0.59348   0.88631   0.30782   0.00000  Uiso   1.00
O712   O     0.53823   0.89441   0.25000   0.00000  Uiso   1.00
O713   O     0.46177   0.77226   0.25000   0.00000  Uiso   1.00
O714   O     0.43994   0.83334   0.31613   0.00000  Uiso   1.00
O715   O     0.56006   0.83333   0.18388   0.00000  Uiso   1.00
O716   O     0.51639   0.83333   0.31612   0.00000  Uiso   1.00
O717   O     0.48361   0.83334   0.18388   0.00000  Uiso   1.00
O718   O     0.62990   0.86317   0.10511   0.00000  Uiso   1.00
Zn719  Zn    0.44896   0.83334   0.25000   0.00000  Uiso   1.00
Zn720  Zn    0.55104   0.83333   0.25000   0.00000  Uiso   1.00
C721   C     0.83428   0.91322   0.24832   0.00000  Uiso   1.00
C722   C     0.81941   0.97927   0.21625   0.00000  Uiso   1.00
C723   C     0.83117   0.70925   0.25308   0.00000  Uiso   1.00
C724   C     0.83552   0.95742   0.24685   0.00000  Uiso   1.00
C725   C     0.98696   0.80634   0.22198   0.00000  Uiso   1.00
C726   C     0.67958   0.86004   0.27837   0.00000  Uiso   1.00
C727   C     0.70237   0.80591   0.22164   0.00000  Uiso   1.00
C728   C     0.96427   0.86060   0.27854   0.00000  Uiso   1.00
C729   C     0.80231   0.83261   0.33817   0.00000  Uiso   1.00
C730   C     0.86441   0.83321   0.16166   0.00000  Uiso   1.00
C731   C     0.78218   0.82526   0.38874   0.00000  Uiso   1.00
C732   C     0.83240   0.75344   0.25166   0.00000  Uiso   1.00
C733   C     0.88510   0.83454   0.11015   0.00000  Uiso   1.00
C734   C     0.73624   0.78026   0.45461   0.00000  Uiso   1.00
C735   C     0.94340   0.86284   0.03631   0.00000  Uiso   1.00
C736   C     0.74327   0.79673   0.41028   0.00000  Uiso   1.00
C737   C     0.93176   0.85184   0.08360   0.00000  Uiso   1.00
C738   C     0.81006   0.84007   0.41266   0.00000  Uiso   1.00
C739   C     0.85475   0.82141   0.08793   0.00000  Uiso   1.00
C740   C     0.80741   0.82122   0.45410   0.00000  Uiso   1.00
C741   C     0.86730   0.82808   0.04013   0.00000  Uiso   1.00
C742   C     0.76911   0.79173   0.47611   0.00000  Uiso   1.00
C743   C     0.79750   0.78510   0.03926   0.00000  Uiso   1.00
C744   C     0.91048   0.85157   0.01476   0.00000  Uiso   1.00
C745   C     0.84280   0.83037   0.47341   0.00000  Uiso   1.00
C746   C     0.83554   0.81462   0.01819   0.00000  Uiso   1.00
C747   C     0.99314   0.82853   0.10318   0.00000  Uiso   1.00
C748   C     0.67792   0.80403   0.38964   0.00000  Uiso   1.00
C749   C     0.69739   0.74829   0.47579   0.00000  Uiso   1.00
C750   C     0.98803   0.88864   0.01135   0.00000  Uiso   1.00
C751   C     0.85975   0.70776   0.32107   0.00000  Uiso   1.00
C752   C     0.80735   0.95891   0.17858   0.00000  Uiso   1.00
C753   C     0.72413   0.74824   0.16963   0.00000  Uiso   1.00
C754   C     0.88640   0.85308   0.44843   0.00000  Uiso   1.00
C755   C     0.94327   0.92004   0.32771   0.00000  Uiso   1.00
C756   C     0.76527   0.77376   0.01854   0.00000  Uiso   1.00
C757   C     0.91973   0.86285   0.46842   0.00000  Uiso   1.00
C758   C     0.84987   0.97779   0.27954   0.00000  Uiso   1.00
C759   C     0.81679   0.68888   0.22039   0.00000  Uiso   1.00
C760   C     0.84738   0.68740   0.28360   0.00000  Uiso   1.00
H761   H     0.73705   0.75090   0.03652   0.00000  Uiso   1.00
H762   H     0.69029   0.88042   0.30079   0.00000  Uiso   1.00
H763   H     0.97116   0.80142   0.12307   0.00000  Uiso   1.00
H764   H     0.68610   0.83763   0.11923   0.00000  Uiso   1.00
H765   H     0.68143   0.81864   0.06642   0.00000  Uiso   1.00
H766   H     0.99765   0.79476   0.36218   0.00000  Uiso   1.00
H767   H     0.68721   0.83802   0.38505   0.00000  Uiso   1.00
H768   H     0.98100   0.79849   0.42419   0.00000  Uiso   1.00
H769   H     0.68071   0.68804   0.49441   0.00000  Uiso   1.00
H770   H     0.68327   0.94179   0.47614   0.00000  Uiso   1.00
H771   H     0.89983   0.70628   0.36093   0.00000  Uiso   1.00
H772   H     0.95289   0.87931   0.44683   0.00000  Uiso   1.00
H773   H     0.76799   0.96065   0.13806   0.00000  Uiso   1.00
H774   H     0.71267   0.76213   0.14272   0.00000  Uiso   1.00
H775   H     0.69472   0.72823   0.19478   0.00000  Uiso   1.00
H776   H     0.75574   0.72773   0.15062   0.00000  Uiso   1.00
H777   H     0.97178   0.93901   0.30022   0.00000  Uiso   1.00
H778   H     0.95635   0.90892   0.35472   0.00000  Uiso   1.00
H779   H     0.91170   0.94073   0.34618   0.00000  Uiso   1.00
H780   H     0.81939   0.80841   0.10953   0.00000  Uiso   1.00
H781   H     0.83601   0.86484   0.39618   0.00000  Uiso   1.00
H782   H     0.79320   0.76858   0.07090   0.00000  Uiso   1.00
H783   H     0.89719   0.86207   0.41228   0.00000  Uiso   1.00
H784   H     0.86077   0.95982   0.30340   0.00000  Uiso   1.00
H785   H     0.80580   0.70685   0.19658   0.00000  Uiso   1.00
H786   H     0.97596   0.78543   0.20022   0.00000  Uiso   1.00
N787   N     0.71426   0.83334   0.25001   0.00000  Uiso   1.00
N788   N     0.95241   0.83332   0.24999   0.00000  Uiso   1.00
O789   O     0.79512   0.89442   0.25001   0.00000  Uiso   1.00
O790   O     0.71860   0.77900   0.38464   0.00000  Uiso   1.00
O791   O     0.98754   0.75828   0.49103   0.00000  Uiso   1.00
O792   O     0.71038   0.70687   0.47881   0.00000  Uiso   1.00
O793   O     0.69499   0.87649   0.00780   0.00000  Uiso   1.00
O794   O     0.98371   0.92728   0.49254   0.00000  Uiso   1.00
O795   O     0.83847   0.73936   0.34079   0.00000  Uiso   1.00
O796   O     0.89487   0.68987   0.33489   0.00000  Uiso   1.00
O797   O     0.82849   0.92714   0.15915   0.00000  Uiso   1.00
O798   O     0.77276   0.97704   0.16421   0.00000  Uiso   1.00
O799   O     0.73966   0.77954   0.19328   0.00000  Uiso   1.00
O800   O     0.87154   0.77225   0.25000   0.00000  Uiso   1.00
O801   O     0.92681   0.88631   0.30782   0.00000  Uiso   1.00
O802   O     0.87157   0.89441   0.25000   0.00000  Uiso   1.00
O803   O     0.79510   0.77226   0.25000   0.00000  Uiso   1.00
O804   O     0.77328   0.83334   0.31613   0.00000  Uiso   1.00
O805   O     0.89339   0.83333   0.18388   0.00000  Uiso   1.00
O806   O     0.84972   0.83333   0.31612   0.00000  Uiso   1.00
O807   O     0.81695   0.83334   0.18388   0.00000  Uiso   1.00
O808   O     0.96324   0.86317   0.10511   0.00000  Uiso   1.00
Zn809  Zn    0.78229   0.83334   0.25000   0.00000  Uiso   1.00
Zn810  Zn    0.88438   0.83333   0.25000   0.00000  Uiso   1.00
C811   C     0.16761   0.24656   0.74832   0.00000  Uiso   1.00
C812   C     0.15275   0.31260   0.71625   0.00000  Uiso   1.00
C813   C     0.16450   0.04258   0.75308   0.00000  Uiso   1.00
C814   C     0.16885   0.29075   0.74685   0.00000  Uiso   1.00
C815   C     0.32030   0.13967   0.72198   0.00000  Uiso   1.00
C816   C     0.01292   0.19337   0.77837   0.00000  Uiso   1.00
C817   C     0.03571   0.13924   0.72164   0.00000  Uiso   1.00
C818   C     0.29760   0.19393   0.77854   0.00000  Uiso   1.00
C819   C     0.13564   0.16594   0.83817   0.00000  Uiso   1.00
C820   C     0.19774   0.16655   0.66166   0.00000  Uiso   1.00
C821   C     0.11552   0.15859   0.88874   0.00000  Uiso   1.00
C822   C     0.16573   0.08677   0.75166   0.00000  Uiso   1.00
C823   C     0.21843   0.16787   0.61015   0.00000  Uiso   1.00
C824   C     0.06957   0.11359   0.95461   0.00000  Uiso   1.00
C825   C     0.27673   0.19617   0.53631   0.00000  Uiso   1.00
C826   C     0.07661   0.13006   0.91028   0.00000  Uiso   1.00
C827   C     0.26510   0.18518   0.58360   0.00000  Uiso   1.00
C828   C     0.14339   0.17341   0.91266   0.00000  Uiso   1.00
C829   C     0.18809   0.15474   0.58793   0.00000  Uiso   1.00
C830   C     0.14075   0.15455   0.95410   0.00000  Uiso   1.00
C831   C     0.20063   0.16141   0.54013   0.00000  Uiso   1.00
C832   C     0.10245   0.12506   0.97611   0.00000  Uiso   1.00
C833   C     0.13084   0.11843   0.53926   0.00000  Uiso   1.00
C834   C     0.24382   0.18490   0.51476   0.00000  Uiso   1.00
C835   C     0.17613   0.16370   0.97341   0.00000  Uiso   1.00
C836   C     0.16888   0.14795   0.51819   0.00000  Uiso   1.00
C837   C     0.32648   0.16187   0.60318   0.00000  Uiso   1.00
C838   C     0.01125   0.13736   0.88964   0.00000  Uiso   1.00
C839   C     0.03072   0.08163   0.97579   0.00000  Uiso   1.00
C840   C     0.32136   0.22197   0.51135   0.00000  Uiso   1.00
C841   C     0.19308   0.04109   0.82107   0.00000  Uiso   1.00
C842   C     0.14069   0.29224   0.67858   0.00000  Uiso   1.00
C843   C     0.05746   0.08157   0.66963   0.00000  Uiso   1.00
C844   C     0.21973   0.18642   0.94843   0.00000  Uiso   1.00
C845   C     0.27661   0.25337   0.82771   0.00000  Uiso   1.00
C846   C     0.09860   0.10710   0.51854   0.00000  Uiso   1.00
C847   C     0.25306   0.19618   0.96842   0.00000  Uiso   1.00
C848   C     0.18321   0.31112   0.77954   0.00000  Uiso   1.00
C849   C     0.15012   0.02221   0.72039   0.00000  Uiso   1.00
C850   C     0.18071   0.02073   0.78360   0.00000  Uiso   1.00
H851   H     0.07038   0.08423   0.53652   0.00000  Uiso   1.00
H852   H     0.02362   0.21375   0.80079   0.00000  Uiso   1.00
H853   H     0.30450   0.13475   0.62307   0.00000  Uiso   1.00
H854   H     0.01944   0.17097   0.61923   0.00000  Uiso   1.00
H855   H     0.01476   0.15198   0.56642   0.00000  Uiso   1.00
H856   H     0.33099   0.12809   0.86218   0.00000  Uiso   1.00
H857   H     0.02054   0.17135   0.88505   0.00000  Uiso   1.00
H858   H     0.31433   0.13182   0.92419   0.00000  Uiso   1.00
H859   H     0.01404   0.02138   0.99441   0.00000  Uiso   1.00
H860   H     0.01660   0.27512   0.97614   0.00000  Uiso   1.00
H861   H     0.23316   0.03961   0.86093   0.00000  Uiso   1.00
H862   H     0.28623   0.21265   0.94683   0.00000  Uiso   1.00
H863   H     0.10133   0.29399   0.63806   0.00000  Uiso   1.00
H864   H     0.04601   0.09546   0.64272   0.00000  Uiso   1.00
H865   H     0.02805   0.06157   0.69478   0.00000  Uiso   1.00
H866   H     0.08907   0.06106   0.65062   0.00000  Uiso   1.00
H867   H     0.30511   0.27235   0.80022   0.00000  Uiso   1.00
H868   H     0.28968   0.24225   0.85472   0.00000  Uiso   1.00
H869   H     0.24504   0.27406   0.84618   0.00000  Uiso   1.00
H870   H     0.15272   0.14174   0.60953   0.00000  Uiso   1.00
H871   H     0.16934   0.19818   0.89618   0.00000  Uiso   1.00
H872   H     0.12653   0.10192   0.57090   0.00000  Uiso   1.00
H873   H     0.23052   0.19540   0.91228   0.00000  Uiso   1.00
H874   H     0.19411   0.29316   0.80340   0.00000  Uiso   1.00
H875   H     0.13913   0.04019   0.69658   0.00000  Uiso   1.00
H876   H     0.30929   0.11877   0.70022   0.00000  Uiso   1.00
N877   N     0.04759   0.16668   0.75001   0.00000  Uiso   1.00
N878   N     0.28574   0.16666   0.74999   0.00000  Uiso   1.00
O879   O     0.12846   0.22775   0.75001   0.00000  Uiso   1.00
O880   O     0.05193   0.11234   0.88464   0.00000  Uiso   1.00
O881   O     0.32088   0.09162   0.99103   0.00000  Uiso   1.00
O882   O     0.04371   0.04020   0.97881   0.00000  Uiso   1.00
O883   O     0.02833   0.20983   0.50780   0.00000  Uiso   1.00
O884   O     0.31704   0.26061   0.99254   0.00000  Uiso   1.00
O885   O     0.17180   0.07270   0.84079   0.00000  Uiso   1.00
O886   O     0.22820   0.02321   0.83489   0.00000  Uiso   1.00
O887   O     0.16183   0.26047   0.65915   0.00000  Uiso   1.00
O888   O     0.10610   0.31037   0.66421   0.00000  Uiso   1.00
O889   O     0.07299   0.11287   0.69328   0.00000  Uiso   1.00
O890   O     0.20488   0.10558   0.75000   0.00000  Uiso   1.00
O891   O     0.26015   0.21965   0.80782   0.00000  Uiso   1.00
O892   O     0.20490   0.22774   0.75000   0.00000  Uiso   1.00
O893   O     0.12843   0.10559   0.75000   0.00000  Uiso   1.00
O894   O     0.10661   0.16667   0.81613   0.00000  Uiso   1.00
O895   O     0.22672   0.16666   0.68388   0.00000  Uiso   1.00
O896   O     0.18305   0.16666   0.81612   0.00000  Uiso   1.00
O897   O     0.15028   0.16667   0.68388   0.00000  Uiso   1.00
O898   O     0.29657   0.19650   0.60511   0.00000  Uiso   1.00
Zn899  Zn    0.11562   0.16667   0.75000   0.00000  Uiso   1.00
Zn900  Zn    0.21771   0.16666   0.75000   0.00000  Uiso   1.00
C901   C     0.50094   0.24656   0.74832   0.00000  Uiso   1.00
C902   C     0.48608   0.31260   0.71625   0.00000  Uiso   1.00
C903   C     0.49784   0.04258   0.75308   0.00000  Uiso   1.00
C904   C     0.50219   0.29075   0.74685   0.00000  Uiso   1.00
C905   C     0.65363   0.13967   0.72198   0.00000  Uiso   1.00
C906   C     0.34625   0.19337   0.77837   0.00000  Uiso   1.00
C907   C     0.36904   0.13924   0.72164   0.00000  Uiso   1.00
C908   C     0.63093   0.19393   0.77854   0.00000  Uiso   1.00
C909   C     0.46898   0.16594   0.83817   0.00000  Uiso   1.00
C910   C     0.53107   0.16655   0.66166   0.00000  Uiso   1.00
C911   C     0.44885   0.15859   0.88874   0.00000  Uiso   1.00
C912   C     0.49906   0.08677   0.75166   0.00000  Uiso   1.00
C913   C     0.55177   0.16787   0.61015   0.00000  Uiso   1.00
C914   C     0.40291   0.11359   0.95461   0.00000  Uiso   1.00
C915   C     0.61007   0.19617   0.53631   0.00000  Uiso   1.00
C916   C     0.40994   0.13006   0.91028   0.00000  Uiso   1.00
C917   C     0.59843   0.18518   0.58360   0.00000  Uiso   1.00
C918   C     0.47672   0.17341   0.91266   0.00000  Uiso   1.00
C919   C     0.52142   0.15474   0.58793   0.00000  Uiso   1.00
C920   C     0.47408   0.15455   0.95410   0.00000  Uiso   1.00
C921   C     0.53397   0.16141   0.54013   0.00000  Uiso   1.00
C922   C     0.43578   0.12506   0.97611   0.00000  Uiso   1.00
C923   C     0.46417   0.11843   0.53926   0.00000  Uiso   1.00
C924   C     0.57715   0.18490   0.51476   0.00000  Uiso   1.00
C925   C     0.50946   0.16370   0.97341   0.00000  Uiso   1.00
C926   C     0.50221   0.14795   0.51819   0.00000  Uiso   1.00
C927   C     0.65981   0.16187   0.60318   0.00000  Uiso   1.00
C928   C     0.34459   0.13736   0.88964   0.00000  Uiso   1.00
C929   C     0.36405   0.08163   0.97579   0.00000  Uiso   1.00
C930   C     0.65470   0.22197   0.51135   0.00000  Uiso   1.00
C931   C     0.52641   0.04109   0.82107   0.00000  Uiso   1.00
C932   C     0.47402   0.29224   0.67858   0.00000  Uiso   1.00
C933   C     0.39079   0.08157   0.66963   0.00000  Uiso   1.00
C934   C     0.55306   0.18642   0.94843   0.00000  Uiso   1.00
C935   C     0.60994   0.25337   0.82771   0.00000  Uiso   1.00
C936   C     0.43194   0.10710   0.51854   0.00000  Uiso   1.00
C937   C     0.58640   0.19618   0.96842   0.00000  Uiso   1.00
C938   C     0.51654   0.31112   0.77954   0.00000  Uiso   1.00
C939   C     0.48345   0.02221   0.72039   0.00000  Uiso   1.00
C940   C     0.51404   0.02073   0.78360   0.00000  Uiso   1.00
H941   H     0.40371   0.08423   0.53652   0.00000  Uiso   1.00
H942   H     0.35696   0.21375   0.80079   0.00000  Uiso   1.00
H943   H     0.63783   0.13475   0.62307   0.00000  Uiso   1.00
H944   H     0.35277   0.17097   0.61923   0.00000  Uiso   1.00
H945   H     0.34810   0.15198   0.56642   0.00000  Uiso   1.00
H946   H     0.66432   0.12809   0.86218   0.00000  Uiso   1.00
H947   H     0.35388   0.17135   0.88505   0.00000  Uiso   1.00
H948   H     0.64766   0.13182   0.92419   0.00000  Uiso   1.00
H949   H     0.34737   0.02138   0.99441   0.00000  Uiso   1.00
H950   H     0.34994   0.27512   0.97614   0.00000  Uiso   1.00
H951   H     0.56649   0.03961   0.86093   0.00000  Uiso   1.00
H952   H     0.61956   0.21265   0.94683   0.00000  Uiso   1.00
H953   H     0.43466   0.29399   0.63806   0.00000  Uiso   1.00
H954   H     0.37934   0.09546   0.64272   0.00000  Uiso   1.00
H955   H     0.36139   0.06157   0.69478   0.00000  Uiso   1.00
H956   H     0.42241   0.06106   0.65062   0.00000  Uiso   1.00
H957   H     0.63844   0.27235   0.80022   0.00000  Uiso   1.00
H958   H     0.62302   0.24225   0.85472   0.00000  Uiso   1.00
H959   H     0.57837   0.27406   0.84618   0.00000  Uiso   1.00
H960   H     0.48605   0.14174   0.60953   0.00000  Uiso   1.00
H961   H     0.50267   0.19818   0.89618   0.00000  Uiso   1.00
H962   H     0.45986   0.10192   0.57090   0.00000  Uiso   1.00
H963   H     0.56386   0.19540   0.91228   0.00000  Uiso   1.00
H964   H     0.52744   0.29316   0.80340   0.00000  Uiso   1.00
H965   H     0.47247   0.04019   0.69658   0.00000  Uiso   1.00
H966   H     0.64263   0.11877   0.70022   0.00000  Uiso   1.00
N967   N     0.38093   0.16668   0.75001   0.00000  Uiso   1.00
N968   N     0.61907   0.16666   0.74999   0.00000  Uiso   1.00
O969   O     0.46179   0.22775   0.75001   0.00000  Uiso   1.00
O970   O     0.38526   0.11234   0.88464   0.00000  Uiso   1.00
O971   O     0.65421   0.09162   0.99103   0.00000  Uiso   1.00
O972   O     0.37705   0.04020   0.97881   0.00000  Uiso   1.00
O973   O     0.36166   0.20983   0.50780   0.00000  Uiso   1.00
O974   O     0.65037   0.26061   0.99254   0.00000  Uiso   1.00
O975   O     0.50513   0.07270   0.84079   0.00000  Uiso   1.00
O976   O     0.56153   0.02321   0.83489   0.00000  Uiso   1.00
O977   O     0.49516   0.26047   0.65915   0.00000  Uiso   1.00
O978   O     0.43943   0.31037   0.66421   0.00000  Uiso   1.00
O979   O     0.40632   0.11287   0.69328   0.00000  Uiso   1.00
O980   O     0.53821   0.10558   0.75000   0.00000  Uiso   1.00
O981   O     0.59348   0.21965   0.80782   0.00000  Uiso   1.00
O982   O     0.53823   0.22774   0.75000   0.00000  Uiso   1.00
O983   O     0.46177   0.10559   0.75000   0.00000  Uiso   1.00
O984   O     0.43994   0.16667   0.81613   0.00000  Uiso   1.00
O985   O     0.56006   0.16666   0.68388   0.00000  Uiso   1.00
O986   O     0.51639   0.16666   0.81612   0.00000  Uiso   1.00
O987   O     0.48361   0.16667   0.68388   0.00000  Uiso   1.00
O988   O     0.62990   0.19650   0.60511   0.00000  Uiso   1.00
Zn989  Zn    0.44896   0.16667   0.75000   0.00000  Uiso   1.00
Zn990  Zn    0.55104   0.16666   0.75000   0.00000  Uiso   1.00
C991   C     0.83428   0.24656   0.74832   0.00000  Uiso   1.00
C992   C     0.81941   0.31260   0.71625   0.00000  Uiso   1.00
C993   C     0.83117   0.04258   0.75308   0.00000  Uiso   1.00
C994   C     0.83552   0.29075   0.74685   0.00000  Uiso   1.00
C995   C     0.98696   0.13967   0.72198   0.00000  Uiso   1.00
C996   C     0.67958   0.19337   0.77837   0.00000  Uiso   1.00
C997   C     0.70237   0.13924   0.72164   0.00000  Uiso   1.00
C998   C     0.96427   0.19393   0.77854   0.00000  Uiso   1.00
C999   C     0.80231   0.16594   0.83817   0.00000  Uiso   1.00
C1000  C     0.86441   0.16655   0.66166   0.00000  Uiso   1.00
C1001  C     0.78218   0.15859   0.88874   0.00000  Uiso   1.00
C1002  C     0.83240   0.08677   0.75166   0.00000  Uiso   1.00
C1003  C     0.88510   0.16787   0.61015   0.00000  Uiso   1.00
C1004  C     0.73624   0.11359   0.95461   0.00000  Uiso   1.00
C1005  C     0.94340   0.19617   0.53631   0.00000  Uiso   1.00
C1006  C     0.74327   0.13006   0.91028   0.00000  Uiso   1.00
C1007  C     0.93176   0.18518   0.58360   0.00000  Uiso   1.00
C1008  C     0.81006   0.17341   0.91266   0.00000  Uiso   1.00
C1009  C     0.85475   0.15474   0.58793   0.00000  Uiso   1.00
C1010  C     0.80741   0.15455   0.95410   0.00000  Uiso   1.00
C1011  C     0.86730   0.16141   0.54013   0.00000  Uiso   1.00
C1012  C     0.76911   0.12506   0.97611   0.00000  Uiso   1.00
C1013  C     0.79750   0.11843   0.53926   0.00000  Uiso   1.00
C1014  C     0.91048   0.18490   0.51476   0.00000  Uiso   1.00
C1015  C     0.84280   0.16370   0.97341   0.00000  Uiso   1.00
C1016  C     0.83554   0.14795   0.51819   0.00000  Uiso   1.00
C1017  C     0.99314   0.16187   0.60318   0.00000  Uiso   1.00
C1018  C     0.67792   0.13736   0.88964   0.00000  Uiso   1.00
C1019  C     0.69739   0.08163   0.97579   0.00000  Uiso   1.00
C1020  C     0.98803   0.22197   0.51135   0.00000  Uiso   1.00
C1021  C     0.85975   0.04109   0.82107   0.00000  Uiso   1.00
C1022  C     0.80735   0.29224   0.67858   0.00000  Uiso   1.00
C1023  C     0.72413   0.08157   0.66963   0.00000  Uiso   1.00
C1024  C     0.88640   0.18642   0.94843   0.00000  Uiso   1.00
C1025  C     0.94327   0.25337   0.82771   0.00000  Uiso   1.00
C1026  C     0.76527   0.10710   0.51854   0.00000  Uiso   1.00
C1027  C     0.91973   0.19618   0.96842   0.00000  Uiso   1.00
C1028  C     0.84987   0.31112   0.77954   0.00000  Uiso   1.00
C1029  C     0.81679   0.02221   0.72039   0.00000  Uiso   1.00
C1030  C     0.84738   0.02073   0.78360   0.00000  Uiso   1.00
H1031  H     0.73705   0.08423   0.53652   0.00000  Uiso   1.00
H1032  H     0.69029   0.21375   0.80079   0.00000  Uiso   1.00
H1033  H     0.97116   0.13475   0.62307   0.00000  Uiso   1.00
H1034  H     0.68610   0.17097   0.61923   0.00000  Uiso   1.00
H1035  H     0.68143   0.15198   0.56642   0.00000  Uiso   1.00
H1036  H     0.99765   0.12809   0.86218   0.00000  Uiso   1.00
H1037  H     0.68721   0.17135   0.88505   0.00000  Uiso   1.00
H1038  H     0.98100   0.13182   0.92419   0.00000  Uiso   1.00
H1039  H     0.68071   0.02138   0.99441   0.00000  Uiso   1.00
H1040  H     0.68327   0.27512   0.97614   0.00000  Uiso   1.00
H1041  H     0.89983   0.03961   0.86093   0.00000  Uiso   1.00
H1042  H     0.95289   0.21265   0.94683   0.00000  Uiso   1.00
H1043  H     0.76799   0.29399   0.63806   0.00000  Uiso   1.00
H1044  H     0.71267   0.09546   0.64272   0.00000  Uiso   1.00
H1045  H     0.69472   0.06157   0.69478   0.00000  Uiso   1.00
H1046  H     0.75574   0.06106   0.65062   0.00000  Uiso   1.00
H1047  H     0.97178   0.27235   0.80022   0.00000  Uiso   1.00
H1048  H     0.95635   0.24225   0.85472   0.00000  Uiso   1.00
H1049  H     0.91170   0.27406   0.84618   0.00000  Uiso   1.00
H1050  H     0.81939   0.14174   0.60953   0.00000  Uiso   1.00
H1051  H     0.83601   0.19818   0.89618   0.00000  Uiso   1.00
H1052  H     0.79320   0.10192   0.57090   0.00000  Uiso   1.00
H1053  H     0.89719   0.19540   0.91228   0.00000  Uiso   1.00
H1054  H     0.86077   0.29316   0.80340   0.00000  Uiso   1.00
H1055  H     0.80580   0.04019   0.69658   0.00000  Uiso   1.00
H1056  H     0.97596   0.11877   0.70022   0.00000  Uiso   1.00
N1057  N     0.71426   0.16668   0.75001   0.00000  Uiso   1.00
N1058  N     0.95241   0.16666   0.74999   0.00000  Uiso   1.00
O1059  O     0.79512   0.22775   0.75001   0.00000  Uiso   1.00
O1060  O     0.71860   0.11234   0.88464   0.00000  Uiso   1.00
O1061  O     0.98754   0.09162   0.99103   0.00000  Uiso   1.00
O1062  O     0.71038   0.04020   0.97881   0.00000  Uiso   1.00
O1063  O     0.69499   0.20983   0.50780   0.00000  Uiso   1.00
O1064  O     0.98371   0.26061   0.99254   0.00000  Uiso   1.00
O1065  O     0.83847   0.07270   0.84079   0.00000  Uiso   1.00
O1066  O     0.89487   0.02321   0.83489   0.00000  Uiso   1.00
O1067  O     0.82849   0.26047   0.65915   0.00000  Uiso   1.00
O1068  O     0.77276   0.31037   0.66421   0.00000  Uiso   1.00
O1069  O     0.73966   0.11287   0.69328   0.00000  Uiso   1.00
O1070  O     0.87154   0.10558   0.75000   0.00000  Uiso   1.00
O1071  O     0.92681   0.21965   0.80782   0.00000  Uiso   1.00
O1072  O     0.87157   0.22774   0.75000   0.00000  Uiso   1.00
O1073  O     0.79510   0.10559   0.75000   0.00000  Uiso   1.00
O1074  O     0.77328   0.16667   0.81613   0.00000  Uiso   1.00
O1075  O     0.89339   0.16666   0.68388   0.00000  Uiso   1.00
O1076  O     0.84972   0.16666   0.81612   0.00000  Uiso   1.00
O1077  O     0.81695   0.16667   0.68388   0.00000  Uiso   1.00
O1078  O     0.96324   0.19650   0.60511   0.00000  Uiso   1.00
Zn1079 Zn    0.78229   0.16667   0.75000   0.00000  Uiso   1.00
Zn1080 Zn    0.88438   0.16666   0.75000   0.00000  Uiso   1.00
C1081  C     0.16761   0.57989   0.74832   0.00000  Uiso   1.00
C1082  C     0.15275   0.64593   0.71625   0.00000  Uiso   1.00
C1083  C     0.16450   0.37592   0.75308   0.00000  Uiso   1.00
C1084  C     0.16885   0.62408   0.74685   0.00000  Uiso   1.00
C1085  C     0.32030   0.47301   0.72198   0.00000  Uiso   1.00
C1086  C     0.01292   0.52670   0.77837   0.00000  Uiso   1.00
C1087  C     0.03571   0.47258   0.72164   0.00000  Uiso   1.00
C1088  C     0.29760   0.52726   0.77854   0.00000  Uiso   1.00
C1089  C     0.13564   0.49928   0.83817   0.00000  Uiso   1.00
C1090  C     0.19774   0.49988   0.66166   0.00000  Uiso   1.00
C1091  C     0.11552   0.49192   0.88874   0.00000  Uiso   1.00
C1092  C     0.16573   0.42011   0.75166   0.00000  Uiso   1.00
C1093  C     0.21843   0.50120   0.61015   0.00000  Uiso   1.00
C1094  C     0.06957   0.44693   0.95461   0.00000  Uiso   1.00
C1095  C     0.27673   0.52951   0.53631   0.00000  Uiso   1.00
C1096  C     0.07661   0.46339   0.91028   0.00000  Uiso   1.00
C1097  C     0.26510   0.51851   0.58360   0.00000  Uiso   1.00
C1098  C     0.14339   0.50674   0.91266   0.00000  Uiso   1.00
C1099  C     0.18809   0.48807   0.58793   0.00000  Uiso   1.00
C1100  C     0.14075   0.48788   0.95410   0.00000  Uiso   1.00
C1101  C     0.20063   0.49474   0.54013   0.00000  Uiso   1.00
C1102  C     0.10245   0.45839   0.97611   0.00000  Uiso   1.00
C1103  C     0.13084   0.45176   0.53926   0.00000  Uiso   1.00
C1104  C     0.24382   0.51823   0.51476   0.00000  Uiso   1.00
C1105  C     0.17613   0.49703   0.97341   0.00000  Uiso   1.00
C1106  C     0.16888   0.48128   0.51819   0.00000  Uiso   1.00
C1107  C     0.32648   0.49520   0.60318   0.00000  Uiso   1.00
C1108  C     0.01125   0.47070   0.88964   0.00000  Uiso   1.00
C1109  C     0.03072   0.41496   0.97579   0.00000  Uiso   1.00
C1110  C     0.32136   0.55530   0.51135   0.00000  Uiso   1.00
C1111  C     0.19308   0.37443   0.82107   0.00000  Uiso   1.00
C1112  C     0.14069   0.62558   0.67858   0.00000  Uiso   1.00
C1113  C     0.05746   0.41490   0.66963   0.00000  Uiso   1.00
C1114  C     0.21973   0.51975   0.94843   0.00000  Uiso   1.00
C1115  C     0.27661   0.58670   0.82771   0.00000  Uiso   1.00
C1116  C     0.09860   0.44043   0.51854   0.00000  Uiso   1.00
C1117  C     0.25306   0.52952   0.96842   0.00000  Uiso   1.00
C1118  C     0.18321   0.64446   0.77954   0.00000  Uiso   1.00
C1119  C     0.15012   0.35555   0.72039   0.00000  Uiso   1.00
C1120  C     0.18071   0.35407   0.78360   0.00000  Uiso   1.00
H1121  H     0.07038   0.41756   0.53652   0.00000  Uiso   1.00
H1122  H     0.02362   0.54708   0.80079   0.00000  Uiso   1.00
H1123  H     0.30450   0.46809   0.62307   0.00000  Uiso   1.00
H1124  H     0.01944   0.50430   0.61923   0.00000  Uiso   1.00
H1125  H     0.01476   0.48531   0.56642   0.00000  Uiso   1.00
H1126  H     0.33099   0.46142   0.86218   0.00000  Uiso   1.00
H1127  H     0.02054   0.50469   0.88505   0.00000  Uiso   1.00
H1128  H     0.31433   0.46516   0.92419   0.00000  Uiso   1.00
H1129  H     0.01404   0.35471   0.99441   0.00000  Uiso   1.00
H1130  H     0.01660   0.60846   0.97614   0.00000  Uiso   1.00
H1131  H     0.23316   0.37294   0.86093   0.00000  Uiso   1.00
H1132  H     0.28623   0.54598   0.94683   0.00000  Uiso   1.00
H1133  H     0.10133   0.62732   0.63806   0.00000  Uiso   1.00
H1134  H     0.04601   0.42880   0.64272   0.00000  Uiso   1.00
H1135  H     0.02805   0.39490   0.69478   0.00000  Uiso   1.00
H1136  H     0.08907   0.39440   0.65062   0.00000  Uiso   1.00
H1137  H     0.30511   0.60568   0.80022   0.00000  Uiso   1.00
H1138  H     0.28968   0.57558   0.85472   0.00000  Uiso   1.00
H1139  H     0.24504   0.60739   0.84618   0.00000  Uiso   1.00
H1140  H     0.15272   0.47508   0.60953   0.00000  Uiso   1.00
H1141  H     0.16934   0.53151   0.89618   0.00000  Uiso   1.00
H1142  H     0.12653   0.43525   0.57090   0.00000  Uiso   1.00
H1143  H     0.23052   0.52873   0.91228   0.00000  Uiso   1.00
H1144  H     0.19411   0.62649   0.80340   0.00000  Uiso   1.00
H1145  H     0.13913   0.37352   0.69658   0.00000  Uiso   1.00
H1146  H     0.30929   0.45210   0.70022   0.00000  Uiso   1.00
N1147  N     0.04759   0.50001   0.75001   0.00000  Uiso   1.00
N1148  N     0.28574   0.49999   0.74999   0.00000  Uiso   1.00
O1149  O     0.12846   0.56108   0.75001   0.00000  Uiso   1.00
O1150  O     0.05193   0.44567   0.88464   0.00000  Uiso   1.00
O1151  O     0.32088   0.42495   0.99103   0.00000  Uiso   1.00
O1152  O     0.04371   0.37353   0.97881   0.00000  Uiso   1.00
O1153  O     0.02833   0.54316   0.50780   0.00000  Uiso   1.00
O1154  O     0.31704   0.59394   0.99254   0.00000  Uiso   1.00
O1155  O     0.17180   0.40603   0.84079   0.00000  Uiso   1.00
O1156  O     0.22820   0.35654   0.83489   0.00000  Uiso   1.00
O1157  O     0.16183   0.59381   0.65915   0.00000  Uiso   1.00
O1158  O     0.10610   0.64371   0.66421   0.00000  Uiso   1.00
O1159  O     0.07299   0.44620   0.69328   0.00000  Uiso   1.00
O1160  O     0.20488   0.43892   0.75000   0.00000  Uiso   1.00
O1161  O     0.26015   0.55298   0.80782   0.00000  Uiso   1.00
O1162  O     0.20490   0.56107   0.75000   0.00000  Uiso   1.00
O1163  O     0.12843   0.43893   0.75000   0.00000  Uiso   1.00
O1164  O     0.10661   0.50001   0.81613   0.00000  Uiso   1.00
O1165  O     0.22672   0.49999   0.68388   0.00000  Uiso   1.00
O1166  O     0.18305   0.50000   0.81612   0.00000  Uiso   1.00
O1167  O     0.15028   0.50000   0.68388   0.00000  Uiso   1.00
O1168  O     0.29657   0.52984   0.60511   0.00000  Uiso   1.00
Zn1169 Zn    0.11562   0.50001   0.75000   0.00000  Uiso   1.00
Zn1170 Zn    0.21771   0.49999   0.75000   0.00000  Uiso   1.00
C1171  C     0.50094   0.57989   0.74832   0.00000  Uiso   1.00
C1172  C     0.48608   0.64593   0.71625   0.00000  Uiso   1.00
C1173  C     0.49784   0.37592   0.75308   0.00000  Uiso   1.00
C1174  C     0.50219   0.62408   0.74685   0.00000  Uiso   1.00
C1175  C     0.65363   0.47301   0.72198   0.00000  Uiso   1.00
C1176  C     0.34625   0.52670   0.77837   0.00000  Uiso   1.00
C1177  C     0.36904   0.47258   0.72164   0.00000  Uiso   1.00
C1178  C     0.63093   0.52726   0.77854   0.00000  Uiso   1.00
C1179  C     0.46898   0.49928   0.83817   0.00000  Uiso   1.00
C1180  C     0.53107   0.49988   0.66166   0.00000  Uiso   1.00
C1181  C     0.44885   0.49192   0.88874   0.00000  Uiso   1.00
C1182  C     0.49906   0.42011   0.75166   0.00000  Uiso   1.00
C1183  C     0.55177   0.50120   0.61015   0.00000  Uiso   1.00
C1184  C     0.40291   0.44693   0.95461   0.00000  Uiso   1.00
C1185  C     0.61007   0.52951   0.53631   0.00000  Uiso   1.00
C1186  C     0.40994   0.46339   0.91028   0.00000  Uiso   1.00
C1187  C     0.59843   0.51851   0.58360   0.00000  Uiso   1.00
C1188  C     0.47672   0.50674   0.91266   0.00000  Uiso   1.00
C1189  C     0.52142   0.48807   0.58793   0.00000  Uiso   1.00
C1190  C     0.47408   0.48788   0.95410   0.00000  Uiso   1.00
C1191  C     0.53397   0.49474   0.54013   0.00000  Uiso   1.00
C1192  C     0.43578   0.45839   0.97611   0.00000  Uiso   1.00
C1193  C     0.46417   0.45176   0.53926   0.00000  Uiso   1.00
C1194  C     0.57715   0.51823   0.51476   0.00000  Uiso   1.00
C1195  C     0.50946   0.49703   0.97341   0.00000  Uiso   1.00
C1196  C     0.50221   0.48128   0.51819   0.00000  Uiso   1.00
C1197  C     0.65981   0.49520   0.60318   0.00000  Uiso   1.00
C1198  C     0.34459   0.47070   0.88964   0.00000  Uiso   1.00
C1199  C     0.36405   0.41496   0.97579   0.00000  Uiso   1.00
C1200  C     0.65470   0.55530   0.51135   0.00000  Uiso   1.00
C1201  C     0.52641   0.37443   0.82107   0.00000  Uiso   1.00
C1202  C     0.47402   0.62558   0.67858   0.00000  Uiso   1.00
C1203  C     0.39079   0.41490   0.66963   0.00000  Uiso   1.00
C1204  C     0.55306   0.51975   0.94843   0.00000  Uiso   1.00
C1205  C     0.60994   0.58670   0.82771   0.00000  Uiso   1.00
C1206  C     0.43194   0.44043   0.51854   0.00000  Uiso   1.00
C1207  C     0.58640   0.52952   0.96842   0.00000  Uiso   1.00
C1208  C     0.51654   0.64446   0.77954   0.00000  Uiso   1.00
C1209  C     0.48345   0.35555   0.72039   0.00000  Uiso   1.00
C1210  C     0.51404   0.35407   0.78360   0.00000  Uiso   1.00
H1211  H     0.40371   0.41756   0.53652   0.00000  Uiso   1.00
H1212  H     0.35696   0.54708   0.80079   0.00000  Uiso   1.00
H1213  H     0.63783   0.46809   0.62307   0.00000  Uiso   1.00
H1214  H     0.35277   0.50430   0.61923   0.00000  Uiso   1.00
H1215  H     0.34810   0.48531   0.56642   0.00000  Uiso   1.00
H1216  H     0.66432   0.46142   0.86218   0.00000  Uiso   1.00
H1217  H     0.35388   0.50469   0.88505   0.00000  Uiso   1.00
H1218  H     0.64766   0.46516   0.92419   0.00000  Uiso   1.00
H1219  H     0.34737   0.35471   0.99441   0.00000  Uiso   1.00
H1220  H     0.34994   0.60846   0.97614   0.00000  Uiso   1.00
H1221  H     0.56649   0.37294   0.86093   0.00000  Uiso   1.00
H1222  H     0.61956   0.54598   0.94683   0.00000  Uiso   1.00
H1223  H     0.43466   0.62732   0.63806   0.00000  Uiso   1.00
H1224  H     0.37934   0.42880   0.64272   0.00000  Uiso   1.00
H1225  H     0.36139   0.39490   0.69478   0.00000  Uiso   1.00
H1226  H     0.42241   0.39440   0.65062   0.00000  Uiso   1.00
H1227  H     0.63844   0.60568   0.80022   0.00000  Uiso   1.00
H1228  H     0.62302   0.57558   0.85472   0.00000  Uiso   1.00
H1229  H     0.57837   0.60739   0.84618   0.00000  Uiso   1.00
H1230  H     0.48605   0.47508   0.60953   0.00000  Uiso   1.00
H1231  H     0.50267   0.53151   0.89618   0.00000  Uiso   1.00
H1232  H     0.45986   0.43525   0.57090   0.00000  Uiso   1.00
H1233  H     0.56386   0.52873   0.91228   0.00000  Uiso   1.00
H1234  H     0.52744   0.62649   0.80340   0.00000  Uiso   1.00
H1235  H     0.47247   0.37352   0.69658   0.00000  Uiso   1.00
H1236  H     0.64263   0.45210   0.70022   0.00000  Uiso   1.00
N1237  N     0.38093   0.50001   0.75001   0.00000  Uiso   1.00
N1238  N     0.61907   0.49999   0.74999   0.00000  Uiso   1.00
O1239  O     0.46179   0.56108   0.75001   0.00000  Uiso   1.00
O1240  O     0.38526   0.44567   0.88464   0.00000  Uiso   1.00
O1241  O     0.65421   0.42495   0.99103   0.00000  Uiso   1.00
O1242  O     0.37705   0.37353   0.97881   0.00000  Uiso   1.00
O1243  O     0.36166   0.54316   0.50780   0.00000  Uiso   1.00
O1244  O     0.65037   0.59394   0.99254   0.00000  Uiso   1.00
O1245  O     0.50513   0.40603   0.84079   0.00000  Uiso   1.00
O1246  O     0.56153   0.35654   0.83489   0.00000  Uiso   1.00
O1247  O     0.49516   0.59381   0.65915   0.00000  Uiso   1.00
O1248  O     0.43943   0.64371   0.66421   0.00000  Uiso   1.00
O1249  O     0.40632   0.44620   0.69328   0.00000  Uiso   1.00
O1250  O     0.53821   0.43892   0.75000   0.00000  Uiso   1.00
O1251  O     0.59348   0.55298   0.80782   0.00000  Uiso   1.00
O1252  O     0.53823   0.56107   0.75000   0.00000  Uiso   1.00
O1253  O     0.46177   0.43893   0.75000   0.00000  Uiso   1.00
O1254  O     0.43994   0.50001   0.81613   0.00000  Uiso   1.00
O1255  O     0.56006   0.49999   0.68388   0.00000  Uiso   1.00
O1256  O     0.51639   0.50000   0.81612   0.00000  Uiso   1.00
O1257  O     0.48361   0.50000   0.68388   0.00000  Uiso   1.00
O1258  O     0.62990   0.52984   0.60511   0.00000  Uiso   1.00
Zn1259 Zn    0.44896   0.50001   0.75000   0.00000  Uiso   1.00
Zn1260 Zn    0.55104   0.49999   0.75000   0.00000  Uiso   1.00
C1261  C     0.83428   0.57989   0.74832   0.00000  Uiso   1.00
C1262  C     0.81941   0.64593   0.71625   0.00000  Uiso   1.00
C1263  C     0.83117   0.37592   0.75308   0.00000  Uiso   1.00
C1264  C     0.83552   0.62408   0.74685   0.00000  Uiso   1.00
C1265  C     0.98696   0.47301   0.72198   0.00000  Uiso   1.00
C1266  C     0.67958   0.52670   0.77837   0.00000  Uiso   1.00
C1267  C     0.70237   0.47258   0.72164   0.00000  Uiso   1.00
C1268  C     0.96427   0.52726   0.77854   0.00000  Uiso   1.00
C1269  C     0.80231   0.49928   0.83817   0.00000  Uiso   1.00
C1270  C     0.86441   0.49988   0.66166   0.00000  Uiso   1.00
C1271  C     0.78218   0.49192   0.88874   0.00000  Uiso   1.00
C1272  C     0.83240   0.42011   0.75166   0.00000  Uiso   1.00
C1273  C     0.88510   0.50120   0.61015   0.00000  Uiso   1.00
C1274  C     0.73624   0.44693   0.95461   0.00000  Uiso   1.00
C1275  C     0.94340   0.52951   0.53631   0.00000  Uiso   1.00
C1276  C     0.74327   0.46339   0.91028   0.00000  Uiso   1.00
C1277  C     0.93176   0.51851   0.58360   0.00000  Uiso   1.00
C1278  C     0.81006   0.50674   0.91266   0.00000  Uiso   1.00
C1279  C     0.85475   0.48807   0.58793   0.00000  Uiso   1.00
C1280  C     0.80741   0.48788   0.95410   0.00000  Uiso   1.00
C1281  C     0.86730   0.49474   0.54013   0.00000  Uiso   1.00
C1282  C     0.76911   0.45839   0.97611   0.00000  Uiso   1.00
C1283  C     0.79750   0.45176   0.53926   0.00000  Uiso   1.00
C1284  C     0.91048   0.51823   0.51476   0.00000  Uiso   1.00
C1285  C     0.84280   0.49703   0.97341   0.00000  Uiso   1.00
C1286  C     0.83554   0.48128   0.51819   0.00000  Uiso   1.00
C1287  C     0.99314   0.49520   0.60318   0.00000  Uiso   1.00
C1288  C     0.67792   0.47070   0.88964   0.00000  Uiso   1.00
C1289  C     0.69739   0.41496   0.97579   0.00000  Uiso   1.00
C1290  C     0.98803   0.55530   0.51135   0.00000  Uiso   1.00
C1291  C     0.85975   0.37443   0.82107   0.00000  Uiso   1.00
C1292  C     0.80735   0.62558   0.67858   0.00000  Uiso   1.00
C1293  C     0.72413   0.41490   0.66963   0.00000  Uiso   1.00
C1294  C     0.88640   0.51975   0.94843   0.00000  Uiso   1.00
C1295  C     0.94327   0.58670   0.82771   0.00000  Uiso   1.00
C1296  C     0.76527   0.44043   0.51854   0.00000  Uiso   1.00
C1297  C     0.91973   0.52952   0.96842   0.00000  Uiso   1.00
C1298  C     0.84987   0.64446   0.77954   0.00000  Uiso   1.00
C1299  C     0.81679   0.35555   0.72039   0.00000  Uiso   1.00
C1300  C     0.84738   0.35407   0.78360   0.00000  Uiso   1.00
H1301  H     0.73705   0.41756   0.53652   0.00000  Uiso   1.00
H1302  H     0.69029   0.54708   0.80079   0.00000  Uiso   1.00
H1303  H     0.97116   0.46809   0.62307   0.00000  Uiso   1.00
H1304  H     0.68610   0.50430   0.61923   0.00000  Uiso   1.00
H1305  H     0.68143   0.48531   0.56642   0.00000  Uiso   1.00
H1306  H     0.99765   0.46142   0.86218   0.00000  Uiso   1.00
H1307  H     0.68721   0.50469   0.88505   0.00000  Uiso   1.00
H1308  H     0.98100   0.46516   0.92419   0.00000  Uiso   1.00
H1309  H     0.68071   0.35471   0.99441   0.00000  Uiso   1.00
H1310  H     0.68327   0.60846   0.97614   0.00000  Uiso   1.00
H1311  H     0.89983   0.37294   0.86093   0.00000  Uiso   1.00
H1312  H     0.95289   0.54598   0.94683   0.00000  Uiso   1.00
H1313  H     0.76799   0.62732   0.63806   0.00000  Uiso   1.00
H1314  H     0.71267   0.42880   0.64272   0.00000  Uiso   1.00
H1315  H     0.69472   0.39490   0.69478   0.00000  Uiso   1.00
H1316  H     0.75574   0.39440   0.65062   0.00000  Uiso   1.00
H1317  H     0.97178   0.60568   0.80022   0.00000  Uiso   1.00
H1318  H     0.95635   0.57558   0.85472   0.00000  Uiso   1.00
H1319  H     0.91170   0.60739   0.84618   0.00000  Uiso   1.00
H1320  H     0.81939   0.47508   0.60953   0.00000  Uiso   1.00
H1321  H     0.83601   0.53151   0.89618   0.00000  Uiso   1.00
H1322  H     0.79320   0.43525   0.57090   0.00000  Uiso   1.00
H1323  H     0.89719   0.52873   0.91228   0.00000  Uiso   1.00
H1324  H     0.86077   0.62649   0.80340   0.00000  Uiso   1.00
H1325  H     0.80580   0.37352   0.69658   0.00000  Uiso   1.00
H1326  H     0.97596   0.45210   0.70022   0.00000  Uiso   1.00
N1327  N     0.71426   0.50001   0.75001   0.00000  Uiso   1.00
N1328  N     0.95241   0.49999   0.74999   0.00000  Uiso   1.00
O1329  O     0.79512   0.56108   0.75001   0.00000  Uiso   1.00
O1330  O     0.71860   0.44567   0.88464   0.00000  Uiso   1.00
O1331  O     0.98754   0.42495   0.99103   0.00000  Uiso   1.00
O1332  O     0.71038   0.37353   0.97881   0.00000  Uiso   1.00
O1333  O     0.69499   0.54316   0.50780   0.00000  Uiso   1.00
O1334  O     0.98371   0.59394   0.99254   0.00000  Uiso   1.00
O1335  O     0.83847   0.40603   0.84079   0.00000  Uiso   1.00
O1336  O     0.89487   0.35654   0.83489   0.00000  Uiso   1.00
O1337  O     0.82849   0.59381   0.65915   0.00000  Uiso   1.00
O1338  O     0.77276   0.64371   0.66421   0.00000  Uiso   1.00
O1339  O     0.73966   0.44620   0.69328   0.00000  Uiso   1.00
O1340  O     0.87154   0.43892   0.75000   0.00000  Uiso   1.00
O1341  O     0.92681   0.55298   0.80782   0.00000  Uiso   1.00
O1342  O     0.87157   0.56107   0.75000   0.00000  Uiso   1.00
O1343  O     0.79510   0.43893   0.75000   0.00000  Uiso   1.00
O1344  O     0.77328   0.50001   0.81613   0.00000  Uiso   1.00
O1345  O     0.89339   0.49999   0.68388   0.00000  Uiso   1.00
O1346  O     0.84972   0.50000   0.81612   0.00000  Uiso   1.00
O1347  O     0.81695   0.50000   0.68388   0.00000  Uiso   1.00
O1348  O     0.96324   0.52984   0.60511   0.00000  Uiso   1.00
Zn1349 Zn    0.78229   0.50001   0.75000   0.00000  Uiso   1.00
Zn1350 Zn    0.88438   0.49999   0.75000   0.00000  Uiso   1.00
C1351  C     0.16761   0.91322   0.74832   0.00000  Uiso   1.00
C1352  C     0.15275   0.97927   0.71625   0.00000  Uiso   1.00
C1353  C     0.16450   0.70925   0.75308   0.00000  Uiso   1.00
C1354  C     0.16885   0.95742   0.74685   0.00000  Uiso   1.00
C1355  C     0.32030   0.80634   0.72198   0.00000  Uiso   1.00
C1356  C     0.01292   0.86004   0.77837   0.00000  Uiso   1.00
C1357  C     0.03571   0.80591   0.72164   0.00000  Uiso   1.00
C1358  C     0.29760   0.86060   0.77854   0.00000  Uiso   1.00
C1359  C     0.13564   0.83261   0.83817   0.00000  Uiso   1.00
C1360  C     0.19774   0.83321   0.66166   0.00000  Uiso   1.00
C1361  C     0.11552   0.82526   0.88874   0.00000  Uiso   1.00
C1362  C     0.16573   0.75344   0.75166   0.00000  Uiso   1.00
C1363  C     0.21843   0.83454   0.61015   0.00000  Uiso   1.00
C1364  C     0.06957   0.78026   0.95461   0.00000  Uiso   1.00
C1365  C     0.27673   0.86284   0.53631   0.00000  Uiso   1.00
C1366  C     0.07661   0.79673   0.91028   0.00000  Uiso   1.00
C1367  C     0.26510   0.85184   0.58360   0.00000  Uiso   1.00
C1368  C     0.14339   0.84007   0.91266   0.00000  Uiso   1.00
C1369  C     0.18809   0.82141   0.58793   0.00000  Uiso   1.00
C1370  C     0.14075   0.82122   0.95410   0.00000  Uiso   1.00
C1371  C     0.20063   0.82808   0.54013   0.00000  Uiso   1.00
C1372  C     0.10245   0.79173   0.97611   0.00000  Uiso   1.00
C1373  C     0.13084   0.78510   0.53926   0.00000  Uiso   1.00
C1374  C     0.24382   0.85157   0.51476   0.00000  Uiso   1.00
C1375  C     0.17613   0.83037   0.97341   0.00000  Uiso   1.00
C1376  C     0.16888   0.81462   0.51819   0.00000  Uiso   1.00
C1377  C     0.32648   0.82853   0.60318   0.00000  Uiso   1.00
C1378  C     0.01125   0.80403   0.88964   0.00000  Uiso   1.00
C1379  C     0.03072   0.74829   0.97579   0.00000  Uiso   1.00
C1380  C     0.32136   0.88864   0.51135   0.00000  Uiso   1.00
C1381  C     0.19308   0.70776   0.82107   0.00000  Uiso   1.00
C1382  C     0.14069   0.95891   0.67858   0.00000  Uiso   1.00
C1383  C     0.05746   0.74824   0.66963   0.00000  Uiso   1.00
C1384  C     0.21973   0.85308   0.94843   0.00000  Uiso   1.00
C1385  C     0.27661   0.92004   0.82771   0.00000  Uiso   1.00
C1386  C     0.09860   0.77376   0.51854   0.00000  Uiso   1.00
C1387  C     0.25306   0.86285   0.96842   0.00000  Uiso   1.00
C1388  C     0.18321   0.97779   0.77954   0.00000  Uiso   1.00
C1389  C     0.15012   0.68888   0.72039   0.00000  Uiso   1.00
C1390  C     0.18071   0.68740   0.78360   0.00000  Uiso   1.00
H1391  H     0.07038   0.75090   0.53652   0.00000  Uiso   1.00
H1392  H     0.02362   0.88042   0.80079   0.00000  Uiso   1.00
H1393  H     0.30450   0.80142   0.62307   0.00000  Uiso   1.00
H1394  H     0.01944   0.83763   0.61923   0.00000  Uiso   1.00
H1395  H     0.01476   0.81864   0.56642   0.00000  Uiso   1.00
H1396  H     0.33099   0.79476   0.86218   0.00000  Uiso   1.00
H1397  H     0.02054   0.83802   0.88505   0.00000  Uiso   1.00
H1398  H     0.31433   0.79849   0.92419   0.00000  Uiso   1.00
H1399  H     0.01404   0.68804   0.99441   0.00000  Uiso   1.00
H1400  H     0.01660   0.94179   0.97614   0.00000  Uiso   1.00
H1401  H     0.23316   0.70628   0.86093   0.00000  Uiso   1.00
H1402  H     0.28623   0.87931   0.94683   0.00000  Uiso   1.00
H1403  H     0.10133   0.96065   0.63806   0.00000  Uiso   1.00
H1404  H     0.04601   0.76213   0.64272   0.00000  Uiso   1.00
H1405  H     0.02805   0.72823   0.69478   0.00000  Uiso   1.00
H1406  H     0.08907   0.72773   0.65062   0.00000  Uiso   1.00
H1407  H     0.30511   0.93901   0.80022   0.00000  Uiso   1.00
H1408  H     0.28968   0.90892   0.85472   0.00000  Uiso   1.00
H1409  H     0.24504   0.94073   0.84618   0.00000  Uiso   1.00
H1410  H     0.15272   0.80841   0.60953   0.00000  Uiso   1.00
H1411  H     0.16934   0.86484   0.89618   0.00000  Uiso   1.00
H1412  H     0.12653   0.76858   0.57090   0.00000  Uiso   1.00
H1413  H     0.23052   0.86207   0.91228   0.00000  Uiso   1.00
H1414  H     0.19411   0.95982   0.80340   0.00000  Uiso   1.00
H1415  H     0.13913   0.70685   0.69658   0.00000  Uiso   1.00
H1416  H     0.30929   0.78543   0.70022   0.00000  Uiso   1.00
N1417  N     0.04759   0.83334   0.75001   0.00000  Uiso   1.00
N1418  N     0.28574   0.83332   0.74999   0.00000  Uiso   1.00
O1419  O     0.12846   0.89442   0.75001   0.00000  Uiso   1.00
O1420  O     0.05193   0.77900   0.88464   0.00000  Uiso   1.00
O1421  O     0.32088   0.75828   0.99103   0.00000  Uiso   1.00
O1422  O     0.04371   0.70687   0.97881   0.00000  Uiso   1.00
O1423  O     0.02833   0.87649   0.50780   0.00000  Uiso   1.00
O1424  O     0.31704   0.92728   0.99254   0.00000  Uiso   1.00
O1425  O     0.17180   0.73936   0.84079   0.00000  Uiso   1.00
O1426  O     0.22820   0.68987   0.83489   0.00000  Uiso   1.00
O1427  O     0.16183   0.92714   0.65915   0.00000  Uiso   1.00
O1428  O     0.10610   0.97704   0.66421   0.00000  Uiso   1.00
O1429  O     0.07299   0.77954   0.69328   0.00000  Uiso   1.00
O1430  O     0.20488   0.77225   0.75000   0.00000  Uiso   1.00
O1431  O     0.26015   0.88631   0.80782   0.00000  Uiso   1.00
O1432  O     0.20490   0.89441   0.75000   0.00000  Uiso   1.00
O1433  O     0.12843   0.77226   0.75000   0.00000  Uiso   1.00
O1434  O     0.10661   0.83334   0.81613   0.00000  Uiso   1.00
O1435  O     0.22672   0.83333   0.68388   0.00000  Uiso   1.00
O1436  O     0.18305   0.83333   0.81612   0.00000  Uiso   1.00
O1437  O     0.15028   0.83334   0.68388   0.00000  Uiso   1.00
O1438  O     0.29657   0.86317   0.60511   0.00000  Uiso   1.00
Zn1439 Zn    0.11562   0.83334   0.75000   0.00000  Uiso   1.00
Zn1440 Zn    0.21771   0.83333   0.75000   0.00000  Uiso   1.00
C1441  C     0.50094   0.91322   0.74832   0.00000  Uiso   1.00
C1442  C     0.48608   0.97927   0.71625   0.00000  Uiso   1.00
C1443  C     0.49784   0.70925   0.75308   0.00000  Uiso   1.00
C1444  C     0.50219   0.95742   0.74685   0.00000  Uiso   1.00
C1445  C     0.65363   0.80634   0.72198   0.00000  Uiso   1.00
C1446  C     0.34625   0.86004   0.77837   0.00000  Uiso   1.00
C1447  C     0.36904   0.80591   0.72164   0.00000  Uiso   1.00
C1448  C     0.63093   0.86060   0.77854   0.00000  Uiso   1.00
C1449  C     0.46898   0.83261   0.83817   0.00000  Uiso   1.00
C1450  C     0.53107   0.83321   0.66166   0.00000  Uiso   1.00
C1451  C     0.44885   0.82526   0.88874   0.00000  Uiso   1.00
C1452  C     0.49906   0.75344   0.75166   0.00000  Uiso   1.00
C1453  C     0.55177   0.83454   0.61015   0.00000  Uiso   1.00
C1454  C     0.40291   0.78026   0.95461   0.00000  Uiso   1.00
C1455  C     0.61007   0.86284   0.53631   0.00000  Uiso   1.00
C1456  C     0.40994   0.79673   0.91028   0.00000  Uiso   1.00
C1457  C     0.59843   0.85184   0.58360   0.00000  Uiso   1.00
C1458  C     0.47672   0.84007   0.91266   0.00000  Uiso   1.00
C1459  C     0.52142   0.82141   0.58793   0.00000  Uiso   1.00
C1460  C     0.47408   0.82122   0.95410   0.00000  Uiso   1.00
C1461  C     0.53397   0.82808   0.54013   0.00000  Uiso   1.00
C1462  C     0.43578   0.79173   0.97611   0.00000  Uiso   1.00
C1463  C     0.46417   0.78510   0.53926   0.00000  Uiso   1.00
C1464  C     0.57715   0.85157   0.51476   0.00000  Uiso   1.00
C1465  C     0.50946   0.83037   0.97341   0.00000  Uiso   1.00
C1466  C     0.50221   0.81462   0.51819   0.00000  Uiso   1.00
C1467  C     0.65981   0.82853   0.60318   0.00000  Uiso   1.00
C1468  C     0.34459   0.80403   0.88964   0.00000  Uiso   1.00
C1469  C     0.36405   0.74829   0.97579   0.00000  Uiso   1.00
C1470  C     0.65470   0.88864   0.51135   0.00000  Uiso   1.00
C1471  C     0.52641   0.70776   0.82107   0.00000  Uiso   1.00
C1472  C     0.47402   0.95891   0.67858   0.00000  Uiso   1.00
C1473  C     0.39079   0.74824   0.66963   0.00000  Uiso   1.00
C1474  C     0.55306   0.85308   0.94843   0.00000  Uiso   1.00
C1475  C     0.60994   0.92004   0.82771   0.00000  Uiso   1.00
C1476  C     0.43194   0.77376   0.51854   0.00000  Uiso   1.00
C1477  C     0.58640   0.86285   0.96842   0.00000  Uiso   1.00
C1478  C     0.51654   0.97779   0.77954   0.00000  Uiso   1.00
C1479  C     0.48345   0.68888   0.72039   0.00000  Uiso   1.00
C1480  C     0.51404   0.68740   0.78360   0.00000  Uiso   1.00
H1481  H     0.40371   0.75090   0.53652   0.00000  Uiso   1.00
H1482  H     0.35696   0.88042   0.80079   0.00000  Uiso   1.00
H1483  H     0.63783   0.80142   0.62307   0.00000  Uiso   1.00
H1484  H     0.35277   0.83763   0.61923   0.00000  Uiso   1.00
H1485  H     0.34810   0.81864   0.56642   0.00000  Uiso   1.00
H1486  H     0.66432   0.79476   0.86218   0.00000  Uiso   1.00
H1487  H     0.35388   0.83802   0.88505   0.00000  Uiso   1.00
H1488  H     0.64766   0.79849   0.92419   0.00000  Uiso   1.00
H1489  H     0.34737   0.68804   0.99441   0.00000  Uiso   1.00
H1490  H     0.34994   0.94179   0.97614   0.00000  Uiso   1.00
H1491  H     0.56649   0.70628   0.86093   0.00000  Uiso   1.00
H1492  H     0.61956   0.87931   0.94683   0.00000  Uiso   1.00
H1493  H     0.43466   0.96065   0.63806   0.00000  Uiso   1.00
H1494  H     0.37934   0.76213   0.64272   0.00000  Uiso   1.00
H1495  H     0.36139   0.72823   0.69478   0.00000  Uiso   1.00
H1496  H     0.42241   0.72773   0.65062   0.00000  Uiso   1.00
H1497  H     0.63844   0.93901   0.80022   0.00000  Uiso   1.00
H1498  H     0.62302   0.90892   0.85472   0.00000  Uiso   1.00
H1499  H     0.57837   0.94073   0.84618   0.00000  Uiso   1.00
H1500  H     0.48605   0.80841   0.60953   0.00000  Uiso   1.00
H1501  H     0.50267   0.86484   0.89618   0.00000  Uiso   1.00
H1502  H     0.45986   0.76858   0.57090   0.00000  Uiso   1.00
H1503  H     0.56386   0.86207   0.91228   0.00000  Uiso   1.00
H1504  H     0.52744   0.95982   0.80340   0.00000  Uiso   1.00
H1505  H     0.47247   0.70685   0.69658   0.00000  Uiso   1.00
H1506  H     0.64263   0.78543   0.70022   0.00000  Uiso   1.00
N1507  N     0.38093   0.83334   0.75001   0.00000  Uiso   1.00
N1508  N     0.61907   0.83332   0.74999   0.00000  Uiso   1.00
O1509  O     0.46179   0.89442   0.75001   0.00000  Uiso   1.00
O1510  O     0.38526   0.77900   0.88464   0.00000  Uiso   1.00
O1511  O     0.65421   0.75828   0.99103   0.00000  Uiso   1.00
O1512  O     0.37705   0.70687   0.97881   0.00000  Uiso   1.00
O1513  O     0.36166   0.87649   0.50780   0.00000  Uiso   1.00
O1514  O     0.65037   0.92728   0.99254   0.00000  Uiso   1.00
O1515  O     0.50513   0.73936   0.84079   0.00000  Uiso   1.00
O1516  O     0.56153   0.68987   0.83489   0.00000  Uiso   1.00
O1517  O     0.49516   0.92714   0.65915   0.00000  Uiso   1.00
O1518  O     0.43943   0.97704   0.66421   0.00000  Uiso   1.00
O1519  O     0.40632   0.77954   0.69328   0.00000  Uiso   1.00
O1520  O     0.53821   0.77225   0.75000   0.00000  Uiso   1.00
O1521  O     0.59348   0.88631   0.80782   0.00000  Uiso   1.00
O1522  O     0.53823   0.89441   0.75000   0.00000  Uiso   1.00
O1523  O     0.46177   0.77226   0.75000   0.00000  Uiso   1.00
O1524  O     0.43994   0.83334   0.81613   0.00000  Uiso   1.00
O1525  O     0.56006   0.83333   0.68388   0.00000  Uiso   1.00
O1526  O     0.51639   0.83333   0.81612   0.00000  Uiso   1.00
O1527  O     0.48361   0.83334   0.68388   0.00000  Uiso   1.00
O1528  O     0.62990   0.86317   0.60511   0.00000  Uiso   1.00
Zn1529 Zn    0.44896   0.83334   0.75000   0.00000  Uiso   1.00
Zn1530 Zn    0.55104   0.83333   0.75000   0.00000  Uiso   1.00
C1531  C     0.83428   0.91322   0.74832   0.00000  Uiso   1.00
C1532  C     0.81941   0.97927   0.71625   0.00000  Uiso   1.00
C1533  C     0.83117   0.70925   0.75308   0.00000  Uiso   1.00
C1534  C     0.83552   0.95742   0.74685   0.00000  Uiso   1.00
C1535  C     0.98696   0.80634   0.72198   0.00000  Uiso   1.00
C1536  C     0.67958   0.86004   0.77837   0.00000  Uiso   1.00
C1537  C     0.70237   0.80591   0.72164   0.00000  Uiso   1.00
C1538  C     0.96427   0.86060   0.77854   0.00000  Uiso   1.00
C1539  C     0.80231   0.83261   0.83817   0.00000  Uiso   1.00
C1540  C     0.86441   0.83321   0.66166   0.00000  Uiso   1.00
C1541  C     0.78218   0.82526   0.88874   0.00000  Uiso   1.00
C1542  C     0.83240   0.75344   0.75166   0.00000  Uiso   1.00
C1543  C     0.88510   0.83454   0.61015   0.00000  Uiso   1.00
C1544  C     0.73624   0.78026   0.95461   0.00000  Uiso   1.00
C1545  C     0.94340   0.86284   0.53631   0.00000  Uiso   1.00
C1546  C     0.74327   0.79673   0.91028   0.00000  Uiso   1.00
C1547  C     0.93176   0.85184   0.58360   0.00000  Uiso   1.00
C1548  C     0.81006   0.84007   0.91266   0.00000  Uiso   1.00
C1549  C     0.85475   0.82141   0.58793   0.00000  Uiso   1.00
C1550  C     0.80741   0.82122   0.95410   0.00000  Uiso   1.00
C1551  C     0.86730   0.82808   0.54013   0.00000  Uiso   1.00
C1552  C     0.76911   0.79173   0.97611   0.00000  Uiso   1.00
C1553  C     0.79750   0.78510   0.53926   0.00000  Uiso   1.00
C1554  C     0.91048   0.85157   0.51476   0.00000  Uiso   1.00
C1555  C     0.84280   0.83037   0.97341   0.00000  Uiso   1.00
C1556  C     0.83554   0.81462   0.51819   0.00000  Uiso   1.00
C1557  C     0.99314   0.82853   0.60318   0.00000  Uiso   1.00
C1558  C     0.67792   0.80403   0.88964   0.00000  Uiso   1.00
C1559  C     0.69739   0.74829   0.97579   0.00000  Uiso   1.00
C1560  C     0.98803   0.88864   0.51135   0.00000  Uiso   1.00
C1561  C     0.85975   0.70776   0.82107   0.00000  Uiso   1.00
C1562  C     0.80735   0.95891   0.67858   0.00000  Uiso   1.00
C1563  C     0.72413   0.74824   0.66963   0.00000  Uiso   1.00
C1564  C     0.88640   0.85308   0.94843   0.00000  Uiso   1.00
C1565  C     0.94327   0.92004   0.82771   0.00000  Uiso   1.00
C1566  C     0.76527   0.77376   0.51854   0.00000  Uiso   1.00
C1567  C     0.91973   0.86285   0.96842   0.00000  Uiso   1.00
C1568  C     0.84987   0.97779   0.77954   0.00000  Uiso   1.00
C1569  C     0.81679   0.68888   0.72039   0.00000  Uiso   1.00
C1570  C     0.84738   0.68740   0.78360   0.00000  Uiso   1.00
H1571  H     0.73705   0.75090   0.53652   0.00000  Uiso   1.00
H1572  H     0.69029   0.88042   0.80079   0.00000  Uiso   1.00
H1573  H     0.97116   0.80142   0.62307   0.00000  Uiso   1.00
H1574  H     0.68610   0.83763   0.61923   0.00000  Uiso   1.00
H1575  H     0.68143   0.81864   0.56642   0.00000  Uiso   1.00
H1576  H     0.99765   0.79476   0.86218   0.00000  Uiso   1.00
H1577  H     0.68721   0.83802   0.88505   0.00000  Uiso   1.00
H1578  H     0.98100   0.79849   0.92419   0.00000  Uiso   1.00
H1579  H     0.68071   0.68804   0.99441   0.00000  Uiso   1.00
H1580  H     0.68327   0.94179   0.97614   0.00000  Uiso   1.00
H1581  H     0.89983   0.70628   0.86093   0.00000  Uiso   1.00
H1582  H     0.95289   0.87931   0.94683   0.00000  Uiso   1.00
H1583  H     0.76799   0.96065   0.63806   0.00000  Uiso   1.00
H1584  H     0.71267   0.76213   0.64272   0.00000  Uiso   1.00
H1585  H     0.69472   0.72823   0.69478   0.00000  Uiso   1.00
H1586  H     0.75574   0.72773   0.65062   0.00000  Uiso   1.00
H1587  H     0.97178   0.93901   0.80022   0.00000  Uiso   1.00
H1588  H     0.95635   0.90892   0.85472   0.00000  Uiso   1.00
H1589  H     0.91170   0.94073   0.84618   0.00000  Uiso   1.00
H1590  H     0.81939   0.80841   0.60953   0.00000  Uiso   1.00
H1591  H     0.83601   0.86484   0.89618   0.00000  Uiso   1.00
H1592  H     0.79320   0.76858   0.57090   0.00000  Uiso   1.00
H1593  H     0.89719   0.86207   0.91228   0.00000  Uiso   1.00
H1594  H     0.86077   0.95982   0.80340   0.00000  Uiso   1.00
H1595  H     0.80580   0.70685   0.69658   0.00000  Uiso   1.00
H1596  H     0.97596   0.78543   0.70022   0.00000  Uiso   1.00
N1597  N     0.71426   0.83334   0.75001   0.00000  Uiso   1.00
N1598  N     0.95241   0.83332   0.74999   0.00000  Uiso   1.00
O1599  O     0.79512   0.89442   0.75001   0.00000  Uiso   1.00
O1600  O     0.71860   0.77900   0.88464   0.00000  Uiso   1.00
O1601  O     0.98754   0.75828   0.99103   0.00000  Uiso   1.00
O1602  O     0.71038   0.70687   0.97881   0.00000  Uiso   1.00
O1603  O     0.69499   0.87649   0.50780   0.00000  Uiso   1.00
O1604  O     0.98371   0.92728   0.99254   0.00000  Uiso   1.00
O1605  O     0.83847   0.73936   0.84079   0.00000  Uiso   1.00
O1606  O     0.89487   0.68987   0.83489   0.00000  Uiso   1.00
O1607  O     0.82849   0.92714   0.65915   0.00000  Uiso   1.00
O1608  O     0.77276   0.97704   0.66421   0.00000  Uiso   1.00
O1609  O     0.73966   0.77954   0.69328   0.00000  Uiso   1.00
O1610  O     0.87154   0.77225   0.75000   0.00000  Uiso   1.00
O1611  O     0.92681   0.88631   0.80782   0.00000  Uiso   1.00
O1612  O     0.87157   0.89441   0.75000   0.00000  Uiso   1.00
O1613  O     0.79510   0.77226   0.75000   0.00000  Uiso   1.00
O1614  O     0.77328   0.83334   0.81613   0.00000  Uiso   1.00
O1615  O     0.89339   0.83333   0.68388   0.00000  Uiso   1.00
O1616  O     0.84972   0.83333   0.81612   0.00000  Uiso   1.00
O1617  O     0.81695   0.83334   0.68388   0.00000  Uiso   1.00
O1618  O     0.96324   0.86317   0.60511   0.00000  Uiso   1.00
Zn1619 Zn    0.78229   0.83334   0.75000   0.00000  Uiso   1.00
Zn1620 Zn    0.88438   0.83333   0.75000   0.00000  Uiso   1.00
loop_
_geom_bond_atom_site_label_1
_geom_bond_atom_site_label_2
_geom_bond_distance
_geom_bond_site_symmetry_2
_ccdc_geom_bond_type
C1     O69     1.282   .     A
C1     C4      1.413   .     S
C1     O82     1.282   .     A
C2     C32     1.488   .     S
C2     C4      1.408   .     A
C2     C309    1.378   .     S
C3     C12     1.413   .     S
C3     C39     1.395   .     A
C3     C40     1.408   .     A
C4     C38     1.394   .     A
C5     N68     1.362   .     A
C5     H66     1.079   .     S
C5     C97     1.439   .     S
C6     N67     1.362   .     A
C6     H42     1.079   .     S
C6     C188    1.438   1_455 S
C7     O79     1.396   .     S
C7     N67     1.372   .     A
C7     C185    1.439   1_455 S
C8     O81     1.396   .     S
C8     N68     1.373   .     A
C8     C96     1.438   .     S
C9     O86     1.298   .     A
C9     C11     1.459   .     S
C9     O84     1.289   .     A
C10    O85     1.292   .     A
C10    O87     1.300   .     A
C10    C13     1.467   .     S
C11    C18     1.383   .     A
C11    C16     1.410   .     A
C12    O83     1.282   .     A
C12    O80     1.282   .     A
C13    C19     1.387   .     A
C13    C17     1.411   .     A
C14    C16     1.409   .     A
C14    C29     1.480   .     S
C14    C22     1.420   .     A
C15    C30     1.486   .     S
C15    C17     1.412   .     A
C15    C24     1.421   .     A
C16    O70     1.385   .     S
C17    O88     1.383   .     S
C18    H61     1.079   .     S
C18    C20     1.395   .     A
C19    C21     1.394   .     A
C19    H60     1.078   .     S
C20    C25     1.420   .     A
C20    C22     1.421   .     A
C21    C26     1.419   .     A
C21    C24     1.420   .     A
C22    C846    1.400   .     S
C23    C26     1.412   .     A
C23    H62     1.078   .     S
C23    C36     1.385   .     A
C24    C847    1.399   1_554 S
C25    C34     1.413   .     A
C25    C836    1.412   .     S
C26    C835    1.412   1_554 S
C27    O88     1.412   .     S
C27    H43     1.112   .     S
C27    H134    1.109   .     S
C27    H135    1.110   .     S
C28    H47     1.114   .     S
C28    O70     1.410   .     S
C28    H226    1.109   1_455 S
C28    H228    1.107   1_455 S
C29    O72     1.397   .     S
C29    O251    1.222   1_455 S
C30    O163    1.222   .     S
C30    O884    1.398   1_554 S
C31    C40     1.488   .     S
C31    O75     1.222   .     D
C31    O76     1.398   .     S
C32    O77     1.222   .     D
C32    O78     1.398   .     S
C33    H55     1.113   .     S
C33    H56     1.108   .     S
C33    O79     1.409   .     S
C33    H54     1.111   .     S
C34    C37     1.385   .     A
C34    H63     1.076   .     S
C35    O81     1.410   .     S
C35    H58     1.111   .     S
C35    H59     1.108   .     S
C35    H57     1.113   .     S
C36    H41     1.082   .     S
C36    C832    1.400   1_554 S
C37    H52     1.081   .     S
C37    C834    1.399   .     S
C38    H64     1.084   .     S
C38    C310    1.378   .     S
C39    H65     1.085   .     S
C39    C542    1.378   1_545 S
C40    C578    1.378   1_545 S
H44    C207    1.109   1_455 S
H45    C207    1.110   1_455 S
H46    C118    1.109   .     S
H48    C118    1.107   .     S
H49    O72     1.014   .     S
H50    O254    1.014   1_455 S
H51    O76     1.014   .     S
H53    O78     1.014   .     S
N67    Zn89    2.013   .     S
N68    Zn90    2.013   .     S
O69    Zn89    1.985   .     S
O71    C119    1.222   .     S
O73    C210    1.222   1_455 S
O74    C840    1.398   .     S
O74    H140    1.014   .     S
O80    Zn90    1.985   .     S
O82    Zn90    1.993   .     S
O83    Zn89    1.993   .     S
O84    Zn89    1.956   .     S
O85    Zn90    1.956   .     S
O86    Zn90    1.895   .     S
O87    Zn89    1.895   .     S
C91    O159    1.282   .     A
C91    C94     1.413   .     S
C91    O172    1.282   .     A
C92    C122    1.488   .     S
C92    C94     1.408   .     A
C92    C399    1.378   .     S
C93    C102    1.413   .     S
C93    C129    1.395   .     A
C93    C130    1.408   .     A
C94    C128    1.394   .     A
C95    N158    1.362   .     A
C95    H156    1.079   .     S
C95    C187    1.439   .     S
C96    N157    1.362   .     A
C96    H132    1.079   .     S
C97    O169    1.396   .     S
C97    N157    1.372   .     A
C98    O171    1.396   .     S
C98    N158    1.373   .     A
C98    C186    1.438   .     S
C99    O176    1.298   .     A
C99    C101    1.459   .     S
C99    O174    1.289   .     A
C100   O175    1.292   .     A
C100   O177    1.300   .     A
C100   C103    1.467   .     S
C101   C108    1.383   .     A
C101   C106    1.410   .     A
C102   O173    1.282   .     A
C102   O170    1.282   .     A
C103   C109    1.387   .     A
C103   C107    1.411   .     A
C104   C106    1.409   .     A
C104   C119    1.480   .     S
C104   C112    1.420   .     A
C105   C120    1.486   .     S
C105   C107    1.412   .     A
C105   C114    1.421   .     A
C106   O160    1.385   .     S
C107   O178    1.383   .     S
C108   H151    1.079   .     S
C108   C110    1.395   .     A
C109   C111    1.394   .     A
C109   H150    1.078   .     S
C110   C115    1.420   .     A
C110   C112    1.421   .     A
C111   C116    1.419   .     A
C111   C114    1.420   .     A
C112   C936    1.400   .     S
C113   C116    1.412   .     A
C113   H152    1.078   .     S
C113   C126    1.385   .     A
C114   C937    1.399   1_554 S
C115   C124    1.413   .     A
C115   C926    1.412   .     S
C116   C925    1.412   1_554 S
C117   O178    1.412   .     S
C117   H133    1.112   .     S
C117   H224    1.109   .     S
C117   H225    1.110   .     S
C118   H137    1.114   .     S
C118   O160    1.410   .     S
C119   O162    1.397   .     S
C120   O253    1.222   .     S
C120   O974    1.398   1_554 S
C121   C130    1.488   .     S
C121   O165    1.222   .     D
C121   O166    1.398   .     S
C122   O167    1.222   .     D
C122   O168    1.398   .     S
C123   H145    1.113   .     S
C123   H146    1.108   .     S
C123   O169    1.409   .     S
C123   H144    1.111   .     S
C124   C127    1.385   .     A
C124   H153    1.076   .     S
C125   O171    1.410   .     S
C125   H148    1.111   .     S
C125   H149    1.108   .     S
C125   H147    1.113   .     S
C126   H131    1.082   .     S
C126   C922    1.400   1_554 S
C127   H142    1.081   .     S
C127   C924    1.399   .     S
C128   H154    1.084   .     S
C128   C400    1.378   .     S
C129   H155    1.085   .     S
C129   C632    1.378   1_545 S
C130   C668    1.378   1_545 S
H136   C208    1.109   .     S
H138   C208    1.107   .     S
H139   O162    1.014   .     S
H141   O166    1.014   .     S
H143   O168    1.014   .     S
N157   Zn179   2.013   .     S
N158   Zn180   2.013   .     S
O159   Zn179   1.985   .     S
O161   C209    1.222   .     S
O164   C930    1.398   .     S
O164   H230    1.014   .     S
O170   Zn180   1.985   .     S
O172   Zn180   1.993   .     S
O173   Zn179   1.993   .     S
O174   Zn179   1.956   .     S
O175   Zn180   1.956   .     S
O176   Zn180   1.895   .     S
O177   Zn179   1.895   .     S
C181   O249    1.282   .     A
C181   C184    1.413   .     S
C181   O262    1.282   .     A
C182   C212    1.488   .     S
C182   C184    1.408   .     A
C182   C489    1.378   .     S
C183   C192    1.413   .     S
C183   C219    1.395   .     A
C183   C220    1.408   .     A
C184   C218    1.394   .     A
C185   N248    1.362   .     A
C185   H246    1.079   .     S
C185   C7      1.439   1_655 S
C186   N247    1.362   .     A
C186   H222    1.079   .     S
C187   O259    1.396   .     S
C187   N247    1.372   .     A
C188   O261    1.396   .     S
C188   N248    1.373   .     A
C188   C6      1.438   1_655 S
C189   O266    1.298   .     A
C189   C191    1.459   .     S
C189   O264    1.289   .     A
C190   O265    1.292   .     A
C190   O267    1.300   .     A
C190   C193    1.467   .     S
C191   C198    1.383   .     A
C191   C196    1.410   .     A
C192   O263    1.282   .     A
C192   O260    1.282   .     A
C193   C199    1.387   .     A
C193   C197    1.411   .     A
C194   C196    1.409   .     A
C194   C209    1.480   .     S
C194   C202    1.420   .     A
C195   C210    1.486   .     S
C195   C197    1.412   .     A
C195   C204    1.421   .     A
C196   O250    1.385   .     S
C197   O268    1.383   .     S
C198   H241    1.079   .     S
C198   C200    1.395   .     A
C199   C201    1.394   .     A
C199   H240    1.078   .     S
C200   C205    1.420   .     A
C200   C202    1.421   .     A
C201   C206    1.419   .     A
C201   C204    1.420   .     A
C202   C1026   1.400   .     S
C203   C206    1.412   .     A
C203   H242    1.078   .     S
C203   C216    1.385   .     A
C204   C1027   1.399   1_554 S
C205   C214    1.413   .     A
C205   C1016   1.412   .     S
C206   C1015   1.412   1_554 S
C207   O268    1.412   .     S
C207   H223    1.112   .     S
C207   H44     1.109   1_655 S
C207   H45     1.110   1_655 S
C208   H227    1.114   .     S
C208   O250    1.410   .     S
C209   O252    1.397   .     S
C210   O73     1.222   1_655 S
C210   O1064   1.398   1_554 S
C211   C220    1.488   .     S
C211   O255    1.222   .     D
C211   O256    1.398   .     S
C212   O257    1.222   .     D
C212   O258    1.398   .     S
C213   H235    1.113   .     S
C213   H236    1.108   .     S
C213   O259    1.409   .     S
C213   H234    1.111   .     S
C214   C217    1.385   .     A
C214   H243    1.076   .     S
C215   O261    1.410   .     S
C215   H238    1.111   .     S
C215   H239    1.108   .     S
C215   H237    1.113   .     S
C216   H221    1.082   .     S
C216   C1012   1.400   1_554 S
C217   H232    1.081   .     S
C217   C1014   1.399   .     S
C218   H244    1.084   .     S
C218   C490    1.378   .     S
C219   H245    1.085   .     S
C219   C722    1.378   1_545 S
C220   C758    1.378   1_545 S
H226   C28     1.109   1_655 S
H228   C28     1.107   1_655 S
H229   O252    1.014   .     S
H231   O256    1.014   .     S
H233   O258    1.014   .     S
N247   Zn269   2.013   .     S
N248   Zn270   2.013   .     S
O249   Zn269   1.985   .     S
O251   C29     1.222   1_655 S
O254   C1020   1.398   .     S
O254   H50     1.014   1_655 S
O260   Zn270   1.985   .     S
O262   Zn270   1.993   .     S
O263   Zn269   1.993   .     S
O264   Zn269   1.956   .     S
O265   Zn270   1.956   .     S
O266   Zn270   1.895   .     S
O267   Zn269   1.895   .     S
C271   O339    1.282   .     A
C271   C274    1.413   .     S
C271   O352    1.282   .     A
C272   C302    1.488   .     S
C272   C274    1.408   .     A
C272   C579    1.378   .     S
C273   C282    1.413   .     S
C273   C309    1.395   .     A
C273   C310    1.408   .     A
C274   C308    1.394   .     A
C275   N338    1.362   .     A
C275   H336    1.079   .     S
C275   C367    1.439   .     S
C276   N337    1.362   .     A
C276   H312    1.079   .     S
C276   C458    1.438   1_455 S
C277   O349    1.396   .     S
C277   N337    1.372   .     A
C277   C455    1.439   1_455 S
C278   O351    1.396   .     S
C278   N338    1.373   .     A
C278   C366    1.438   .     S
C279   O356    1.298   .     A
C279   C281    1.459   .     S
C279   O354    1.289   .     A
C280   O355    1.292   .     A
C280   O357    1.300   .     A
C280   C283    1.467   .     S
C281   C288    1.383   .     A
C281   C286    1.410   .     A
C282   O353    1.282   .     A
C282   O350    1.282   .     A
C283   C289    1.387   .     A
C283   C287    1.411   .     A
C284   C286    1.409   .     A
C284   C299    1.480   .     S
C284   C292    1.420   .     A
C285   C300    1.486   .     S
C285   C287    1.412   .     A
C285   C294    1.421   .     A
C286   O340    1.385   .     S
C287   O358    1.383   .     S
C288   H331    1.079   .     S
C288   C290    1.395   .     A
C289   C291    1.394   .     A
C289   H330    1.078   .     S
C290   C295    1.420   .     A
C290   C292    1.421   .     A
C291   C296    1.419   .     A
C291   C294    1.420   .     A
C292   C1116   1.400   .     S
C293   C296    1.412   .     A
C293   H332    1.078   .     S
C293   C306    1.385   .     A
C294   C1117   1.399   1_554 S
C295   C304    1.413   .     A
C295   C1106   1.412   .     S
C296   C1105   1.412   1_554 S
C297   O358    1.412   .     S
C297   H313    1.112   .     S
C297   H404    1.109   .     S
C297   H405    1.110   .     S
C298   H317    1.114   .     S
C298   O340    1.410   .     S
C298   H496    1.109   1_455 S
C298   H498    1.107   1_455 S
C299   O342    1.397   .     S
C299   O521    1.222   1_455 S
C300   O433    1.222   .     S
C300   O1154   1.398   1_554 S
C301   C310    1.488   .     S
C301   O345    1.222   .     D
C301   O346    1.398   .     S
C302   O347    1.222   .     D
C302   O348    1.398   .     S
C303   H325    1.113   .     S
C303   H326    1.108   .     S
C303   O349    1.409   .     S
C303   H324    1.111   .     S
C304   C307    1.385   .     A
C304   H333    1.076   .     S
C305   O351    1.410   .     S
C305   H328    1.111   .     S
C305   H329    1.108   .     S
C305   H327    1.113   .     S
C306   H311    1.082   .     S
C306   C1102   1.400   1_554 S
C307   H322    1.081   .     S
C307   C1104   1.399   .     S
C308   H334    1.084   .     S
C308   C580    1.378   .     S
C309   H335    1.085   .     S
H314   C477    1.109   1_455 S
H315   C477    1.110   1_455 S
H316   C388    1.109   .     S
H318   C388    1.107   .     S
H319   O342    1.014   .     S
H320   O524    1.014   1_455 S
H321   O346    1.014   .     S
H323   O348    1.014   .     S
N337   Zn359   2.013   .     S
N338   Zn360   2.013   .     S
O339   Zn359   1.985   .     S
O341   C389    1.222   .     S
O343   C480    1.222   1_455 S
O344   C1110   1.398   .     S
O344   H410    1.014   .     S
O350   Zn360   1.985   .     S
O352   Zn360   1.993   .     S
O353   Zn359   1.993   .     S
O354   Zn359   1.956   .     S
O355   Zn360   1.956   .     S
O356   Zn360   1.895   .     S
O357   Zn359   1.895   .     S
C361   O429    1.282   .     A
C361   C364    1.413   .     S
C361   O442    1.282   .     A
C362   C392    1.488   .     S
C362   C364    1.408   .     A
C362   C669    1.378   .     S
C363   C372    1.413   .     S
C363   C399    1.395   .     A
C363   C400    1.408   .     A
C364   C398    1.394   .     A
C365   N428    1.362   .     A
C365   H426    1.079   .     S
C365   C457    1.439   .     S
C366   N427    1.362   .     A
C366   H402    1.079   .     S
C367   O439    1.396   .     S
C367   N427    1.372   .     A
C368   O441    1.396   .     S
C368   N428    1.373   .     A
C368   C456    1.438   .     S
C369   O446    1.298   .     A
C369   C371    1.459   .     S
C369   O444    1.289   .     A
C370   O445    1.292   .     A
C370   O447    1.300   .     A
C370   C373    1.467   .     S
C371   C378    1.383   .     A
C371   C376    1.410   .     A
C372   O443    1.282   .     A
C372   O440    1.282   .     A
C373   C379    1.387   .     A
C373   C377    1.411   .     A
C374   C376    1.409   .     A
C374   C389    1.480   .     S
C374   C382    1.420   .     A
C375   C390    1.486   .     S
C375   C377    1.412   .     A
C375   C384    1.421   .     A
C376   O430    1.385   .     S
C377   O448    1.383   .     S
C378   H421    1.079   .     S
C378   C380    1.395   .     A
C379   C381    1.394   .     A
C379   H420    1.078   .     S
C380   C385    1.420   .     A
C380   C382    1.421   .     A
C381   C386    1.419   .     A
C381   C384    1.420   .     A
C382   C1206   1.400   .     S
C383   C386    1.412   .     A
C383   H422    1.078   .     S
C383   C396    1.385   .     A
C384   C1207   1.399   1_554 S
C385   C394    1.413   .     A
C385   C1196   1.412   .     S
C386   C1195   1.412   1_554 S
C387   O448    1.412   .     S
C387   H403    1.112   .     S
C387   H494    1.109   .     S
C387   H495    1.110   .     S
C388   H407    1.114   .     S
C388   O430    1.410   .     S
C389   O432    1.397   .     S
C390   O523    1.222   .     S
C390   O1244   1.398   1_554 S
C391   C400    1.488   .     S
C391   O435    1.222   .     D
C391   O436    1.398   .     S
C392   O437    1.222   .     D
C392   O438    1.398   .     S
C393   H415    1.113   .     S
C393   H416    1.108   .     S
C393   O439    1.409   .     S
C393   H414    1.111   .     S
C394   C397    1.385   .     A
C394   H423    1.076   .     S
C395   O441    1.410   .     S
C395   H418    1.111   .     S
C395   H419    1.108   .     S
C395   H417    1.113   .     S
C396   H401    1.082   .     S
C396   C1192   1.400   1_554 S
C397   H412    1.081   .     S
C397   C1194   1.399   .     S
C398   H424    1.084   .     S
C398   C670    1.378   .     S
C399   H425    1.085   .     S
H406   C478    1.109   .     S
H408   C478    1.107   .     S
H409   O432    1.014   .     S
H411   O436    1.014   .     S
H413   O438    1.014   .     S
N427   Zn449   2.013   .     S
N428   Zn450   2.013   .     S
O429   Zn449   1.985   .     S
O431   C479    1.222   .     S
O434   C1200   1.398   .     S
O434   H500    1.014   .     S
O440   Zn450   1.985   .     S
O442   Zn450   1.993   .     S
O443   Zn449   1.993   .     S
O444   Zn449   1.956   .     S
O445   Zn450   1.956   .     S
O446   Zn450   1.895   .     S
O447   Zn449   1.895   .     S
C451   O519    1.282   .     A
C451   C454    1.413   .     S
C451   O532    1.282   .     A
C452   C482    1.488   .     S
C452   C454    1.408   .     A
C452   C759    1.378   .     S
C453   C462    1.413   .     S
C453   C489    1.395   .     A
C453   C490    1.408   .     A
C454   C488    1.394   .     A
C455   N518    1.362   .     A
C455   H516    1.079   .     S
C455   C277    1.439   1_655 S
C456   N517    1.362   .     A
C456   H492    1.079   .     S
C457   O529    1.396   .     S
C457   N517    1.372   .     A
C458   O531    1.396   .     S
C458   N518    1.373   .     A
C458   C276    1.438   1_655 S
C459   O536    1.298   .     A
C459   C461    1.459   .     S
C459   O534    1.289   .     A
C460   O535    1.292   .     A
C460   O537    1.300   .     A
C460   C463    1.467   .     S
C461   C468    1.383   .     A
C461   C466    1.410   .     A
C462   O533    1.282   .     A
C462   O530    1.282   .     A
C463   C469    1.387   .     A
C463   C467    1.411   .     A
C464   C466    1.409   .     A
C464   C479    1.480   .     S
C464   C472    1.420   .     A
C465   C480    1.486   .     S
C465   C467    1.412   .     A
C465   C474    1.421   .     A
C466   O520    1.385   .     S
C467   O538    1.383   .     S
C468   H511    1.079   .     S
C468   C470    1.395   .     A
C469   C471    1.394   .     A
C469   H510    1.078   .     S
C470   C475    1.420   .     A
C470   C472    1.421   .     A
C471   C476    1.419   .     A
C471   C474    1.420   .     A
C472   C1296   1.400   .     S
C473   C476    1.412   .     A
C473   H512    1.078   .     S
C473   C486    1.385   .     A
C474   C1297   1.399   1_554 S
C475   C484    1.413   .     A
C475   C1286   1.412   .     S
C476   C1285   1.412   1_554 S
C477   O538    1.412   .     S
C477   H493    1.112   .     S
C477   H314    1.109   1_655 S
C477   H315    1.110   1_655 S
C478   H497    1.114   .     S
C478   O520    1.410   .     S
C479   O522    1.397   .     S
C480   O343    1.222   1_655 S
C480   O1334   1.398   1_554 S
C481   C490    1.488   .     S
C481   O525    1.222   .     D
C481   O526    1.398   .     S
C482   O527    1.222   .     D
C482   O528    1.398   .     S
C483   H505    1.113   .     S
C483   H506    1.108   .     S
C483   O529    1.409   .     S
C483   H504    1.111   .     S
C484   C487    1.385   .     A
C484   H513    1.076   .     S
C485   O531    1.410   .     S
C485   H508    1.111   .     S
C485   H509    1.108   .     S
C485   H507    1.113   .     S
C486   H491    1.082   .     S
C486   C1282   1.400   1_554 S
C487   H502    1.081   .     S
C487   C1284   1.399   .     S
C488   H514    1.084   .     S
C488   C760    1.378   .     S
C489   H515    1.085   .     S
H496   C298    1.109   1_655 S
H498   C298    1.107   1_655 S
H499   O522    1.014   .     S
H501   O526    1.014   .     S
H503   O528    1.014   .     S
N517   Zn539   2.013   .     S
N518   Zn540   2.013   .     S
O519   Zn539   1.985   .     S
O521   C299    1.222   1_655 S
O524   C1290   1.398   .     S
O524   H320    1.014   1_655 S
O530   Zn540   1.985   .     S
O532   Zn540   1.993   .     S
O533   Zn539   1.993   .     S
O534   Zn539   1.956   .     S
O535   Zn540   1.956   .     S
O536   Zn540   1.895   .     S
O537   Zn539   1.895   .     S
C541   O609    1.282   .     A
C541   C544    1.413   .     S
C541   O622    1.282   .     A
C542   C572    1.488   .     S
C542   C544    1.408   .     A
C542   C39     1.378   1_565 S
C543   C552    1.413   .     S
C543   C579    1.395   .     A
C543   C580    1.408   .     A
C544   C578    1.394   .     A
C545   N608    1.362   .     A
C545   H606    1.079   .     S
C545   C637    1.439   .     S
C546   N607    1.362   .     A
C546   H582    1.079   .     S
C546   C728    1.438   1_455 S
C547   O619    1.396   .     S
C547   N607    1.372   .     A
C547   C725    1.439   1_455 S
C548   O621    1.396   .     S
C548   N608    1.373   .     A
C548   C636    1.438   .     S
C549   O626    1.298   .     A
C549   C551    1.459   .     S
C549   O624    1.289   .     A
C550   O625    1.292   .     A
C550   O627    1.300   .     A
C550   C553    1.467   .     S
C551   C558    1.383   .     A
C551   C556    1.410   .     A
C552   O623    1.282   .     A
C552   O620    1.282   .     A
C553   C559    1.387   .     A
C553   C557    1.411   .     A
C554   C556    1.409   .     A
C554   C569    1.480   .     S
C554   C562    1.420   .     A
C555   C570    1.486   .     S
C555   C557    1.412   .     A
C555   C564    1.421   .     A
C556   O610    1.385   .     S
C557   O628    1.383   .     S
C558   H601    1.079   .     S
C558   C560    1.395   .     A
C559   C561    1.394   .     A
C559   H600    1.078   .     S
C560   C565    1.420   .     A
C560   C562    1.421   .     A
C561   C566    1.419   .     A
C561   C564    1.420   .     A
C562   C1386   1.400   .     S
C563   C566    1.412   .     A
C563   H602    1.078   .     S
C563   C576    1.385   .     A
C564   C1387   1.399   1_554 S
C565   C574    1.413   .     A
C565   C1376   1.412   .     S
C566   C1375   1.412   1_554 S
C567   O628    1.412   .     S
C567   H583    1.112   .     S
C567   H674    1.109   .     S
C567   H675    1.110   .     S
C568   H587    1.114   .     S
C568   O610    1.410   .     S
C568   H766    1.109   1_455 S
C568   H768    1.107   1_455 S
C569   O612    1.397   .     S
C569   O791    1.222   1_455 S
C570   O703    1.222   .     S
C570   O1424   1.398   1_554 S
C571   C580    1.488   .     S
C571   O615    1.222   .     D
C571   O616    1.398   .     S
C572   O617    1.222   .     D
C572   O618    1.398   .     S
C573   H595    1.113   .     S
C573   H596    1.108   .     S
C573   O619    1.409   .     S
C573   H594    1.111   .     S
C574   C577    1.385   .     A
C574   H603    1.076   .     S
C575   O621    1.410   .     S
C575   H598    1.111   .     S
C575   H599    1.108   .     S
C575   H597    1.113   .     S
C576   H581    1.082   .     S
C576   C1372   1.400   1_554 S
C577   H592    1.081   .     S
C577   C1374   1.399   .     S
C578   H604    1.084   .     S
C578   C40     1.378   1_565 S
C579   H605    1.085   .     S
H584   C747    1.109   1_455 S
H585   C747    1.110   1_455 S
H586   C658    1.109   .     S
H588   C658    1.107   .     S
H589   O612    1.014   .     S
H590   O794    1.014   1_455 S
H591   O616    1.014   .     S
H593   O618    1.014   .     S
N607   Zn629   2.013   .     S
N608   Zn630   2.013   .     S
O609   Zn629   1.985   .     S
O611   C659    1.222   .     S
O613   C750    1.222   1_455 S
O614   C1380   1.398   .     S
O614   H680    1.014   .     S
O620   Zn630   1.985   .     S
O622   Zn630   1.993   .     S
O623   Zn629   1.993   .     S
O624   Zn629   1.956   .     S
O625   Zn630   1.956   .     S
O626   Zn630   1.895   .     S
O627   Zn629   1.895   .     S
C631   O699    1.282   .     A
C631   C634    1.413   .     S
C631   O712    1.282   .     A
C632   C662    1.488   .     S
C632   C634    1.408   .     A
C632   C129    1.378   1_565 S
C633   C642    1.413   .     S
C633   C669    1.395   .     A
C633   C670    1.408   .     A
C634   C668    1.394   .     A
C635   N698    1.362   .     A
C635   H696    1.079   .     S
C635   C727    1.439   .     S
C636   N697    1.362   .     A
C636   H672    1.079   .     S
C637   O709    1.396   .     S
C637   N697    1.372   .     A
C638   O711    1.396   .     S
C638   N698    1.373   .     A
C638   C726    1.438   .     S
C639   O716    1.298   .     A
C639   C641    1.459   .     S
C639   O714    1.289   .     A
C640   O715    1.292   .     A
C640   O717    1.300   .     A
C640   C643    1.467   .     S
C641   C648    1.383   .     A
C641   C646    1.410   .     A
C642   O713    1.282   .     A
C642   O710    1.282   .     A
C643   C649    1.387   .     A
C643   C647    1.411   .     A
C644   C646    1.409   .     A
C644   C659    1.480   .     S
C644   C652    1.420   .     A
C645   C660    1.486   .     S
C645   C647    1.412   .     A
C645   C654    1.421   .     A
C646   O700    1.385   .     S
C647   O718    1.383   .     S
C648   H691    1.079   .     S
C648   C650    1.395   .     A
C649   C651    1.394   .     A
C649   H690    1.078   .     S
C650   C655    1.420   .     A
C650   C652    1.421   .     A
C651   C656    1.419   .     A
C651   C654    1.420   .     A
C652   C1476   1.400   .     S
C653   C656    1.412   .     A
C653   H692    1.078   .     S
C653   C666    1.385   .     A
C654   C1477   1.399   1_554 S
C655   C664    1.413   .     A
C655   C1466   1.412   .     S
C656   C1465   1.412   1_554 S
C657   O718    1.412   .     S
C657   H673    1.112   .     S
C657   H764    1.109   .     S
C657   H765    1.110   .     S
C658   H677    1.114   .     S
C658   O700    1.410   .     S
C659   O702    1.397   .     S
C660   O793    1.222   .     S
C660   O1514   1.398   1_554 S
C661   C670    1.488   .     S
C661   O705    1.222   .     D
C661   O706    1.398   .     S
C662   O707    1.222   .     D
C662   O708    1.398   .     S
C663   H685    1.113   .     S
C663   H686    1.108   .     S
C663   O709    1.409   .     S
C663   H684    1.111   .     S
C664   C667    1.385   .     A
C664   H693    1.076   .     S
C665   O711    1.410   .     S
C665   H688    1.111   .     S
C665   H689    1.108   .     S
C665   H687    1.113   .     S
C666   H671    1.082   .     S
C666   C1462   1.400   1_554 S
C667   H682    1.081   .     S
C667   C1464   1.399   .     S
C668   H694    1.084   .     S
C668   C130    1.378   1_565 S
C669   H695    1.085   .     S
H676   C748    1.109   .     S
H678   C748    1.107   .     S
H679   O702    1.014   .     S
H681   O706    1.014   .     S
H683   O708    1.014   .     S
N697   Zn719   2.013   .     S
N698   Zn720   2.013   .     S
O699   Zn719   1.985   .     S
O701   C749    1.222   .     S
O704   C1470   1.398   .     S
O704   H770    1.014   .     S
O710   Zn720   1.985   .     S
O712   Zn720   1.993   .     S
O713   Zn719   1.993   .     S
O714   Zn719   1.956   .     S
O715   Zn720   1.956   .     S
O716   Zn720   1.895   .     S
O717   Zn719   1.895   .     S
C721   O789    1.282   .     A
C721   C724    1.413   .     S
C721   O802    1.282   .     A
C722   C752    1.488   .     S
C722   C724    1.408   .     A
C722   C219    1.378   1_565 S
C723   C732    1.413   .     S
C723   C759    1.395   .     A
C723   C760    1.408   .     A
C724   C758    1.394   .     A
C725   N788    1.362   .     A
C725   H786    1.079   .     S
C725   C547    1.439   1_655 S
C726   N787    1.362   .     A
C726   H762    1.079   .     S
C727   O799    1.396   .     S
C727   N787    1.372   .     A
C728   O801    1.396   .     S
C728   N788    1.373   .     A
C728   C546    1.438   1_655 S
C729   O806    1.298   .     A
C729   C731    1.459   .     S
C729   O804    1.289   .     A
C730   O805    1.292   .     A
C730   O807    1.300   .     A
C730   C733    1.467   .     S
C731   C738    1.383   .     A
C731   C736    1.410   .     A
C732   O803    1.282   .     A
C732   O800    1.282   .     A
C733   C739    1.387   .     A
C733   C737    1.411   .     A
C734   C736    1.409   .     A
C734   C749    1.480   .     S
C734   C742    1.420   .     A
C735   C750    1.486   .     S
C735   C737    1.412   .     A
C735   C744    1.421   .     A
C736   O790    1.385   .     S
C737   O808    1.383   .     S
C738   H781    1.079   .     S
C738   C740    1.395   .     A
C739   C741    1.394   .     A
C739   H780    1.078   .     S
C740   C745    1.420   .     A
C740   C742    1.421   .     A
C741   C746    1.419   .     A
C741   C744    1.420   .     A
C742   C1566   1.400   .     S
C743   C746    1.412   .     A
C743   H782    1.078   .     S
C743   C756    1.385   .     A
C744   C1567   1.399   1_554 S
C745   C754    1.413   .     A
C745   C1556   1.412   .     S
C746   C1555   1.412   1_554 S
C747   O808    1.412   .     S
C747   H763    1.112   .     S
C747   H584    1.109   1_655 S
C747   H585    1.110   1_655 S
C748   H767    1.114   .     S
C748   O790    1.410   .     S
C749   O792    1.397   .     S
C750   O613    1.222   1_655 S
C750   O1604   1.398   1_554 S
C751   C760    1.488   .     S
C751   O795    1.222   .     D
C751   O796    1.398   .     S
C752   O797    1.222   .     D
C752   O798    1.398   .     S
C753   H775    1.113   .     S
C753   H776    1.108   .     S
C753   O799    1.409   .     S
C753   H774    1.111   .     S
C754   C757    1.385   .     A
C754   H783    1.076   .     S
C755   O801    1.410   .     S
C755   H778    1.111   .     S
C755   H779    1.108   .     S
C755   H777    1.113   .     S
C756   H761    1.082   .     S
C756   C1552   1.400   1_554 S
C757   H772    1.081   .     S
C757   C1554   1.399   .     S
C758   H784    1.084   .     S
C758   C220    1.378   1_565 S
C759   H785    1.085   .     S
H766   C568    1.109   1_655 S
H768   C568    1.107   1_655 S
H769   O792    1.014   .     S
H771   O796    1.014   .     S
H773   O798    1.014   .     S
N787   Zn809   2.013   .     S
N788   Zn810   2.013   .     S
O789   Zn809   1.985   .     S
O791   C569    1.222   1_655 S
O794   C1560   1.398   .     S
O794   H590    1.014   1_655 S
O800   Zn810   1.985   .     S
O802   Zn810   1.993   .     S
O803   Zn809   1.993   .     S
O804   Zn809   1.956   .     S
O805   Zn810   1.956   .     S
O806   Zn810   1.895   .     S
O807   Zn809   1.895   .     S
C811   O879    1.282   .     A
C811   C814    1.413   .     S
C811   O892    1.282   .     A
C812   C842    1.488   .     S
C812   C814    1.408   .     A
C812   C1119   1.378   .     S
C813   C822    1.413   .     S
C813   C849    1.395   .     A
C813   C850    1.408   .     A
C814   C848    1.394   .     A
C815   N878    1.362   .     A
C815   H876    1.079   .     S
C815   C907    1.439   .     S
C816   N877    1.362   .     A
C816   H852    1.079   .     S
C816   C998    1.438   1_455 S
C817   O889    1.396   .     S
C817   N877    1.372   .     A
C817   C995    1.439   1_455 S
C818   O891    1.396   .     S
C818   N878    1.373   .     A
C818   C906    1.438   .     S
C819   O896    1.298   .     A
C819   C821    1.459   .     S
C819   O894    1.289   .     A
C820   O895    1.292   .     A
C820   O897    1.300   .     A
C820   C823    1.467   .     S
C821   C828    1.383   .     A
C821   C826    1.410   .     A
C822   O893    1.282   .     A
C822   O890    1.282   .     A
C823   C829    1.387   .     A
C823   C827    1.411   .     A
C824   C826    1.409   .     A
C824   C839    1.480   .     S
C824   C832    1.420   .     A
C825   C840    1.486   .     S
C825   C827    1.412   .     A
C825   C834    1.421   .     A
C826   O880    1.385   .     S
C827   O898    1.383   .     S
C828   H871    1.079   .     S
C828   C830    1.395   .     A
C829   C831    1.394   .     A
C829   H870    1.078   .     S
C830   C835    1.420   .     A
C830   C832    1.421   .     A
C831   C836    1.419   .     A
C831   C834    1.420   .     A
C832   C36     1.400   1_556 S
C833   C836    1.412   .     A
C833   H872    1.078   .     S
C833   C846    1.385   .     A
C835   C844    1.413   .     A
C835   C26     1.412   1_556 S
C837   O898    1.412   .     S
C837   H853    1.112   .     S
C837   H944    1.109   .     S
C837   H945    1.110   .     S
C838   H857    1.114   .     S
C838   O880    1.410   .     S
C838   H1036   1.109   1_455 S
C838   H1038   1.107   1_455 S
C839   O882    1.397   .     S
C839   O1061   1.222   1_455 S
C840   O973    1.222   .     S
C841   C850    1.488   .     S
C841   O885    1.222   .     D
C841   O886    1.398   .     S
C842   O887    1.222   .     D
C842   O888    1.398   .     S
C843   H865    1.113   .     S
C843   H866    1.108   .     S
C843   O889    1.409   .     S
C843   H864    1.111   .     S
C844   C847    1.385   .     A
C844   H873    1.076   .     S
C845   O891    1.410   .     S
C845   H868    1.111   .     S
C845   H869    1.108   .     S
C845   H867    1.113   .     S
C846   H851    1.082   .     S
C847   H862    1.081   .     S
C847   C24     1.399   1_556 S
C848   H874    1.084   .     S
C848   C1120   1.378   .     S
C849   H875    1.085   .     S
C849   C1352   1.378   1_545 S
C850   C1388   1.378   1_545 S
H854   C1017   1.109   1_455 S
H855   C1017   1.110   1_455 S
H856   C928    1.109   .     S
H858   C928    1.107   .     S
H859   O882    1.014   .     S
H860   O1064   1.014   1_455 S
H861   O886    1.014   .     S
H863   O888    1.014   .     S
N877   Zn899   2.013   .     S
N878   Zn900   2.013   .     S
O879   Zn899   1.985   .     S
O881   C929    1.222   .     S
O883   C1020   1.222   1_455 S
O884   C30     1.398   1_556 S
O884   H950    1.014   .     S
O890   Zn900   1.985   .     S
O892   Zn900   1.993   .     S
O893   Zn899   1.993   .     S
O894   Zn899   1.956   .     S
O895   Zn900   1.956   .     S
O896   Zn900   1.895   .     S
O897   Zn899   1.895   .     S
C901   O969    1.282   .     A
C901   C904    1.413   .     S
C901   O982    1.282   .     A
C902   C932    1.488   .     S
C902   C904    1.408   .     A
C902   C1209   1.378   .     S
C903   C912    1.413   .     S
C903   C939    1.395   .     A
C903   C940    1.408   .     A
C904   C938    1.394   .     A
C905   N968    1.362   .     A
C905   H966    1.079   .     S
C905   C997    1.439   .     S
C906   N967    1.362   .     A
C906   H942    1.079   .     S
C907   O979    1.396   .     S
C907   N967    1.372   .     A
C908   O981    1.396   .     S
C908   N968    1.373   .     A
C908   C996    1.438   .     S
C909   O986    1.298   .     A
C909   C911    1.459   .     S
C909   O984    1.289   .     A
C910   O985    1.292   .     A
C910   O987    1.300   .     A
C910   C913    1.467   .     S
C911   C918    1.383   .     A
C911   C916    1.410   .     A
C912   O983    1.282   .     A
C912   O980    1.282   .     A
C913   C919    1.387   .     A
C913   C917    1.411   .     A
C914   C916    1.409   .     A
C914   C929    1.480   .     S
C914   C922    1.420   .     A
C915   C930    1.486   .     S
C915   C917    1.412   .     A
C915   C924    1.421   .     A
C916   O970    1.385   .     S
C917   O988    1.383   .     S
C918   H961    1.079   .     S
C918   C920    1.395   .     A
C919   C921    1.394   .     A
C919   H960    1.078   .     S
C920   C925    1.420   .     A
C920   C922    1.421   .     A
C921   C926    1.419   .     A
C921   C924    1.420   .     A
C922   C126    1.400   1_556 S
C923   C926    1.412   .     A
C923   H962    1.078   .     S
C923   C936    1.385   .     A
C925   C934    1.413   .     A
C925   C116    1.412   1_556 S
C927   O988    1.412   .     S
C927   H943    1.112   .     S
C927   H1034   1.109   .     S
C927   H1035   1.110   .     S
C928   H947    1.114   .     S
C928   O970    1.410   .     S
C929   O972    1.397   .     S
C930   O1063   1.222   .     S
C931   C940    1.488   .     S
C931   O975    1.222   .     D
C931   O976    1.398   .     S
C932   O977    1.222   .     D
C932   O978    1.398   .     S
C933   H955    1.113   .     S
C933   H956    1.108   .     S
C933   O979    1.409   .     S
C933   H954    1.111   .     S
C934   C937    1.385   .     A
C934   H963    1.076   .     S
C935   O981    1.410   .     S
C935   H958    1.111   .     S
C935   H959    1.108   .     S
C935   H957    1.113   .     S
C936   H941    1.082   .     S
C937   H952    1.081   .     S
C937   C114    1.399   1_556 S
C938   H964    1.084   .     S
C938   C1210   1.378   .     S
C939   H965    1.085   .     S
C939   C1442   1.378   1_545 S
C940   C1478   1.378   1_545 S
H946   C1018   1.109   .     S
H948   C1018   1.107   .     S
H949   O972    1.014   .     S
H951   O976    1.014   .     S
H953   O978    1.014   .     S
N967   Zn989   2.013   .     S
N968   Zn990   2.013   .     S
O969   Zn989   1.985   .     S
O971   C1019   1.222   .     S
O974   C120    1.398   1_556 S
O974   H1040   1.014   .     S
O980   Zn990   1.985   .     S
O982   Zn990   1.993   .     S
O983   Zn989   1.993   .     S
O984   Zn989   1.956   .     S
O985   Zn990   1.956   .     S
O986   Zn990   1.895   .     S
O987   Zn989   1.895   .     S
C991   O1059   1.282   .     A
C991   C994    1.413   .     S
C991   O1072   1.282   .     A
C992   C1022   1.488   .     S
C992   C994    1.408   .     A
C992   C1299   1.378   .     S
C993   C1002   1.413   .     S
C993   C1029   1.395   .     A
C993   C1030   1.408   .     A
C994   C1028   1.394   .     A
C995   N1058   1.362   .     A
C995   H1056   1.079   .     S
C995   C817    1.439   1_655 S
C996   N1057   1.362   .     A
C996   H1032   1.079   .     S
C997   O1069   1.396   .     S
C997   N1057   1.372   .     A
C998   O1071   1.396   .     S
C998   N1058   1.373   .     A
C998   C816    1.438   1_655 S
C999   O1076   1.298   .     A
C999   C1001   1.459   .     S
C999   O1074   1.289   .     A
C1000  O1075   1.292   .     A
C1000  O1077   1.300   .     A
C1000  C1003   1.467   .     S
C1001  C1008   1.383   .     A
C1001  C1006   1.410   .     A
C1002  O1073   1.282   .     A
C1002  O1070   1.282   .     A
C1003  C1009   1.387   .     A
C1003  C1007   1.411   .     A
C1004  C1006   1.409   .     A
C1004  C1019   1.480   .     S
C1004  C1012   1.420   .     A
C1005  C1020   1.486   .     S
C1005  C1007   1.412   .     A
C1005  C1014   1.421   .     A
C1006  O1060   1.385   .     S
C1007  O1078   1.383   .     S
C1008  H1051   1.079   .     S
C1008  C1010   1.395   .     A
C1009  C1011   1.394   .     A
C1009  H1050   1.078   .     S
C1010  C1015   1.420   .     A
C1010  C1012   1.421   .     A
C1011  C1016   1.419   .     A
C1011  C1014   1.420   .     A
C1012  C216    1.400   1_556 S
C1013  C1016   1.412   .     A
C1013  H1052   1.078   .     S
C1013  C1026   1.385   .     A
C1015  C1024   1.413   .     A
C1015  C206    1.412   1_556 S
C1017  O1078   1.412   .     S
C1017  H1033   1.112   .     S
C1017  H854    1.109   1_655 S
C1017  H855    1.110   1_655 S
C1018  H1037   1.114   .     S
C1018  O1060   1.410   .     S
C1019  O1062   1.397   .     S
C1020  O883    1.222   1_655 S
C1021  C1030   1.488   .     S
C1021  O1065   1.222   .     D
C1021  O1066   1.398   .     S
C1022  O1067   1.222   .     D
C1022  O1068   1.398   .     S
C1023  H1045   1.113   .     S
C1023  H1046   1.108   .     S
C1023  O1069   1.409   .     S
C1023  H1044   1.111   .     S
C1024  C1027   1.385   .     A
C1024  H1053   1.076   .     S
C1025  O1071   1.410   .     S
C1025  H1048   1.111   .     S
C1025  H1049   1.108   .     S
C1025  H1047   1.113   .     S
C1026  H1031   1.082   .     S
C1027  H1042   1.081   .     S
C1027  C204    1.399   1_556 S
C1028  H1054   1.084   .     S
C1028  C1300   1.378   .     S
C1029  H1055   1.085   .     S
C1029  C1532   1.378   1_545 S
C1030  C1568   1.378   1_545 S
H1036  C838    1.109   1_655 S
H1038  C838    1.107   1_655 S
H1039  O1062   1.014   .     S
H1041  O1066   1.014   .     S
H1043  O1068   1.014   .     S
N1057  Zn1079  2.013   .     S
N1058  Zn1080  2.013   .     S
O1059  Zn1079  1.985   .     S
O1061  C839    1.222   1_655 S
O1064  C210    1.398   1_556 S
O1064  H860    1.014   1_655 S
O1070  Zn1080  1.985   .     S
O1072  Zn1080  1.993   .     S
O1073  Zn1079  1.993   .     S
O1074  Zn1079  1.956   .     S
O1075  Zn1080  1.956   .     S
O1076  Zn1080  1.895   .     S
O1077  Zn1079  1.895   .     S
C1081  O1149   1.282   .     A
C1081  C1084   1.413   .     S
C1081  O1162   1.282   .     A
C1082  C1112   1.488   .     S
C1082  C1084   1.408   .     A
C1082  C1389   1.378   .     S
C1083  C1092   1.413   .     S
C1083  C1119   1.395   .     A
C1083  C1120   1.408   .     A
C1084  C1118   1.394   .     A
C1085  N1148   1.362   .     A
C1085  H1146   1.079   .     S
C1085  C1177   1.439   .     S
C1086  N1147   1.362   .     A
C1086  H1122   1.079   .     S
C1086  C1268   1.438   1_455 S
C1087  O1159   1.396   .     S
C1087  N1147   1.372   .     A
C1087  C1265   1.439   1_455 S
C1088  O1161   1.396   .     S
C1088  N1148   1.373   .     A
C1088  C1176   1.438   .     S
C1089  O1166   1.298   .     A
C1089  C1091   1.459   .     S
C1089  O1164   1.289   .     A
C1090  O1165   1.292   .     A
C1090  O1167   1.300   .     A
C1090  C1093   1.467   .     S
C1091  C1098   1.383   .     A
C1091  C1096   1.410   .     A
C1092  O1163   1.282   .     A
C1092  O1160   1.282   .     A
C1093  C1099   1.387   .     A
C1093  C1097   1.411   .     A
C1094  C1096   1.409   .     A
C1094  C1109   1.480   .     S
C1094  C1102   1.420   .     A
C1095  C1110   1.486   .     S
C1095  C1097   1.412   .     A
C1095  C1104   1.421   .     A
C1096  O1150   1.385   .     S
C1097  O1168   1.383   .     S
C1098  H1141   1.079   .     S
C1098  C1100   1.395   .     A
C1099  C1101   1.394   .     A
C1099  H1140   1.078   .     S
C1100  C1105   1.420   .     A
C1100  C1102   1.421   .     A
C1101  C1106   1.419   .     A
C1101  C1104   1.420   .     A
C1102  C306    1.400   1_556 S
C1103  C1106   1.412   .     A
C1103  H1142   1.078   .     S
C1103  C1116   1.385   .     A
C1105  C1114   1.413   .     A
C1105  C296    1.412   1_556 S
C1107  O1168   1.412   .     S
C1107  H1123   1.112   .     S
C1107  H1214   1.109   .     S
C1107  H1215   1.110   .     S
C1108  H1127   1.114   .     S
C1108  O1150   1.410   .     S
C1108  H1306   1.109   1_455 S
C1108  H1308   1.107   1_455 S
C1109  O1152   1.397   .     S
C1109  O1331   1.222   1_455 S
C1110  O1243   1.222   .     S
C1111  C1120   1.488   .     S
C1111  O1155   1.222   .     D
C1111  O1156   1.398   .     S
C1112  O1157   1.222   .     D
C1112  O1158   1.398   .     S
C1113  H1135   1.113   .     S
C1113  H1136   1.108   .     S
C1113  O1159   1.409   .     S
C1113  H1134   1.111   .     S
C1114  C1117   1.385   .     A
C1114  H1143   1.076   .     S
C1115  O1161   1.410   .     S
C1115  H1138   1.111   .     S
C1115  H1139   1.108   .     S
C1115  H1137   1.113   .     S
C1116  H1121   1.082   .     S
C1117  H1132   1.081   .     S
C1117  C294    1.399   1_556 S
C1118  H1144   1.084   .     S
C1118  C1390   1.378   .     S
C1119  H1145   1.085   .     S
H1124  C1287   1.109   1_455 S
H1125  C1287   1.110   1_455 S
H1126  C1198   1.109   .     S
H1128  C1198   1.107   .     S
H1129  O1152   1.014   .     S
H1130  O1334   1.014   1_455 S
H1131  O1156   1.014   .     S
H1133  O1158   1.014   .     S
N1147  Zn1169  2.013   .     S
N1148  Zn1170  2.013   .     S
O1149  Zn1169  1.985   .     S
O1151  C1199   1.222   .     S
O1153  C1290   1.222   1_455 S
O1154  C300    1.398   1_556 S
O1154  H1220   1.014   .     S
O1160  Zn1170  1.985   .     S
O1162  Zn1170  1.993   .     S
O1163  Zn1169  1.993   .     S
O1164  Zn1169  1.956   .     S
O1165  Zn1170  1.956   .     S
O1166  Zn1170  1.895   .     S
O1167  Zn1169  1.895   .     S
C1171  O1239   1.282   .     A
C1171  C1174   1.413   .     S
C1171  O1252   1.282   .     A
C1172  C1202   1.488   .     S
C1172  C1174   1.408   .     A
C1172  C1479   1.378   .     S
C1173  C1182   1.413   .     S
C1173  C1209   1.395   .     A
C1173  C1210   1.408   .     A
C1174  C1208   1.394   .     A
C1175  N1238   1.362   .     A
C1175  H1236   1.079   .     S
C1175  C1267   1.439   .     S
C1176  N1237   1.362   .     A
C1176  H1212   1.079   .     S
C1177  O1249   1.396   .     S
C1177  N1237   1.372   .     A
C1178  O1251   1.396   .     S
C1178  N1238   1.373   .     A
C1178  C1266   1.438   .     S
C1179  O1256   1.298   .     A
C1179  C1181   1.459   .     S
C1179  O1254   1.289   .     A
C1180  O1255   1.292   .     A
C1180  O1257   1.300   .     A
C1180  C1183   1.467   .     S
C1181  C1188   1.383   .     A
C1181  C1186   1.410   .     A
C1182  O1253   1.282   .     A
C1182  O1250   1.282   .     A
C1183  C1189   1.387   .     A
C1183  C1187   1.411   .     A
C1184  C1186   1.409   .     A
C1184  C1199   1.480   .     S
C1184  C1192   1.420   .     A
C1185  C1200   1.486   .     S
C1185  C1187   1.412   .     A
C1185  C1194   1.421   .     A
C1186  O1240   1.385   .     S
C1187  O1258   1.383   .     S
C1188  H1231   1.079   .     S
C1188  C1190   1.395   .     A
C1189  C1191   1.394   .     A
C1189  H1230   1.078   .     S
C1190  C1195   1.420   .     A
C1190  C1192   1.421   .     A
C1191  C1196   1.419   .     A
C1191  C1194   1.420   .     A
C1192  C396    1.400   1_556 S
C1193  C1196   1.412   .     A
C1193  H1232   1.078   .     S
C1193  C1206   1.385   .     A
C1195  C1204   1.413   .     A
C1195  C386    1.412   1_556 S
C1197  O1258   1.412   .     S
C1197  H1213   1.112   .     S
C1197  H1304   1.109   .     S
C1197  H1305   1.110   .     S
C1198  H1217   1.114   .     S
C1198  O1240   1.410   .     S
C1199  O1242   1.397   .     S
C1200  O1333   1.222   .     S
C1201  C1210   1.488   .     S
C1201  O1245   1.222   .     D
C1201  O1246   1.398   .     S
C1202  O1247   1.222   .     D
C1202  O1248   1.398   .     S
C1203  H1225   1.113   .     S
C1203  H1226   1.108   .     S
C1203  O1249   1.409   .     S
C1203  H1224   1.111   .     S
C1204  C1207   1.385   .     A
C1204  H1233   1.076   .     S
C1205  O1251   1.410   .     S
C1205  H1228   1.111   .     S
C1205  H1229   1.108   .     S
C1205  H1227   1.113   .     S
C1206  H1211   1.082   .     S
C1207  H1222   1.081   .     S
C1207  C384    1.399   1_556 S
C1208  H1234   1.084   .     S
C1208  C1480   1.378   .     S
C1209  H1235   1.085   .     S
H1216  C1288   1.109   .     S
H1218  C1288   1.107   .     S
H1219  O1242   1.014   .     S
H1221  O1246   1.014   .     S
H1223  O1248   1.014   .     S
N1237  Zn1259  2.013   .     S
N1238  Zn1260  2.013   .     S
O1239  Zn1259  1.985   .     S
O1241  C1289   1.222   .     S
O1244  C390    1.398   1_556 S
O1244  H1310   1.014   .     S
O1250  Zn1260  1.985   .     S
O1252  Zn1260  1.993   .     S
O1253  Zn1259  1.993   .     S
O1254  Zn1259  1.956   .     S
O1255  Zn1260  1.956   .     S
O1256  Zn1260  1.895   .     S
O1257  Zn1259  1.895   .     S
C1261  O1329   1.282   .     A
C1261  C1264   1.413   .     S
C1261  O1342   1.282   .     A
C1262  C1292   1.488   .     S
C1262  C1264   1.408   .     A
C1262  C1569   1.378   .     S
C1263  C1272   1.413   .     S
C1263  C1299   1.395   .     A
C1263  C1300   1.408   .     A
C1264  C1298   1.394   .     A
C1265  N1328   1.362   .     A
C1265  H1326   1.079   .     S
C1265  C1087   1.439   1_655 S
C1266  N1327   1.362   .     A
C1266  H1302   1.079   .     S
C1267  O1339   1.396   .     S
C1267  N1327   1.372   .     A
C1268  O1341   1.396   .     S
C1268  N1328   1.373   .     A
C1268  C1086   1.438   1_655 S
C1269  O1346   1.298   .     A
C1269  C1271   1.459   .     S
C1269  O1344   1.289   .     A
C1270  O1345   1.292   .     A
C1270  O1347   1.300   .     A
C1270  C1273   1.467   .     S
C1271  C1278   1.383   .     A
C1271  C1276   1.410   .     A
C1272  O1343   1.282   .     A
C1272  O1340   1.282   .     A
C1273  C1279   1.387   .     A
C1273  C1277   1.411   .     A
C1274  C1276   1.409   .     A
C1274  C1289   1.480   .     S
C1274  C1282   1.420   .     A
C1275  C1290   1.486   .     S
C1275  C1277   1.412   .     A
C1275  C1284   1.421   .     A
C1276  O1330   1.385   .     S
C1277  O1348   1.383   .     S
C1278  H1321   1.079   .     S
C1278  C1280   1.395   .     A
C1279  C1281   1.394   .     A
C1279  H1320   1.078   .     S
C1280  C1285   1.420   .     A
C1280  C1282   1.421   .     A
C1281  C1286   1.419   .     A
C1281  C1284   1.420   .     A
C1282  C486    1.400   1_556 S
C1283  C1286   1.412   .     A
C1283  H1322   1.078   .     S
C1283  C1296   1.385   .     A
C1285  C1294   1.413   .     A
C1285  C476    1.412   1_556 S
C1287  O1348   1.412   .     S
C1287  H1303   1.112   .     S
C1287  H1124   1.109   1_655 S
C1287  H1125   1.110   1_655 S
C1288  H1307   1.114   .     S
C1288  O1330   1.410   .     S
C1289  O1332   1.397   .     S
C1290  O1153   1.222   1_655 S
C1291  C1300   1.488   .     S
C1291  O1335   1.222   .     D
C1291  O1336   1.398   .     S
C1292  O1337   1.222   .     D
C1292  O1338   1.398   .     S
C1293  H1315   1.113   .     S
C1293  H1316   1.108   .     S
C1293  O1339   1.409   .     S
C1293  H1314   1.111   .     S
C1294  C1297   1.385   .     A
C1294  H1323   1.076   .     S
C1295  O1341   1.410   .     S
C1295  H1318   1.111   .     S
C1295  H1319   1.108   .     S
C1295  H1317   1.113   .     S
C1296  H1301   1.082   .     S
C1297  H1312   1.081   .     S
C1297  C474    1.399   1_556 S
C1298  H1324   1.084   .     S
C1298  C1570   1.378   .     S
C1299  H1325   1.085   .     S
H1306  C1108   1.109   1_655 S
H1308  C1108   1.107   1_655 S
H1309  O1332   1.014   .     S
H1311  O1336   1.014   .     S
H1313  O1338   1.014   .     S
N1327  Zn1349  2.013   .     S
N1328  Zn1350  2.013   .     S
O1329  Zn1349  1.985   .     S
O1331  C1109   1.222   1_655 S
O1334  C480    1.398   1_556 S
O1334  H1130   1.014   1_655 S
O1340  Zn1350  1.985   .     S
O1342  Zn1350  1.993   .     S
O1343  Zn1349  1.993   .     S
O1344  Zn1349  1.956   .     S
O1345  Zn1350  1.956   .     S
O1346  Zn1350  1.895   .     S
O1347  Zn1349  1.895   .     S
C1351  O1419   1.282   .     A
C1351  C1354   1.413   .     S
C1351  O1432   1.282   .     A
C1352  C1382   1.488   .     S
C1352  C1354   1.408   .     A
C1352  C849    1.378   1_565 S
C1353  C1362   1.413   .     S
C1353  C1389   1.395   .     A
C1353  C1390   1.408   .     A
C1354  C1388   1.394   .     A
C1355  N1418   1.362   .     A
C1355  H1416   1.079   .     S
C1355  C1447   1.439   .     S
C1356  N1417   1.362   .     A
C1356  H1392   1.079   .     S
C1356  C1538   1.438   1_455 S
C1357  O1429   1.396   .     S
C1357  N1417   1.372   .     A
C1357  C1535   1.439   1_455 S
C1358  O1431   1.396   .     S
C1358  N1418   1.373   .     A
C1358  C1446   1.438   .     S
C1359  O1436   1.298   .     A
C1359  C1361   1.459   .     S
C1359  O1434   1.289   .     A
C1360  O1435   1.292   .     A
C1360  O1437   1.300   .     A
C1360  C1363   1.467   .     S
C1361  C1368   1.383   .     A
C1361  C1366   1.410   .     A
C1362  O1433   1.282   .     A
C1362  O1430   1.282   .     A
C1363  C1369   1.387   .     A
C1363  C1367   1.411   .     A
C1364  C1366   1.409   .     A
C1364  C1379   1.480   .     S
C1364  C1372   1.420   .     A
C1365  C1380   1.486   .     S
C1365  C1367   1.412   .     A
C1365  C1374   1.421   .     A
C1366  O1420   1.385   .     S
C1367  O1438   1.383   .     S
C1368  H1411   1.079   .     S
C1368  C1370   1.395   .     A
C1369  C1371   1.394   .     A
C1369  H1410   1.078   .     S
C1370  C1375   1.420   .     A
C1370  C1372   1.421   .     A
C1371  C1376   1.419   .     A
C1371  C1374   1.420   .     A
C1372  C576    1.400   1_556 S
C1373  C1376   1.412   .     A
C1373  H1412   1.078   .     S
C1373  C1386   1.385   .     A
C1375  C1384   1.413   .     A
C1375  C566    1.412   1_556 S
C1377  O1438   1.412   .     S
C1377  H1393   1.112   .     S
C1377  H1484   1.109   .     S
C1377  H1485   1.110   .     S
C1378  H1397   1.114   .     S
C1378  O1420   1.410   .     S
C1378  H1576   1.109   1_455 S
C1378  H1578   1.107   1_455 S
C1379  O1422   1.397   .     S
C1379  O1601   1.222   1_455 S
C1380  O1513   1.222   .     S
C1381  C1390   1.488   .     S
C1381  O1425   1.222   .     D
C1381  O1426   1.398   .     S
C1382  O1427   1.222   .     D
C1382  O1428   1.398   .     S
C1383  H1405   1.113   .     S
C1383  H1406   1.108   .     S
C1383  O1429   1.409   .     S
C1383  H1404   1.111   .     S
C1384  C1387   1.385   .     A
C1384  H1413   1.076   .     S
C1385  O1431   1.410   .     S
C1385  H1408   1.111   .     S
C1385  H1409   1.108   .     S
C1385  H1407   1.113   .     S
C1386  H1391   1.082   .     S
C1387  H1402   1.081   .     S
C1387  C564    1.399   1_556 S
C1388  H1414   1.084   .     S
C1388  C850    1.378   1_565 S
C1389  H1415   1.085   .     S
H1394  C1557   1.109   1_455 S
H1395  C1557   1.110   1_455 S
H1396  C1468   1.109   .     S
H1398  C1468   1.107   .     S
H1399  O1422   1.014   .     S
H1400  O1604   1.014   1_455 S
H1401  O1426   1.014   .     S
H1403  O1428   1.014   .     S
N1417  Zn1439  2.013   .     S
N1418  Zn1440  2.013   .     S
O1419  Zn1439  1.985   .     S
O1421  C1469   1.222   .     S
O1423  C1560   1.222   1_455 S
O1424  C570    1.398   1_556 S
O1424  H1490   1.014   .     S
O1430  Zn1440  1.985   .     S
O1432  Zn1440  1.993   .     S
O1433  Zn1439  1.993   .     S
O1434  Zn1439  1.956   .     S
O1435  Zn1440  1.956   .     S
O1436  Zn1440  1.895   .     S
O1437  Zn1439  1.895   .     S
C1441  O1509   1.282   .     A
C1441  C1444   1.413   .     S
C1441  O1522   1.282   .     A
C1442  C1472   1.488   .     S
C1442  C1444   1.408   .     A
C1442  C939    1.378   1_565 S
C1443  C1452   1.413   .     S
C1443  C1479   1.395   .     A
C1443  C1480   1.408   .     A
C1444  C1478   1.394   .     A
C1445  N1508   1.362   .     A
C1445  H1506   1.079   .     S
C1445  C1537   1.439   .     S
C1446  N1507   1.362   .     A
C1446  H1482   1.079   .     S
C1447  O1519   1.396   .     S
C1447  N1507   1.372   .     A
C1448  O1521   1.396   .     S
C1448  N1508   1.373   .     A
C1448  C1536   1.438   .     S
C1449  O1526   1.298   .     A
C1449  C1451   1.459   .     S
C1449  O1524   1.289   .     A
C1450  O1525   1.292   .     A
C1450  O1527   1.300   .     A
C1450  C1453   1.467   .     S
C1451  C1458   1.383   .     A
C1451  C1456   1.410   .     A
C1452  O1523   1.282   .     A
C1452  O1520   1.282   .     A
C1453  C1459   1.387   .     A
C1453  C1457   1.411   .     A
C1454  C1456   1.409   .     A
C1454  C1469   1.480   .     S
C1454  C1462   1.420   .     A
C1455  C1470   1.486   .     S
C1455  C1457   1.412   .     A
C1455  C1464   1.421   .     A
C1456  O1510   1.385   .     S
C1457  O1528   1.383   .     S
C1458  H1501   1.079   .     S
C1458  C1460   1.395   .     A
C1459  C1461   1.394   .     A
C1459  H1500   1.078   .     S
C1460  C1465   1.420   .     A
C1460  C1462   1.421   .     A
C1461  C1466   1.419   .     A
C1461  C1464   1.420   .     A
C1462  C666    1.400   1_556 S
C1463  C1466   1.412   .     A
C1463  H1502   1.078   .     S
C1463  C1476   1.385   .     A
C1465  C1474   1.413   .     A
C1465  C656    1.412   1_556 S
C1467  O1528   1.412   .     S
C1467  H1483   1.112   .     S
C1467  H1574   1.109   .     S
C1467  H1575   1.110   .     S
C1468  H1487   1.114   .     S
C1468  O1510   1.410   .     S
C1469  O1512   1.397   .     S
C1470  O1603   1.222   .     S
C1471  C1480   1.488   .     S
C1471  O1515   1.222   .     D
C1471  O1516   1.398   .     S
C1472  O1517   1.222   .     D
C1472  O1518   1.398   .     S
C1473  H1495   1.113   .     S
C1473  H1496   1.108   .     S
C1473  O1519   1.409   .     S
C1473  H1494   1.111   .     S
C1474  C1477   1.385   .     A
C1474  H1503   1.076   .     S
C1475  O1521   1.410   .     S
C1475  H1498   1.111   .     S
C1475  H1499   1.108   .     S
C1475  H1497   1.113   .     S
C1476  H1481   1.082   .     S
C1477  H1492   1.081   .     S
C1477  C654    1.399   1_556 S
C1478  H1504   1.084   .     S
C1478  C940    1.378   1_565 S
C1479  H1505   1.085   .     S
H1486  C1558   1.109   .     S
H1488  C1558   1.107   .     S
H1489  O1512   1.014   .     S
H1491  O1516   1.014   .     S
H1493  O1518   1.014   .     S
N1507  Zn1529  2.013   .     S
N1508  Zn1530  2.013   .     S
O1509  Zn1529  1.985   .     S
O1511  C1559   1.222   .     S
O1514  C660    1.398   1_556 S
O1514  H1580   1.014   .     S
O1520  Zn1530  1.985   .     S
O1522  Zn1530  1.993   .     S
O1523  Zn1529  1.993   .     S
O1524  Zn1529  1.956   .     S
O1525  Zn1530  1.956   .     S
O1526  Zn1530  1.895   .     S
O1527  Zn1529  1.895   .     S
C1531  O1599   1.282   .     A
C1531  C1534   1.413   .     S
C1531  O1612   1.282   .     A
C1532  C1562   1.488   .     S
C1532  C1534   1.408   .     A
C1532  C1029   1.378   1_565 S
C1533  C1542   1.413   .     S
C1533  C1569   1.395   .     A
C1533  C1570   1.408   .     A
C1534  C1568   1.394   .     A
C1535  N1598   1.362   .     A
C1535  H1596   1.079   .     S
C1535  C1357   1.439   1_655 S
C1536  N1597   1.362   .     A
C1536  H1572   1.079   .     S
C1537  O1609   1.396   .     S
C1537  N1597   1.372   .     A
C1538  O1611   1.396   .     S
C1538  N1598   1.373   .     A
C1538  C1356   1.438   1_655 S
C1539  O1616   1.298   .     A
C1539  C1541   1.459   .     S
C1539  O1614   1.289   .     A
C1540  O1615   1.292   .     A
C1540  O1617   1.300   .     A
C1540  C1543   1.467   .     S
C1541  C1548   1.383   .     A
C1541  C1546   1.410   .     A
C1542  O1613   1.282   .     A
C1542  O1610   1.282   .     A
C1543  C1549   1.387   .     A
C1543  C1547   1.411   .     A
C1544  C1546   1.409   .     A
C1544  C1559   1.480   .     S
C1544  C1552   1.420   .     A
C1545  C1560   1.486   .     S
C1545  C1547   1.412   .     A
C1545  C1554   1.421   .     A
C1546  O1600   1.385   .     S
C1547  O1618   1.383   .     S
C1548  H1591   1.079   .     S
C1548  C1550   1.395   .     A
C1549  C1551   1.394   .     A
C1549  H1590   1.078   .     S
C1550  C1555   1.420   .     A
C1550  C1552   1.421   .     A
C1551  C1556   1.419   .     A
C1551  C1554   1.420   .     A
C1552  C756    1.400   1_556 S
C1553  C1556   1.412   .     A
C1553  H1592   1.078   .     S
C1553  C1566   1.385   .     A
C1555  C1564   1.413   .     A
C1555  C746    1.412   1_556 S
C1557  O1618   1.412   .     S
C1557  H1573   1.112   .     S
C1557  H1394   1.109   1_655 S
C1557  H1395   1.110   1_655 S
C1558  H1577   1.114   .     S
C1558  O1600   1.410   .     S
C1559  O1602   1.397   .     S
C1560  O1423   1.222   1_655 S
C1561  C1570   1.488   .     S
C1561  O1605   1.222   .     D
C1561  O1606   1.398   .     S
C1562  O1607   1.222   .     D
C1562  O1608   1.398   .     S
C1563  H1585   1.113   .     S
C1563  H1586   1.108   .     S
C1563  O1609   1.409   .     S
C1563  H1584   1.111   .     S
C1564  C1567   1.385   .     A
C1564  H1593   1.076   .     S
C1565  O1611   1.410   .     S
C1565  H1588   1.111   .     S
C1565  H1589   1.108   .     S
C1565  H1587   1.113   .     S
C1566  H1571   1.082   .     S
C1567  H1582   1.081   .     S
C1567  C744    1.399   1_556 S
C1568  H1594   1.084   .     S
C1568  C1030   1.378   1_565 S
C1569  H1595   1.085   .     S
H1576  C1378   1.109   1_655 S
H1578  C1378   1.107   1_655 S
H1579  O1602   1.014   .     S
H1581  O1606   1.014   .     S
H1583  O1608   1.014   .     S
N1597  Zn1619  2.013   .     S
N1598  Zn1620  2.013   .     S
O1599  Zn1619  1.985   .     S
O1601  C1379   1.222   1_655 S
O1604  C750    1.398   1_556 S
O1604  H1400   1.014   1_655 S
O1610  Zn1620  1.985   .     S
O1612  Zn1620  1.993   .     S
O1613  Zn1619  1.993   .     S
O1614  Zn1619  1.956   .     S
O1615  Zn1620  1.956   .     S
O1616  Zn1620  1.895   .     S
O1617  Zn1619  1.895   .     S
