data_str_m2_o1_o18_pcu_sym.64
_audit_creation_date              2020-01-03
_audit_creation_method            'Materials Studio'
_symmetry_space_group_name_H-M    'P1'
_symmetry_Int_Tables_number       1
_symmetry_cell_setting            triclinic
loop_
_symmetry_equiv_pos_as_xyz
  x,y,z
_cell_length_a                    28.6205
_cell_length_b                    32.4979
_cell_length_c                    31.3905
_cell_angle_alpha                 89.8297
_cell_angle_beta                  73.7692
_cell_angle_gamma                 90.0080
loop_
_atom_site_label
_atom_site_type_symbol
_atom_site_fract_x
_atom_site_fract_y
_atom_site_fract_z
_atom_site_U_iso_or_equiv
_atom_site_adp_type
_atom_site_occupancy
C1     C     0.33331   0.08738   0.25002   0.00000  Uiso   1.00
C2     C     0.04259   0.02130   0.24957   0.00000  Uiso   1.00
C3     C     0.00002   0.29058   0.24996   0.00000  Uiso   1.00
C4     C     0.33331   0.04275   0.25004   0.00000  Uiso   1.00
C5     C     0.18674   0.13337   0.26513   0.00000  Uiso   1.00
C6     C     0.14660   0.19996   0.23487   0.00000  Uiso   1.00
C7     C     0.13722   0.13344   0.26528   0.00000  Uiso   1.00
C8     C     0.19612   0.19990   0.23472   0.00000  Uiso   1.00
C9     C     0.30582   0.16380   0.33590   0.00000  Uiso   1.00
C10    C     0.02751   0.16953   0.16410   0.00000  Uiso   1.00
C11    C     0.29010   0.15781   0.38487   0.00000  Uiso   1.00
C12    C     0.00002   0.24595   0.24997   0.00000  Uiso   1.00
C13    C     0.04323   0.17552   0.11512   0.00000  Uiso   1.00
C14    C     0.30691   0.14741   0.45594   0.00000  Uiso   1.00
C15    C     0.02642   0.18590   0.04405   0.00000  Uiso   1.00
C16    C     0.32384   0.15384   0.41023   0.00000  Uiso   1.00
C17    C     0.00949   0.17947   0.08977   0.00000  Uiso   1.00
C18    C     0.23991   0.15408   0.40702   0.00000  Uiso   1.00
C19    C     0.09342   0.17925   0.09298   0.00000  Uiso   1.00
C20    C     0.22356   0.15853   0.45346   0.00000  Uiso   1.00
C21    C     0.10977   0.17480   0.04654   0.00000  Uiso   1.00
C22    C     0.25731   0.15080   0.47782   0.00000  Uiso   1.00
C23    C     0.19198   0.14994   0.04574   0.00000  Uiso   1.00
C24    C     0.07602   0.18252   0.02218   0.00000  Uiso   1.00
C25    C     0.17448   0.16832   0.47652   0.00000  Uiso   1.00
C26    C     0.15885   0.16500   0.02348   0.00000  Uiso   1.00
C27    C     0.12526   0.19949   0.11516   0.00000  Uiso   1.00
C28    C     0.20807   0.13383   0.38484   0.00000  Uiso   1.00
C29    C     0.29086   0.18002   0.10959   0.00000  Uiso   1.00
C30    C     0.04246   0.15326   0.39041   0.00000  Uiso   1.00
C31    C     0.14135   0.18338   0.45426   0.00000  Uiso   1.00
C32    C     0.24085   0.14470   0.02350   0.00000  Uiso   1.00
C33    C     0.09248   0.18861   0.47649   0.00000  Uiso   1.00
C34    C     0.29073   0.02128   0.25048   0.00000  Uiso   1.00
C35    C     0.04261   0.31206   0.24952   0.00000  Uiso   1.00
C36    C     0.29075   0.31204   0.25043   0.00000  Uiso   1.00
Cu37   Cu    0.04689   0.16667   0.25000   0.00000  Uiso   1.00
Cu38   Cu    0.28645   0.16666   0.25000   0.00000  Uiso   1.00
H39    H     0.26571   0.13493   0.04197   0.00000  Uiso   1.00
H40    H     0.07589   0.03731   0.24921   0.00000  Uiso   1.00
H41    H     0.20135   0.10660   0.27734   0.00000  Uiso   1.00
H42    H     0.13198   0.22674   0.22266   0.00000  Uiso   1.00
H43    H     0.11494   0.10684   0.27795   0.00000  Uiso   1.00
H44    H     0.21839   0.22650   0.22205   0.00000  Uiso   1.00
H45    H     0.06762   0.19837   0.45803   0.00000  Uiso   1.00
H46    H     0.33266   0.14063   0.47459   0.00000  Uiso   1.00
H47    H     0.00067   0.19267   0.02541   0.00000  Uiso   1.00
H48    H     0.18066   0.14192   0.08054   0.00000  Uiso   1.00
H49    H     0.15266   0.19140   0.41946   0.00000  Uiso   1.00
H50    H     0.25741   0.03727   0.25086   0.00000  Uiso   1.00
H51    H     0.07593   0.29607   0.24913   0.00000  Uiso   1.00
H52    H     0.25744   0.29603   0.25079   0.00000  Uiso   1.00
N53    N     0.11736   0.16668   0.24999   0.00000  Uiso   1.00
N54    N     0.21597   0.16666   0.25001   0.00000  Uiso   1.00
N55    N     0.15057   0.21615   0.13254   0.00000  Uiso   1.00
N56    N     0.18276   0.11717   0.36746   0.00000  Uiso   1.00
N57    N     0.24922   0.18040   0.12555   0.00000  Uiso   1.00
N58    N     0.08410   0.15286   0.37446   0.00000  Uiso   1.00
O59    O     0.03958   0.10655   0.25000   0.00000  Uiso   1.00
O60    O     0.29375   0.22678   0.25000   0.00000  Uiso   1.00
O61    O     0.29372   0.10654   0.25000   0.00000  Uiso   1.00
O62    O     0.03961   0.22679   0.24999   0.00000  Uiso   1.00
O63    O     0.01852   0.16668   0.31491   0.00000  Uiso   1.00
O64    O     0.31481   0.16666   0.18508   0.00000  Uiso   1.00
O65    O     0.27267   0.16667   0.31492   0.00000  Uiso   1.00
O66    O     0.06067   0.16667   0.18508   0.00000  Uiso   1.00
C67    C     0.66665   0.08738   0.25002   0.00000  Uiso   1.00
C68    C     0.37592   0.02130   0.24957   0.00000  Uiso   1.00
C69    C     0.33335   0.29058   0.24996   0.00000  Uiso   1.00
C70    C     0.66665   0.04275   0.25004   0.00000  Uiso   1.00
C71    C     0.52007   0.13337   0.26513   0.00000  Uiso   1.00
C72    C     0.47993   0.19996   0.23487   0.00000  Uiso   1.00
C73    C     0.47055   0.13344   0.26528   0.00000  Uiso   1.00
C74    C     0.52945   0.19990   0.23472   0.00000  Uiso   1.00
C75    C     0.63915   0.16380   0.33590   0.00000  Uiso   1.00
C76    C     0.36085   0.16953   0.16410   0.00000  Uiso   1.00
C77    C     0.62344   0.15781   0.38487   0.00000  Uiso   1.00
C78    C     0.33335   0.24595   0.24997   0.00000  Uiso   1.00
C79    C     0.37656   0.17552   0.11512   0.00000  Uiso   1.00
C80    C     0.64025   0.14741   0.45594   0.00000  Uiso   1.00
C81    C     0.35975   0.18590   0.04405   0.00000  Uiso   1.00
C82    C     0.65717   0.15384   0.41023   0.00000  Uiso   1.00
C83    C     0.34283   0.17947   0.08977   0.00000  Uiso   1.00
C84    C     0.57325   0.15408   0.40702   0.00000  Uiso   1.00
C85    C     0.42675   0.17925   0.09298   0.00000  Uiso   1.00
C86    C     0.55689   0.15853   0.45346   0.00000  Uiso   1.00
C87    C     0.44311   0.17480   0.04654   0.00000  Uiso   1.00
C88    C     0.59065   0.15080   0.47782   0.00000  Uiso   1.00
C89    C     0.52531   0.14994   0.04574   0.00000  Uiso   1.00
C90    C     0.40935   0.18252   0.02218   0.00000  Uiso   1.00
C91    C     0.50781   0.16832   0.47652   0.00000  Uiso   1.00
C92    C     0.49218   0.16500   0.02348   0.00000  Uiso   1.00
C93    C     0.45860   0.19949   0.11516   0.00000  Uiso   1.00
C94    C     0.54140   0.13383   0.38484   0.00000  Uiso   1.00
C95    C     0.62420   0.18002   0.10959   0.00000  Uiso   1.00
C96    C     0.37579   0.15326   0.39041   0.00000  Uiso   1.00
C97    C     0.47468   0.18338   0.45426   0.00000  Uiso   1.00
C98    C     0.57418   0.14470   0.02350   0.00000  Uiso   1.00
C99    C     0.42581   0.18861   0.47649   0.00000  Uiso   1.00
C100   C     0.62406   0.02128   0.25048   0.00000  Uiso   1.00
C101   C     0.37594   0.31206   0.24952   0.00000  Uiso   1.00
C102   C     0.62408   0.31204   0.25043   0.00000  Uiso   1.00
Cu103  Cu    0.38022   0.16667   0.25000   0.00000  Uiso   1.00
Cu104  Cu    0.61978   0.16666   0.25000   0.00000  Uiso   1.00
H105   H     0.59904   0.13493   0.04197   0.00000  Uiso   1.00
H106   H     0.40923   0.03731   0.24921   0.00000  Uiso   1.00
H107   H     0.53469   0.10660   0.27734   0.00000  Uiso   1.00
H108   H     0.46531   0.22674   0.22266   0.00000  Uiso   1.00
H109   H     0.44827   0.10684   0.27795   0.00000  Uiso   1.00
H110   H     0.55173   0.22650   0.22205   0.00000  Uiso   1.00
H111   H     0.40095   0.19837   0.45803   0.00000  Uiso   1.00
H112   H     0.66599   0.14063   0.47459   0.00000  Uiso   1.00
H113   H     0.33400   0.19267   0.02541   0.00000  Uiso   1.00
H114   H     0.51399   0.14192   0.08054   0.00000  Uiso   1.00
H115   H     0.48600   0.19140   0.41946   0.00000  Uiso   1.00
H116   H     0.59074   0.03727   0.25086   0.00000  Uiso   1.00
H117   H     0.40926   0.29607   0.24913   0.00000  Uiso   1.00
H118   H     0.59077   0.29603   0.25079   0.00000  Uiso   1.00
N119   N     0.45069   0.16668   0.24999   0.00000  Uiso   1.00
N120   N     0.54931   0.16666   0.25001   0.00000  Uiso   1.00
N121   N     0.48390   0.21615   0.13254   0.00000  Uiso   1.00
N122   N     0.51610   0.11717   0.36746   0.00000  Uiso   1.00
N123   N     0.58255   0.18040   0.12555   0.00000  Uiso   1.00
N124   N     0.41743   0.15286   0.37446   0.00000  Uiso   1.00
O125   O     0.37291   0.10655   0.25000   0.00000  Uiso   1.00
O126   O     0.62709   0.22678   0.25000   0.00000  Uiso   1.00
O127   O     0.62706   0.10654   0.25000   0.00000  Uiso   1.00
O128   O     0.37294   0.22679   0.24999   0.00000  Uiso   1.00
O129   O     0.35186   0.16668   0.31491   0.00000  Uiso   1.00
O130   O     0.64814   0.16666   0.18508   0.00000  Uiso   1.00
O131   O     0.60600   0.16667   0.31492   0.00000  Uiso   1.00
O132   O     0.39400   0.16667   0.18508   0.00000  Uiso   1.00
C133   C     0.99998   0.08738   0.25002   0.00000  Uiso   1.00
C134   C     0.70925   0.02130   0.24957   0.00000  Uiso   1.00
C135   C     0.66669   0.29058   0.24996   0.00000  Uiso   1.00
C136   C     0.99998   0.04275   0.25004   0.00000  Uiso   1.00
C137   C     0.85340   0.13337   0.26513   0.00000  Uiso   1.00
C138   C     0.81326   0.19996   0.23487   0.00000  Uiso   1.00
C139   C     0.80388   0.13344   0.26528   0.00000  Uiso   1.00
C140   C     0.86278   0.19990   0.23472   0.00000  Uiso   1.00
C141   C     0.97249   0.16380   0.33590   0.00000  Uiso   1.00
C142   C     0.69418   0.16953   0.16410   0.00000  Uiso   1.00
C143   C     0.95677   0.15781   0.38487   0.00000  Uiso   1.00
C144   C     0.66669   0.24595   0.24997   0.00000  Uiso   1.00
C145   C     0.70989   0.17552   0.11512   0.00000  Uiso   1.00
C146   C     0.97358   0.14741   0.45594   0.00000  Uiso   1.00
C147   C     0.69308   0.18590   0.04405   0.00000  Uiso   1.00
C148   C     0.99050   0.15384   0.41023   0.00000  Uiso   1.00
C149   C     0.67616   0.17947   0.08977   0.00000  Uiso   1.00
C150   C     0.90658   0.15408   0.40702   0.00000  Uiso   1.00
C151   C     0.76008   0.17925   0.09298   0.00000  Uiso   1.00
C152   C     0.89022   0.15853   0.45346   0.00000  Uiso   1.00
C153   C     0.77644   0.17480   0.04654   0.00000  Uiso   1.00
C154   C     0.92398   0.15080   0.47782   0.00000  Uiso   1.00
C155   C     0.85864   0.14994   0.04574   0.00000  Uiso   1.00
C156   C     0.74268   0.18252   0.02218   0.00000  Uiso   1.00
C157   C     0.84115   0.16832   0.47652   0.00000  Uiso   1.00
C158   C     0.82551   0.16500   0.02348   0.00000  Uiso   1.00
C159   C     0.79193   0.19949   0.11516   0.00000  Uiso   1.00
C160   C     0.87473   0.13383   0.38484   0.00000  Uiso   1.00
C161   C     0.95753   0.18002   0.10959   0.00000  Uiso   1.00
C162   C     0.70913   0.15326   0.39041   0.00000  Uiso   1.00
C163   C     0.80802   0.18338   0.45426   0.00000  Uiso   1.00
C164   C     0.90751   0.14470   0.02350   0.00000  Uiso   1.00
C165   C     0.75915   0.18861   0.47649   0.00000  Uiso   1.00
C166   C     0.95739   0.02128   0.25048   0.00000  Uiso   1.00
C167   C     0.70927   0.31206   0.24952   0.00000  Uiso   1.00
C168   C     0.95741   0.31204   0.25043   0.00000  Uiso   1.00
Cu169  Cu    0.71355   0.16667   0.25000   0.00000  Uiso   1.00
Cu170  Cu    0.95311   0.16666   0.25000   0.00000  Uiso   1.00
H171   H     0.93237   0.13493   0.04197   0.00000  Uiso   1.00
H172   H     0.74256   0.03731   0.24921   0.00000  Uiso   1.00
H173   H     0.86802   0.10660   0.27734   0.00000  Uiso   1.00
H174   H     0.79865   0.22674   0.22266   0.00000  Uiso   1.00
H175   H     0.78161   0.10684   0.27795   0.00000  Uiso   1.00
H176   H     0.88506   0.22650   0.22205   0.00000  Uiso   1.00
H177   H     0.73428   0.19837   0.45803   0.00000  Uiso   1.00
H178   H     0.99932   0.14063   0.47459   0.00000  Uiso   1.00
H179   H     0.66734   0.19267   0.02541   0.00000  Uiso   1.00
H180   H     0.84733   0.14192   0.08054   0.00000  Uiso   1.00
H181   H     0.81933   0.19140   0.41946   0.00000  Uiso   1.00
H182   H     0.92407   0.03727   0.25086   0.00000  Uiso   1.00
H183   H     0.74260   0.29607   0.24913   0.00000  Uiso   1.00
H184   H     0.92411   0.29603   0.25079   0.00000  Uiso   1.00
N185   N     0.78403   0.16668   0.24999   0.00000  Uiso   1.00
N186   N     0.88264   0.16666   0.25001   0.00000  Uiso   1.00
N187   N     0.81724   0.21615   0.13254   0.00000  Uiso   1.00
N188   N     0.84943   0.11717   0.36746   0.00000  Uiso   1.00
N189   N     0.91589   0.18040   0.12555   0.00000  Uiso   1.00
N190   N     0.75077   0.15286   0.37446   0.00000  Uiso   1.00
O191   O     0.70625   0.10655   0.25000   0.00000  Uiso   1.00
O192   O     0.96042   0.22678   0.25000   0.00000  Uiso   1.00
O193   O     0.96039   0.10654   0.25000   0.00000  Uiso   1.00
O194   O     0.70628   0.22679   0.24999   0.00000  Uiso   1.00
O195   O     0.68519   0.16668   0.31491   0.00000  Uiso   1.00
O196   O     0.98148   0.16666   0.18508   0.00000  Uiso   1.00
O197   O     0.93933   0.16667   0.31492   0.00000  Uiso   1.00
O198   O     0.72733   0.16667   0.18508   0.00000  Uiso   1.00
C199   C     0.33331   0.42071   0.25002   0.00000  Uiso   1.00
C200   C     0.04259   0.35463   0.24957   0.00000  Uiso   1.00
C201   C     0.00002   0.62392   0.24996   0.00000  Uiso   1.00
C202   C     0.33331   0.37608   0.25004   0.00000  Uiso   1.00
C203   C     0.18674   0.46671   0.26513   0.00000  Uiso   1.00
C204   C     0.14660   0.53329   0.23487   0.00000  Uiso   1.00
C205   C     0.13722   0.46677   0.26528   0.00000  Uiso   1.00
C206   C     0.19612   0.53323   0.23472   0.00000  Uiso   1.00
C207   C     0.30582   0.49714   0.33590   0.00000  Uiso   1.00
C208   C     0.02751   0.50286   0.16410   0.00000  Uiso   1.00
C209   C     0.29010   0.49114   0.38487   0.00000  Uiso   1.00
C210   C     0.00002   0.57929   0.24997   0.00000  Uiso   1.00
C211   C     0.04323   0.50885   0.11512   0.00000  Uiso   1.00
C212   C     0.30691   0.48074   0.45594   0.00000  Uiso   1.00
C213   C     0.02642   0.51924   0.04405   0.00000  Uiso   1.00
C214   C     0.32384   0.48717   0.41023   0.00000  Uiso   1.00
C215   C     0.00949   0.51280   0.08977   0.00000  Uiso   1.00
C216   C     0.23991   0.48741   0.40702   0.00000  Uiso   1.00
C217   C     0.09342   0.51259   0.09298   0.00000  Uiso   1.00
C218   C     0.22356   0.49186   0.45346   0.00000  Uiso   1.00
C219   C     0.10977   0.50813   0.04654   0.00000  Uiso   1.00
C220   C     0.25731   0.48413   0.47782   0.00000  Uiso   1.00
C221   C     0.19198   0.48328   0.04574   0.00000  Uiso   1.00
C222   C     0.07602   0.51585   0.02218   0.00000  Uiso   1.00
C223   C     0.17448   0.50166   0.47652   0.00000  Uiso   1.00
C224   C     0.15885   0.49834   0.02348   0.00000  Uiso   1.00
C225   C     0.12526   0.53283   0.11516   0.00000  Uiso   1.00
C226   C     0.20807   0.46716   0.38484   0.00000  Uiso   1.00
C227   C     0.29086   0.51335   0.10959   0.00000  Uiso   1.00
C228   C     0.04246   0.48659   0.39041   0.00000  Uiso   1.00
C229   C     0.14135   0.51671   0.45426   0.00000  Uiso   1.00
C230   C     0.24085   0.47804   0.02350   0.00000  Uiso   1.00
C231   C     0.09248   0.52194   0.47649   0.00000  Uiso   1.00
C232   C     0.29073   0.35461   0.25048   0.00000  Uiso   1.00
C233   C     0.04261   0.64539   0.24952   0.00000  Uiso   1.00
C234   C     0.29075   0.64537   0.25043   0.00000  Uiso   1.00
Cu235  Cu    0.04689   0.50001   0.25000   0.00000  Uiso   1.00
Cu236  Cu    0.28645   0.49999   0.25000   0.00000  Uiso   1.00
H237   H     0.26571   0.46827   0.04197   0.00000  Uiso   1.00
H238   H     0.07589   0.37064   0.24921   0.00000  Uiso   1.00
H239   H     0.20135   0.43993   0.27734   0.00000  Uiso   1.00
H240   H     0.13198   0.56007   0.22266   0.00000  Uiso   1.00
H241   H     0.11494   0.44018   0.27795   0.00000  Uiso   1.00
H242   H     0.21839   0.55983   0.22205   0.00000  Uiso   1.00
H243   H     0.06762   0.53170   0.45803   0.00000  Uiso   1.00
H244   H     0.33266   0.47396   0.47459   0.00000  Uiso   1.00
H245   H     0.00067   0.52600   0.02541   0.00000  Uiso   1.00
H246   H     0.18066   0.47525   0.08054   0.00000  Uiso   1.00
H247   H     0.15266   0.52474   0.41946   0.00000  Uiso   1.00
H248   H     0.25741   0.37060   0.25086   0.00000  Uiso   1.00
H249   H     0.07593   0.62940   0.24913   0.00000  Uiso   1.00
H250   H     0.25744   0.62936   0.25079   0.00000  Uiso   1.00
N251   N     0.11736   0.50001   0.24999   0.00000  Uiso   1.00
N252   N     0.21597   0.49999   0.25001   0.00000  Uiso   1.00
N253   N     0.15057   0.54948   0.13254   0.00000  Uiso   1.00
N254   N     0.18276   0.45050   0.36746   0.00000  Uiso   1.00
N255   N     0.24922   0.51373   0.12555   0.00000  Uiso   1.00
N256   N     0.08410   0.48619   0.37446   0.00000  Uiso   1.00
O257   O     0.03958   0.43989   0.25000   0.00000  Uiso   1.00
O258   O     0.29375   0.56011   0.25000   0.00000  Uiso   1.00
O259   O     0.29372   0.43988   0.25000   0.00000  Uiso   1.00
O260   O     0.03961   0.56012   0.24999   0.00000  Uiso   1.00
O261   O     0.01852   0.50001   0.31491   0.00000  Uiso   1.00
O262   O     0.31481   0.49999   0.18508   0.00000  Uiso   1.00
O263   O     0.27267   0.50000   0.31492   0.00000  Uiso   1.00
O264   O     0.06067   0.50000   0.18508   0.00000  Uiso   1.00
C265   C     0.66665   0.42071   0.25002   0.00000  Uiso   1.00
C266   C     0.37592   0.35463   0.24957   0.00000  Uiso   1.00
C267   C     0.33335   0.62392   0.24996   0.00000  Uiso   1.00
C268   C     0.66665   0.37608   0.25004   0.00000  Uiso   1.00
C269   C     0.52007   0.46671   0.26513   0.00000  Uiso   1.00
C270   C     0.47993   0.53329   0.23487   0.00000  Uiso   1.00
C271   C     0.47055   0.46677   0.26528   0.00000  Uiso   1.00
C272   C     0.52945   0.53323   0.23472   0.00000  Uiso   1.00
C273   C     0.63915   0.49714   0.33590   0.00000  Uiso   1.00
C274   C     0.36085   0.50286   0.16410   0.00000  Uiso   1.00
C275   C     0.62344   0.49114   0.38487   0.00000  Uiso   1.00
C276   C     0.33335   0.57929   0.24997   0.00000  Uiso   1.00
C277   C     0.37656   0.50885   0.11512   0.00000  Uiso   1.00
C278   C     0.64025   0.48074   0.45594   0.00000  Uiso   1.00
C279   C     0.35975   0.51924   0.04405   0.00000  Uiso   1.00
C280   C     0.65717   0.48717   0.41023   0.00000  Uiso   1.00
C281   C     0.34283   0.51280   0.08977   0.00000  Uiso   1.00
C282   C     0.57325   0.48741   0.40702   0.00000  Uiso   1.00
C283   C     0.42675   0.51259   0.09298   0.00000  Uiso   1.00
C284   C     0.55689   0.49186   0.45346   0.00000  Uiso   1.00
C285   C     0.44311   0.50813   0.04654   0.00000  Uiso   1.00
C286   C     0.59065   0.48413   0.47782   0.00000  Uiso   1.00
C287   C     0.52531   0.48328   0.04574   0.00000  Uiso   1.00
C288   C     0.40935   0.51585   0.02218   0.00000  Uiso   1.00
C289   C     0.50781   0.50166   0.47652   0.00000  Uiso   1.00
C290   C     0.49218   0.49834   0.02348   0.00000  Uiso   1.00
C291   C     0.45860   0.53283   0.11516   0.00000  Uiso   1.00
C292   C     0.54140   0.46716   0.38484   0.00000  Uiso   1.00
C293   C     0.62420   0.51335   0.10959   0.00000  Uiso   1.00
C294   C     0.37579   0.48659   0.39041   0.00000  Uiso   1.00
C295   C     0.47468   0.51671   0.45426   0.00000  Uiso   1.00
C296   C     0.57418   0.47804   0.02350   0.00000  Uiso   1.00
C297   C     0.42581   0.52194   0.47649   0.00000  Uiso   1.00
C298   C     0.62406   0.35461   0.25048   0.00000  Uiso   1.00
C299   C     0.37594   0.64539   0.24952   0.00000  Uiso   1.00
C300   C     0.62408   0.64537   0.25043   0.00000  Uiso   1.00
Cu301  Cu    0.38022   0.50001   0.25000   0.00000  Uiso   1.00
Cu302  Cu    0.61978   0.49999   0.25000   0.00000  Uiso   1.00
H303   H     0.59904   0.46827   0.04197   0.00000  Uiso   1.00
H304   H     0.40923   0.37064   0.24921   0.00000  Uiso   1.00
H305   H     0.53469   0.43993   0.27734   0.00000  Uiso   1.00
H306   H     0.46531   0.56007   0.22266   0.00000  Uiso   1.00
H307   H     0.44827   0.44018   0.27795   0.00000  Uiso   1.00
H308   H     0.55173   0.55983   0.22205   0.00000  Uiso   1.00
H309   H     0.40095   0.53170   0.45803   0.00000  Uiso   1.00
H310   H     0.66599   0.47396   0.47459   0.00000  Uiso   1.00
H311   H     0.33400   0.52600   0.02541   0.00000  Uiso   1.00
H312   H     0.51399   0.47525   0.08054   0.00000  Uiso   1.00
H313   H     0.48600   0.52474   0.41946   0.00000  Uiso   1.00
H314   H     0.59074   0.37060   0.25086   0.00000  Uiso   1.00
H315   H     0.40926   0.62940   0.24913   0.00000  Uiso   1.00
H316   H     0.59077   0.62936   0.25079   0.00000  Uiso   1.00
N317   N     0.45069   0.50001   0.24999   0.00000  Uiso   1.00
N318   N     0.54931   0.49999   0.25001   0.00000  Uiso   1.00
N319   N     0.48390   0.54948   0.13254   0.00000  Uiso   1.00
N320   N     0.51610   0.45050   0.36746   0.00000  Uiso   1.00
N321   N     0.58255   0.51373   0.12555   0.00000  Uiso   1.00
N322   N     0.41743   0.48619   0.37446   0.00000  Uiso   1.00
O323   O     0.37291   0.43989   0.25000   0.00000  Uiso   1.00
O324   O     0.62709   0.56011   0.25000   0.00000  Uiso   1.00
O325   O     0.62706   0.43988   0.25000   0.00000  Uiso   1.00
O326   O     0.37294   0.56012   0.24999   0.00000  Uiso   1.00
O327   O     0.35186   0.50001   0.31491   0.00000  Uiso   1.00
O328   O     0.64814   0.49999   0.18508   0.00000  Uiso   1.00
O329   O     0.60600   0.50000   0.31492   0.00000  Uiso   1.00
O330   O     0.39400   0.50000   0.18508   0.00000  Uiso   1.00
C331   C     0.99998   0.42071   0.25002   0.00000  Uiso   1.00
C332   C     0.70925   0.35463   0.24957   0.00000  Uiso   1.00
C333   C     0.66669   0.62392   0.24996   0.00000  Uiso   1.00
C334   C     0.99998   0.37608   0.25004   0.00000  Uiso   1.00
C335   C     0.85340   0.46671   0.26513   0.00000  Uiso   1.00
C336   C     0.81326   0.53329   0.23487   0.00000  Uiso   1.00
C337   C     0.80388   0.46677   0.26528   0.00000  Uiso   1.00
C338   C     0.86278   0.53323   0.23472   0.00000  Uiso   1.00
C339   C     0.97249   0.49714   0.33590   0.00000  Uiso   1.00
C340   C     0.69418   0.50286   0.16410   0.00000  Uiso   1.00
C341   C     0.95677   0.49114   0.38487   0.00000  Uiso   1.00
C342   C     0.66669   0.57929   0.24997   0.00000  Uiso   1.00
C343   C     0.70989   0.50885   0.11512   0.00000  Uiso   1.00
C344   C     0.97358   0.48074   0.45594   0.00000  Uiso   1.00
C345   C     0.69308   0.51924   0.04405   0.00000  Uiso   1.00
C346   C     0.99050   0.48717   0.41023   0.00000  Uiso   1.00
C347   C     0.67616   0.51280   0.08977   0.00000  Uiso   1.00
C348   C     0.90658   0.48741   0.40702   0.00000  Uiso   1.00
C349   C     0.76008   0.51259   0.09298   0.00000  Uiso   1.00
C350   C     0.89022   0.49186   0.45346   0.00000  Uiso   1.00
C351   C     0.77644   0.50813   0.04654   0.00000  Uiso   1.00
C352   C     0.92398   0.48413   0.47782   0.00000  Uiso   1.00
C353   C     0.85864   0.48328   0.04574   0.00000  Uiso   1.00
C354   C     0.74268   0.51585   0.02218   0.00000  Uiso   1.00
C355   C     0.84115   0.50166   0.47652   0.00000  Uiso   1.00
C356   C     0.82551   0.49834   0.02348   0.00000  Uiso   1.00
C357   C     0.79193   0.53283   0.11516   0.00000  Uiso   1.00
C358   C     0.87473   0.46716   0.38484   0.00000  Uiso   1.00
C359   C     0.95753   0.51335   0.10959   0.00000  Uiso   1.00
C360   C     0.70913   0.48659   0.39041   0.00000  Uiso   1.00
C361   C     0.80802   0.51671   0.45426   0.00000  Uiso   1.00
C362   C     0.90751   0.47804   0.02350   0.00000  Uiso   1.00
C363   C     0.75915   0.52194   0.47649   0.00000  Uiso   1.00
C364   C     0.95739   0.35461   0.25048   0.00000  Uiso   1.00
C365   C     0.70927   0.64539   0.24952   0.00000  Uiso   1.00
C366   C     0.95741   0.64537   0.25043   0.00000  Uiso   1.00
Cu367  Cu    0.71355   0.50001   0.25000   0.00000  Uiso   1.00
Cu368  Cu    0.95311   0.49999   0.25000   0.00000  Uiso   1.00
H369   H     0.93237   0.46827   0.04197   0.00000  Uiso   1.00
H370   H     0.74256   0.37064   0.24921   0.00000  Uiso   1.00
H371   H     0.86802   0.43993   0.27734   0.00000  Uiso   1.00
H372   H     0.79865   0.56007   0.22266   0.00000  Uiso   1.00
H373   H     0.78161   0.44018   0.27795   0.00000  Uiso   1.00
H374   H     0.88506   0.55983   0.22205   0.00000  Uiso   1.00
H375   H     0.73428   0.53170   0.45803   0.00000  Uiso   1.00
H376   H     0.99932   0.47396   0.47459   0.00000  Uiso   1.00
H377   H     0.66734   0.52600   0.02541   0.00000  Uiso   1.00
H378   H     0.84733   0.47525   0.08054   0.00000  Uiso   1.00
H379   H     0.81933   0.52474   0.41946   0.00000  Uiso   1.00
H380   H     0.92407   0.37060   0.25086   0.00000  Uiso   1.00
H381   H     0.74260   0.62940   0.24913   0.00000  Uiso   1.00
H382   H     0.92411   0.62936   0.25079   0.00000  Uiso   1.00
N383   N     0.78403   0.50001   0.24999   0.00000  Uiso   1.00
N384   N     0.88264   0.49999   0.25001   0.00000  Uiso   1.00
N385   N     0.81724   0.54948   0.13254   0.00000  Uiso   1.00
N386   N     0.84943   0.45050   0.36746   0.00000  Uiso   1.00
N387   N     0.91589   0.51373   0.12555   0.00000  Uiso   1.00
N388   N     0.75077   0.48619   0.37446   0.00000  Uiso   1.00
O389   O     0.70625   0.43989   0.25000   0.00000  Uiso   1.00
O390   O     0.96042   0.56011   0.25000   0.00000  Uiso   1.00
O391   O     0.96039   0.43988   0.25000   0.00000  Uiso   1.00
O392   O     0.70628   0.56012   0.24999   0.00000  Uiso   1.00
O393   O     0.68519   0.50001   0.31491   0.00000  Uiso   1.00
O394   O     0.98148   0.49999   0.18508   0.00000  Uiso   1.00
O395   O     0.93933   0.50000   0.31492   0.00000  Uiso   1.00
O396   O     0.72733   0.50000   0.18508   0.00000  Uiso   1.00
C397   C     0.33331   0.75405   0.25002   0.00000  Uiso   1.00
C398   C     0.04259   0.68796   0.24957   0.00000  Uiso   1.00
C399   C     0.00002   0.95725   0.24996   0.00000  Uiso   1.00
C400   C     0.33331   0.70942   0.25004   0.00000  Uiso   1.00
C401   C     0.18674   0.80004   0.26513   0.00000  Uiso   1.00
C402   C     0.14660   0.86663   0.23487   0.00000  Uiso   1.00
C403   C     0.13722   0.80010   0.26528   0.00000  Uiso   1.00
C404   C     0.19612   0.86656   0.23472   0.00000  Uiso   1.00
C405   C     0.30582   0.83047   0.33590   0.00000  Uiso   1.00
C406   C     0.02751   0.83619   0.16410   0.00000  Uiso   1.00
C407   C     0.29010   0.82448   0.38487   0.00000  Uiso   1.00
C408   C     0.00002   0.91262   0.24997   0.00000  Uiso   1.00
C409   C     0.04323   0.84218   0.11512   0.00000  Uiso   1.00
C410   C     0.30691   0.81407   0.45594   0.00000  Uiso   1.00
C411   C     0.02642   0.85257   0.04405   0.00000  Uiso   1.00
C412   C     0.32384   0.82051   0.41023   0.00000  Uiso   1.00
C413   C     0.00949   0.84614   0.08977   0.00000  Uiso   1.00
C414   C     0.23991   0.82074   0.40702   0.00000  Uiso   1.00
C415   C     0.09342   0.84592   0.09298   0.00000  Uiso   1.00
C416   C     0.22356   0.82520   0.45346   0.00000  Uiso   1.00
C417   C     0.10977   0.84146   0.04654   0.00000  Uiso   1.00
C418   C     0.25731   0.81746   0.47782   0.00000  Uiso   1.00
C419   C     0.19198   0.81661   0.04574   0.00000  Uiso   1.00
C420   C     0.07602   0.84919   0.02218   0.00000  Uiso   1.00
C421   C     0.17448   0.83499   0.47652   0.00000  Uiso   1.00
C422   C     0.15885   0.83167   0.02348   0.00000  Uiso   1.00
C423   C     0.12526   0.86616   0.11516   0.00000  Uiso   1.00
C424   C     0.20807   0.80050   0.38484   0.00000  Uiso   1.00
C425   C     0.29086   0.84669   0.10959   0.00000  Uiso   1.00
C426   C     0.04246   0.81993   0.39041   0.00000  Uiso   1.00
C427   C     0.14135   0.85004   0.45426   0.00000  Uiso   1.00
C428   C     0.24085   0.81137   0.02350   0.00000  Uiso   1.00
C429   C     0.09248   0.85528   0.47649   0.00000  Uiso   1.00
C430   C     0.29073   0.68794   0.25048   0.00000  Uiso   1.00
C431   C     0.04261   0.97872   0.24952   0.00000  Uiso   1.00
C432   C     0.29075   0.97870   0.25043   0.00000  Uiso   1.00
Cu433  Cu    0.04689   0.83334   0.25000   0.00000  Uiso   1.00
Cu434  Cu    0.28645   0.83333   0.25000   0.00000  Uiso   1.00
H435   H     0.26571   0.80160   0.04197   0.00000  Uiso   1.00
H436   H     0.07589   0.70397   0.24921   0.00000  Uiso   1.00
H437   H     0.20135   0.77326   0.27734   0.00000  Uiso   1.00
H438   H     0.13198   0.89340   0.22266   0.00000  Uiso   1.00
H439   H     0.11494   0.77351   0.27795   0.00000  Uiso   1.00
H440   H     0.21839   0.89316   0.22205   0.00000  Uiso   1.00
H441   H     0.06762   0.86504   0.45803   0.00000  Uiso   1.00
H442   H     0.33266   0.80729   0.47459   0.00000  Uiso   1.00
H443   H     0.00067   0.85934   0.02541   0.00000  Uiso   1.00
H444   H     0.18066   0.80858   0.08054   0.00000  Uiso   1.00
H445   H     0.15266   0.85807   0.41946   0.00000  Uiso   1.00
H446   H     0.25741   0.70393   0.25086   0.00000  Uiso   1.00
H447   H     0.07593   0.96273   0.24913   0.00000  Uiso   1.00
H448   H     0.25744   0.96269   0.25079   0.00000  Uiso   1.00
N449   N     0.11736   0.83334   0.24999   0.00000  Uiso   1.00
N450   N     0.21597   0.83332   0.25001   0.00000  Uiso   1.00
N451   N     0.15057   0.88282   0.13254   0.00000  Uiso   1.00
N452   N     0.18276   0.78383   0.36746   0.00000  Uiso   1.00
N453   N     0.24922   0.84706   0.12555   0.00000  Uiso   1.00
N454   N     0.08410   0.81953   0.37446   0.00000  Uiso   1.00
O455   O     0.03958   0.77322   0.25000   0.00000  Uiso   1.00
O456   O     0.29375   0.89345   0.25000   0.00000  Uiso   1.00
O457   O     0.29372   0.77321   0.25000   0.00000  Uiso   1.00
O458   O     0.03961   0.89346   0.24999   0.00000  Uiso   1.00
O459   O     0.01852   0.83334   0.31491   0.00000  Uiso   1.00
O460   O     0.31481   0.83332   0.18508   0.00000  Uiso   1.00
O461   O     0.27267   0.83333   0.31492   0.00000  Uiso   1.00
O462   O     0.06067   0.83333   0.18508   0.00000  Uiso   1.00
C463   C     0.66665   0.75405   0.25002   0.00000  Uiso   1.00
C464   C     0.37592   0.68796   0.24957   0.00000  Uiso   1.00
C465   C     0.33335   0.95725   0.24996   0.00000  Uiso   1.00
C466   C     0.66665   0.70942   0.25004   0.00000  Uiso   1.00
C467   C     0.52007   0.80004   0.26513   0.00000  Uiso   1.00
C468   C     0.47993   0.86663   0.23487   0.00000  Uiso   1.00
C469   C     0.47055   0.80010   0.26528   0.00000  Uiso   1.00
C470   C     0.52945   0.86656   0.23472   0.00000  Uiso   1.00
C471   C     0.63915   0.83047   0.33590   0.00000  Uiso   1.00
C472   C     0.36085   0.83619   0.16410   0.00000  Uiso   1.00
C473   C     0.62344   0.82448   0.38487   0.00000  Uiso   1.00
C474   C     0.33335   0.91262   0.24997   0.00000  Uiso   1.00
C475   C     0.37656   0.84218   0.11512   0.00000  Uiso   1.00
C476   C     0.64025   0.81407   0.45594   0.00000  Uiso   1.00
C477   C     0.35975   0.85257   0.04405   0.00000  Uiso   1.00
C478   C     0.65717   0.82051   0.41023   0.00000  Uiso   1.00
C479   C     0.34283   0.84614   0.08977   0.00000  Uiso   1.00
C480   C     0.57325   0.82074   0.40702   0.00000  Uiso   1.00
C481   C     0.42675   0.84592   0.09298   0.00000  Uiso   1.00
C482   C     0.55689   0.82520   0.45346   0.00000  Uiso   1.00
C483   C     0.44311   0.84146   0.04654   0.00000  Uiso   1.00
C484   C     0.59065   0.81746   0.47782   0.00000  Uiso   1.00
C485   C     0.52531   0.81661   0.04574   0.00000  Uiso   1.00
C486   C     0.40935   0.84919   0.02218   0.00000  Uiso   1.00
C487   C     0.50781   0.83499   0.47652   0.00000  Uiso   1.00
C488   C     0.49218   0.83167   0.02348   0.00000  Uiso   1.00
C489   C     0.45860   0.86616   0.11516   0.00000  Uiso   1.00
C490   C     0.54140   0.80050   0.38484   0.00000  Uiso   1.00
C491   C     0.62420   0.84669   0.10959   0.00000  Uiso   1.00
C492   C     0.37579   0.81993   0.39041   0.00000  Uiso   1.00
C493   C     0.47468   0.85004   0.45426   0.00000  Uiso   1.00
C494   C     0.57418   0.81137   0.02350   0.00000  Uiso   1.00
C495   C     0.42581   0.85528   0.47649   0.00000  Uiso   1.00
C496   C     0.62406   0.68794   0.25048   0.00000  Uiso   1.00
C497   C     0.37594   0.97872   0.24952   0.00000  Uiso   1.00
C498   C     0.62408   0.97870   0.25043   0.00000  Uiso   1.00
Cu499  Cu    0.38022   0.83334   0.25000   0.00000  Uiso   1.00
Cu500  Cu    0.61978   0.83333   0.25000   0.00000  Uiso   1.00
H501   H     0.59904   0.80160   0.04197   0.00000  Uiso   1.00
H502   H     0.40923   0.70397   0.24921   0.00000  Uiso   1.00
H503   H     0.53469   0.77326   0.27734   0.00000  Uiso   1.00
H504   H     0.46531   0.89340   0.22266   0.00000  Uiso   1.00
H505   H     0.44827   0.77351   0.27795   0.00000  Uiso   1.00
H506   H     0.55173   0.89316   0.22205   0.00000  Uiso   1.00
H507   H     0.40095   0.86504   0.45803   0.00000  Uiso   1.00
H508   H     0.66599   0.80729   0.47459   0.00000  Uiso   1.00
H509   H     0.33400   0.85934   0.02541   0.00000  Uiso   1.00
H510   H     0.51399   0.80858   0.08054   0.00000  Uiso   1.00
H511   H     0.48600   0.85807   0.41946   0.00000  Uiso   1.00
H512   H     0.59074   0.70393   0.25086   0.00000  Uiso   1.00
H513   H     0.40926   0.96273   0.24913   0.00000  Uiso   1.00
H514   H     0.59077   0.96269   0.25079   0.00000  Uiso   1.00
N515   N     0.45069   0.83334   0.24999   0.00000  Uiso   1.00
N516   N     0.54931   0.83332   0.25001   0.00000  Uiso   1.00
N517   N     0.48390   0.88282   0.13254   0.00000  Uiso   1.00
N518   N     0.51610   0.78383   0.36746   0.00000  Uiso   1.00
N519   N     0.58255   0.84706   0.12555   0.00000  Uiso   1.00
N520   N     0.41743   0.81953   0.37446   0.00000  Uiso   1.00
O521   O     0.37291   0.77322   0.25000   0.00000  Uiso   1.00
O522   O     0.62709   0.89345   0.25000   0.00000  Uiso   1.00
O523   O     0.62706   0.77321   0.25000   0.00000  Uiso   1.00
O524   O     0.37294   0.89346   0.24999   0.00000  Uiso   1.00
O525   O     0.35186   0.83334   0.31491   0.00000  Uiso   1.00
O526   O     0.64814   0.83332   0.18508   0.00000  Uiso   1.00
O527   O     0.60600   0.83333   0.31492   0.00000  Uiso   1.00
O528   O     0.39400   0.83333   0.18508   0.00000  Uiso   1.00
C529   C     0.99998   0.75405   0.25002   0.00000  Uiso   1.00
C530   C     0.70925   0.68796   0.24957   0.00000  Uiso   1.00
C531   C     0.66669   0.95725   0.24996   0.00000  Uiso   1.00
C532   C     0.99998   0.70942   0.25004   0.00000  Uiso   1.00
C533   C     0.85340   0.80004   0.26513   0.00000  Uiso   1.00
C534   C     0.81326   0.86663   0.23487   0.00000  Uiso   1.00
C535   C     0.80388   0.80010   0.26528   0.00000  Uiso   1.00
C536   C     0.86278   0.86656   0.23472   0.00000  Uiso   1.00
C537   C     0.97249   0.83047   0.33590   0.00000  Uiso   1.00
C538   C     0.69418   0.83619   0.16410   0.00000  Uiso   1.00
C539   C     0.95677   0.82448   0.38487   0.00000  Uiso   1.00
C540   C     0.66669   0.91262   0.24997   0.00000  Uiso   1.00
C541   C     0.70989   0.84218   0.11512   0.00000  Uiso   1.00
C542   C     0.97358   0.81407   0.45594   0.00000  Uiso   1.00
C543   C     0.69308   0.85257   0.04405   0.00000  Uiso   1.00
C544   C     0.99050   0.82051   0.41023   0.00000  Uiso   1.00
C545   C     0.67616   0.84614   0.08977   0.00000  Uiso   1.00
C546   C     0.90658   0.82074   0.40702   0.00000  Uiso   1.00
C547   C     0.76008   0.84592   0.09298   0.00000  Uiso   1.00
C548   C     0.89022   0.82520   0.45346   0.00000  Uiso   1.00
C549   C     0.77644   0.84146   0.04654   0.00000  Uiso   1.00
C550   C     0.92398   0.81746   0.47782   0.00000  Uiso   1.00
C551   C     0.85864   0.81661   0.04574   0.00000  Uiso   1.00
C552   C     0.74268   0.84919   0.02218   0.00000  Uiso   1.00
C553   C     0.84115   0.83499   0.47652   0.00000  Uiso   1.00
C554   C     0.82551   0.83167   0.02348   0.00000  Uiso   1.00
C555   C     0.79193   0.86616   0.11516   0.00000  Uiso   1.00
C556   C     0.87473   0.80050   0.38484   0.00000  Uiso   1.00
C557   C     0.95753   0.84669   0.10959   0.00000  Uiso   1.00
C558   C     0.70913   0.81993   0.39041   0.00000  Uiso   1.00
C559   C     0.80802   0.85004   0.45426   0.00000  Uiso   1.00
C560   C     0.90751   0.81137   0.02350   0.00000  Uiso   1.00
C561   C     0.75915   0.85528   0.47649   0.00000  Uiso   1.00
C562   C     0.95739   0.68794   0.25048   0.00000  Uiso   1.00
C563   C     0.70927   0.97872   0.24952   0.00000  Uiso   1.00
C564   C     0.95741   0.97870   0.25043   0.00000  Uiso   1.00
Cu565  Cu    0.71355   0.83334   0.25000   0.00000  Uiso   1.00
Cu566  Cu    0.95311   0.83333   0.25000   0.00000  Uiso   1.00
H567   H     0.93237   0.80160   0.04197   0.00000  Uiso   1.00
H568   H     0.74256   0.70397   0.24921   0.00000  Uiso   1.00
H569   H     0.86802   0.77326   0.27734   0.00000  Uiso   1.00
H570   H     0.79865   0.89340   0.22266   0.00000  Uiso   1.00
H571   H     0.78161   0.77351   0.27795   0.00000  Uiso   1.00
H572   H     0.88506   0.89316   0.22205   0.00000  Uiso   1.00
H573   H     0.73428   0.86504   0.45803   0.00000  Uiso   1.00
H574   H     0.99932   0.80729   0.47459   0.00000  Uiso   1.00
H575   H     0.66734   0.85934   0.02541   0.00000  Uiso   1.00
H576   H     0.84733   0.80858   0.08054   0.00000  Uiso   1.00
H577   H     0.81933   0.85807   0.41946   0.00000  Uiso   1.00
H578   H     0.92407   0.70393   0.25086   0.00000  Uiso   1.00
H579   H     0.74260   0.96273   0.24913   0.00000  Uiso   1.00
H580   H     0.92411   0.96269   0.25079   0.00000  Uiso   1.00
N581   N     0.78403   0.83334   0.24999   0.00000  Uiso   1.00
N582   N     0.88264   0.83332   0.25001   0.00000  Uiso   1.00
N583   N     0.81724   0.88282   0.13254   0.00000  Uiso   1.00
N584   N     0.84943   0.78383   0.36746   0.00000  Uiso   1.00
N585   N     0.91589   0.84706   0.12555   0.00000  Uiso   1.00
N586   N     0.75077   0.81953   0.37446   0.00000  Uiso   1.00
O587   O     0.70625   0.77322   0.25000   0.00000  Uiso   1.00
O588   O     0.96042   0.89345   0.25000   0.00000  Uiso   1.00
O589   O     0.96039   0.77321   0.25000   0.00000  Uiso   1.00
O590   O     0.70628   0.89346   0.24999   0.00000  Uiso   1.00
O591   O     0.68519   0.83334   0.31491   0.00000  Uiso   1.00
O592   O     0.98148   0.83332   0.18508   0.00000  Uiso   1.00
O593   O     0.93933   0.83333   0.31492   0.00000  Uiso   1.00
O594   O     0.72733   0.83333   0.18508   0.00000  Uiso   1.00
C595   C     0.33331   0.08738   0.75002   0.00000  Uiso   1.00
C596   C     0.04259   0.02130   0.74957   0.00000  Uiso   1.00
C597   C     0.00002   0.29058   0.74996   0.00000  Uiso   1.00
C598   C     0.33331   0.04275   0.75004   0.00000  Uiso   1.00
C599   C     0.18674   0.13337   0.76513   0.00000  Uiso   1.00
C600   C     0.14660   0.19996   0.73487   0.00000  Uiso   1.00
C601   C     0.13722   0.13344   0.76528   0.00000  Uiso   1.00
C602   C     0.19612   0.19990   0.73472   0.00000  Uiso   1.00
C603   C     0.30582   0.16380   0.83590   0.00000  Uiso   1.00
C604   C     0.02751   0.16953   0.66410   0.00000  Uiso   1.00
C605   C     0.29010   0.15781   0.88487   0.00000  Uiso   1.00
C606   C     0.00002   0.24595   0.74997   0.00000  Uiso   1.00
C607   C     0.04323   0.17552   0.61512   0.00000  Uiso   1.00
C608   C     0.30691   0.14741   0.95594   0.00000  Uiso   1.00
C609   C     0.02642   0.18590   0.54405   0.00000  Uiso   1.00
C610   C     0.32384   0.15384   0.91023   0.00000  Uiso   1.00
C611   C     0.00949   0.17947   0.58977   0.00000  Uiso   1.00
C612   C     0.23991   0.15408   0.90702   0.00000  Uiso   1.00
C613   C     0.09342   0.17925   0.59298   0.00000  Uiso   1.00
C614   C     0.22356   0.15853   0.95346   0.00000  Uiso   1.00
C615   C     0.10977   0.17480   0.54654   0.00000  Uiso   1.00
C616   C     0.25731   0.15080   0.97782   0.00000  Uiso   1.00
C617   C     0.19198   0.14994   0.54574   0.00000  Uiso   1.00
C618   C     0.07602   0.18252   0.52218   0.00000  Uiso   1.00
C619   C     0.17448   0.16832   0.97652   0.00000  Uiso   1.00
C620   C     0.15885   0.16500   0.52348   0.00000  Uiso   1.00
C621   C     0.12526   0.19949   0.61516   0.00000  Uiso   1.00
C622   C     0.20807   0.13383   0.88484   0.00000  Uiso   1.00
C623   C     0.29086   0.18002   0.60959   0.00000  Uiso   1.00
C624   C     0.04246   0.15326   0.89041   0.00000  Uiso   1.00
C625   C     0.14135   0.18338   0.95426   0.00000  Uiso   1.00
C626   C     0.24085   0.14470   0.52350   0.00000  Uiso   1.00
C627   C     0.09248   0.18861   0.97649   0.00000  Uiso   1.00
C628   C     0.29073   0.02128   0.75048   0.00000  Uiso   1.00
C629   C     0.04261   0.31206   0.74952   0.00000  Uiso   1.00
C630   C     0.29075   0.31204   0.75043   0.00000  Uiso   1.00
Cu631  Cu    0.04689   0.16667   0.75000   0.00000  Uiso   1.00
Cu632  Cu    0.28645   0.16666   0.75000   0.00000  Uiso   1.00
H633   H     0.26571   0.13493   0.54197   0.00000  Uiso   1.00
H634   H     0.07589   0.03731   0.74921   0.00000  Uiso   1.00
H635   H     0.20135   0.10660   0.77734   0.00000  Uiso   1.00
H636   H     0.13198   0.22674   0.72266   0.00000  Uiso   1.00
H637   H     0.11494   0.10684   0.77795   0.00000  Uiso   1.00
H638   H     0.21839   0.22650   0.72205   0.00000  Uiso   1.00
H639   H     0.06762   0.19837   0.95803   0.00000  Uiso   1.00
H640   H     0.33266   0.14063   0.97459   0.00000  Uiso   1.00
H641   H     0.00067   0.19267   0.52541   0.00000  Uiso   1.00
H642   H     0.18066   0.14192   0.58054   0.00000  Uiso   1.00
H643   H     0.15266   0.19140   0.91946   0.00000  Uiso   1.00
H644   H     0.25741   0.03727   0.75086   0.00000  Uiso   1.00
H645   H     0.07593   0.29607   0.74913   0.00000  Uiso   1.00
H646   H     0.25744   0.29603   0.75079   0.00000  Uiso   1.00
N647   N     0.11736   0.16668   0.74999   0.00000  Uiso   1.00
N648   N     0.21597   0.16666   0.75001   0.00000  Uiso   1.00
N649   N     0.15057   0.21615   0.63254   0.00000  Uiso   1.00
N650   N     0.18276   0.11717   0.86746   0.00000  Uiso   1.00
N651   N     0.24922   0.18040   0.62555   0.00000  Uiso   1.00
N652   N     0.08410   0.15286   0.87446   0.00000  Uiso   1.00
O653   O     0.03958   0.10655   0.75000   0.00000  Uiso   1.00
O654   O     0.29375   0.22678   0.75000   0.00000  Uiso   1.00
O655   O     0.29372   0.10654   0.75000   0.00000  Uiso   1.00
O656   O     0.03961   0.22679   0.74999   0.00000  Uiso   1.00
O657   O     0.01852   0.16668   0.81491   0.00000  Uiso   1.00
O658   O     0.31481   0.16666   0.68508   0.00000  Uiso   1.00
O659   O     0.27267   0.16667   0.81492   0.00000  Uiso   1.00
O660   O     0.06067   0.16667   0.68508   0.00000  Uiso   1.00
C661   C     0.66665   0.08738   0.75002   0.00000  Uiso   1.00
C662   C     0.37592   0.02130   0.74957   0.00000  Uiso   1.00
C663   C     0.33335   0.29058   0.74996   0.00000  Uiso   1.00
C664   C     0.66665   0.04275   0.75004   0.00000  Uiso   1.00
C665   C     0.52007   0.13337   0.76513   0.00000  Uiso   1.00
C666   C     0.47993   0.19996   0.73487   0.00000  Uiso   1.00
C667   C     0.47055   0.13344   0.76528   0.00000  Uiso   1.00
C668   C     0.52945   0.19990   0.73472   0.00000  Uiso   1.00
C669   C     0.63915   0.16380   0.83590   0.00000  Uiso   1.00
C670   C     0.36085   0.16953   0.66410   0.00000  Uiso   1.00
C671   C     0.62344   0.15781   0.88487   0.00000  Uiso   1.00
C672   C     0.33335   0.24595   0.74997   0.00000  Uiso   1.00
C673   C     0.37656   0.17552   0.61512   0.00000  Uiso   1.00
C674   C     0.64025   0.14741   0.95594   0.00000  Uiso   1.00
C675   C     0.35975   0.18590   0.54405   0.00000  Uiso   1.00
C676   C     0.65717   0.15384   0.91023   0.00000  Uiso   1.00
C677   C     0.34283   0.17947   0.58977   0.00000  Uiso   1.00
C678   C     0.57325   0.15408   0.90702   0.00000  Uiso   1.00
C679   C     0.42675   0.17925   0.59298   0.00000  Uiso   1.00
C680   C     0.55689   0.15853   0.95346   0.00000  Uiso   1.00
C681   C     0.44311   0.17480   0.54654   0.00000  Uiso   1.00
C682   C     0.59065   0.15080   0.97782   0.00000  Uiso   1.00
C683   C     0.52531   0.14994   0.54574   0.00000  Uiso   1.00
C684   C     0.40935   0.18252   0.52218   0.00000  Uiso   1.00
C685   C     0.50781   0.16832   0.97652   0.00000  Uiso   1.00
C686   C     0.49218   0.16500   0.52348   0.00000  Uiso   1.00
C687   C     0.45860   0.19949   0.61516   0.00000  Uiso   1.00
C688   C     0.54140   0.13383   0.88484   0.00000  Uiso   1.00
C689   C     0.62420   0.18002   0.60959   0.00000  Uiso   1.00
C690   C     0.37579   0.15326   0.89041   0.00000  Uiso   1.00
C691   C     0.47468   0.18338   0.95426   0.00000  Uiso   1.00
C692   C     0.57418   0.14470   0.52350   0.00000  Uiso   1.00
C693   C     0.42581   0.18861   0.97649   0.00000  Uiso   1.00
C694   C     0.62406   0.02128   0.75048   0.00000  Uiso   1.00
C695   C     0.37594   0.31206   0.74952   0.00000  Uiso   1.00
C696   C     0.62408   0.31204   0.75043   0.00000  Uiso   1.00
Cu697  Cu    0.38022   0.16667   0.75000   0.00000  Uiso   1.00
Cu698  Cu    0.61978   0.16666   0.75000   0.00000  Uiso   1.00
H699   H     0.59904   0.13493   0.54197   0.00000  Uiso   1.00
H700   H     0.40923   0.03731   0.74921   0.00000  Uiso   1.00
H701   H     0.53469   0.10660   0.77734   0.00000  Uiso   1.00
H702   H     0.46531   0.22674   0.72266   0.00000  Uiso   1.00
H703   H     0.44827   0.10684   0.77795   0.00000  Uiso   1.00
H704   H     0.55173   0.22650   0.72205   0.00000  Uiso   1.00
H705   H     0.40095   0.19837   0.95803   0.00000  Uiso   1.00
H706   H     0.66599   0.14063   0.97459   0.00000  Uiso   1.00
H707   H     0.33400   0.19267   0.52541   0.00000  Uiso   1.00
H708   H     0.51399   0.14192   0.58054   0.00000  Uiso   1.00
H709   H     0.48600   0.19140   0.91946   0.00000  Uiso   1.00
H710   H     0.59074   0.03727   0.75086   0.00000  Uiso   1.00
H711   H     0.40926   0.29607   0.74913   0.00000  Uiso   1.00
H712   H     0.59077   0.29603   0.75079   0.00000  Uiso   1.00
N713   N     0.45069   0.16668   0.74999   0.00000  Uiso   1.00
N714   N     0.54931   0.16666   0.75001   0.00000  Uiso   1.00
N715   N     0.48390   0.21615   0.63254   0.00000  Uiso   1.00
N716   N     0.51610   0.11717   0.86746   0.00000  Uiso   1.00
N717   N     0.58255   0.18040   0.62555   0.00000  Uiso   1.00
N718   N     0.41743   0.15286   0.87446   0.00000  Uiso   1.00
O719   O     0.37291   0.10655   0.75000   0.00000  Uiso   1.00
O720   O     0.62709   0.22678   0.75000   0.00000  Uiso   1.00
O721   O     0.62706   0.10654   0.75000   0.00000  Uiso   1.00
O722   O     0.37294   0.22679   0.74999   0.00000  Uiso   1.00
O723   O     0.35186   0.16668   0.81491   0.00000  Uiso   1.00
O724   O     0.64814   0.16666   0.68508   0.00000  Uiso   1.00
O725   O     0.60600   0.16667   0.81492   0.00000  Uiso   1.00
O726   O     0.39400   0.16667   0.68508   0.00000  Uiso   1.00
C727   C     0.99998   0.08738   0.75002   0.00000  Uiso   1.00
C728   C     0.70925   0.02130   0.74957   0.00000  Uiso   1.00
C729   C     0.66669   0.29058   0.74996   0.00000  Uiso   1.00
C730   C     0.99998   0.04275   0.75004   0.00000  Uiso   1.00
C731   C     0.85340   0.13337   0.76513   0.00000  Uiso   1.00
C732   C     0.81326   0.19996   0.73487   0.00000  Uiso   1.00
C733   C     0.80388   0.13344   0.76528   0.00000  Uiso   1.00
C734   C     0.86278   0.19990   0.73472   0.00000  Uiso   1.00
C735   C     0.97249   0.16380   0.83590   0.00000  Uiso   1.00
C736   C     0.69418   0.16953   0.66410   0.00000  Uiso   1.00
C737   C     0.95677   0.15781   0.88487   0.00000  Uiso   1.00
C738   C     0.66669   0.24595   0.74997   0.00000  Uiso   1.00
C739   C     0.70989   0.17552   0.61512   0.00000  Uiso   1.00
C740   C     0.97358   0.14741   0.95594   0.00000  Uiso   1.00
C741   C     0.69308   0.18590   0.54405   0.00000  Uiso   1.00
C742   C     0.99050   0.15384   0.91023   0.00000  Uiso   1.00
C743   C     0.67616   0.17947   0.58977   0.00000  Uiso   1.00
C744   C     0.90658   0.15408   0.90702   0.00000  Uiso   1.00
C745   C     0.76008   0.17925   0.59298   0.00000  Uiso   1.00
C746   C     0.89022   0.15853   0.95346   0.00000  Uiso   1.00
C747   C     0.77644   0.17480   0.54654   0.00000  Uiso   1.00
C748   C     0.92398   0.15080   0.97782   0.00000  Uiso   1.00
C749   C     0.85864   0.14994   0.54574   0.00000  Uiso   1.00
C750   C     0.74268   0.18252   0.52218   0.00000  Uiso   1.00
C751   C     0.84115   0.16832   0.97652   0.00000  Uiso   1.00
C752   C     0.82551   0.16500   0.52348   0.00000  Uiso   1.00
C753   C     0.79193   0.19949   0.61516   0.00000  Uiso   1.00
C754   C     0.87473   0.13383   0.88484   0.00000  Uiso   1.00
C755   C     0.95753   0.18002   0.60959   0.00000  Uiso   1.00
C756   C     0.70913   0.15326   0.89041   0.00000  Uiso   1.00
C757   C     0.80802   0.18338   0.95426   0.00000  Uiso   1.00
C758   C     0.90751   0.14470   0.52350   0.00000  Uiso   1.00
C759   C     0.75915   0.18861   0.97649   0.00000  Uiso   1.00
C760   C     0.95739   0.02128   0.75048   0.00000  Uiso   1.00
C761   C     0.70927   0.31206   0.74952   0.00000  Uiso   1.00
C762   C     0.95741   0.31204   0.75043   0.00000  Uiso   1.00
Cu763  Cu    0.71355   0.16667   0.75000   0.00000  Uiso   1.00
Cu764  Cu    0.95311   0.16666   0.75000   0.00000  Uiso   1.00
H765   H     0.93237   0.13493   0.54197   0.00000  Uiso   1.00
H766   H     0.74256   0.03731   0.74921   0.00000  Uiso   1.00
H767   H     0.86802   0.10660   0.77734   0.00000  Uiso   1.00
H768   H     0.79865   0.22674   0.72266   0.00000  Uiso   1.00
H769   H     0.78161   0.10684   0.77795   0.00000  Uiso   1.00
H770   H     0.88506   0.22650   0.72205   0.00000  Uiso   1.00
H771   H     0.73428   0.19837   0.95803   0.00000  Uiso   1.00
H772   H     0.99932   0.14063   0.97459   0.00000  Uiso   1.00
H773   H     0.66734   0.19267   0.52541   0.00000  Uiso   1.00
H774   H     0.84733   0.14192   0.58054   0.00000  Uiso   1.00
H775   H     0.81933   0.19140   0.91946   0.00000  Uiso   1.00
H776   H     0.92407   0.03727   0.75086   0.00000  Uiso   1.00
H777   H     0.74260   0.29607   0.74913   0.00000  Uiso   1.00
H778   H     0.92411   0.29603   0.75079   0.00000  Uiso   1.00
N779   N     0.78403   0.16668   0.74999   0.00000  Uiso   1.00
N780   N     0.88264   0.16666   0.75001   0.00000  Uiso   1.00
N781   N     0.81724   0.21615   0.63254   0.00000  Uiso   1.00
N782   N     0.84943   0.11717   0.86746   0.00000  Uiso   1.00
N783   N     0.91589   0.18040   0.62555   0.00000  Uiso   1.00
N784   N     0.75077   0.15286   0.87446   0.00000  Uiso   1.00
O785   O     0.70625   0.10655   0.75000   0.00000  Uiso   1.00
O786   O     0.96042   0.22678   0.75000   0.00000  Uiso   1.00
O787   O     0.96039   0.10654   0.75000   0.00000  Uiso   1.00
O788   O     0.70628   0.22679   0.74999   0.00000  Uiso   1.00
O789   O     0.68519   0.16668   0.81491   0.00000  Uiso   1.00
O790   O     0.98148   0.16666   0.68508   0.00000  Uiso   1.00
O791   O     0.93933   0.16667   0.81492   0.00000  Uiso   1.00
O792   O     0.72733   0.16667   0.68508   0.00000  Uiso   1.00
C793   C     0.33331   0.42071   0.75002   0.00000  Uiso   1.00
C794   C     0.04259   0.35463   0.74957   0.00000  Uiso   1.00
C795   C     0.00002   0.62392   0.74996   0.00000  Uiso   1.00
C796   C     0.33331   0.37608   0.75004   0.00000  Uiso   1.00
C797   C     0.18674   0.46671   0.76513   0.00000  Uiso   1.00
C798   C     0.14660   0.53329   0.73487   0.00000  Uiso   1.00
C799   C     0.13722   0.46677   0.76528   0.00000  Uiso   1.00
C800   C     0.19612   0.53323   0.73472   0.00000  Uiso   1.00
C801   C     0.30582   0.49714   0.83590   0.00000  Uiso   1.00
C802   C     0.02751   0.50286   0.66410   0.00000  Uiso   1.00
C803   C     0.29010   0.49114   0.88487   0.00000  Uiso   1.00
C804   C     0.00002   0.57929   0.74997   0.00000  Uiso   1.00
C805   C     0.04323   0.50885   0.61512   0.00000  Uiso   1.00
C806   C     0.30691   0.48074   0.95594   0.00000  Uiso   1.00
C807   C     0.02642   0.51924   0.54405   0.00000  Uiso   1.00
C808   C     0.32384   0.48717   0.91023   0.00000  Uiso   1.00
C809   C     0.00949   0.51280   0.58977   0.00000  Uiso   1.00
C810   C     0.23991   0.48741   0.90702   0.00000  Uiso   1.00
C811   C     0.09342   0.51259   0.59298   0.00000  Uiso   1.00
C812   C     0.22356   0.49186   0.95346   0.00000  Uiso   1.00
C813   C     0.10977   0.50813   0.54654   0.00000  Uiso   1.00
C814   C     0.25731   0.48413   0.97782   0.00000  Uiso   1.00
C815   C     0.19198   0.48328   0.54574   0.00000  Uiso   1.00
C816   C     0.07602   0.51585   0.52218   0.00000  Uiso   1.00
C817   C     0.17448   0.50166   0.97652   0.00000  Uiso   1.00
C818   C     0.15885   0.49834   0.52348   0.00000  Uiso   1.00
C819   C     0.12526   0.53283   0.61516   0.00000  Uiso   1.00
C820   C     0.20807   0.46716   0.88484   0.00000  Uiso   1.00
C821   C     0.29086   0.51335   0.60959   0.00000  Uiso   1.00
C822   C     0.04246   0.48659   0.89041   0.00000  Uiso   1.00
C823   C     0.14135   0.51671   0.95426   0.00000  Uiso   1.00
C824   C     0.24085   0.47804   0.52350   0.00000  Uiso   1.00
C825   C     0.09248   0.52194   0.97649   0.00000  Uiso   1.00
C826   C     0.29073   0.35461   0.75048   0.00000  Uiso   1.00
C827   C     0.04261   0.64539   0.74952   0.00000  Uiso   1.00
C828   C     0.29075   0.64537   0.75043   0.00000  Uiso   1.00
Cu829  Cu    0.04689   0.50001   0.75000   0.00000  Uiso   1.00
Cu830  Cu    0.28645   0.49999   0.75000   0.00000  Uiso   1.00
H831   H     0.26571   0.46827   0.54197   0.00000  Uiso   1.00
H832   H     0.07589   0.37064   0.74921   0.00000  Uiso   1.00
H833   H     0.20135   0.43993   0.77734   0.00000  Uiso   1.00
H834   H     0.13198   0.56007   0.72266   0.00000  Uiso   1.00
H835   H     0.11494   0.44018   0.77795   0.00000  Uiso   1.00
H836   H     0.21839   0.55983   0.72205   0.00000  Uiso   1.00
H837   H     0.06762   0.53170   0.95803   0.00000  Uiso   1.00
H838   H     0.33266   0.47396   0.97459   0.00000  Uiso   1.00
H839   H     0.00067   0.52600   0.52541   0.00000  Uiso   1.00
H840   H     0.18066   0.47525   0.58054   0.00000  Uiso   1.00
H841   H     0.15266   0.52474   0.91946   0.00000  Uiso   1.00
H842   H     0.25741   0.37060   0.75086   0.00000  Uiso   1.00
H843   H     0.07593   0.62940   0.74913   0.00000  Uiso   1.00
H844   H     0.25744   0.62936   0.75079   0.00000  Uiso   1.00
N845   N     0.11736   0.50001   0.74999   0.00000  Uiso   1.00
N846   N     0.21597   0.49999   0.75001   0.00000  Uiso   1.00
N847   N     0.15057   0.54948   0.63254   0.00000  Uiso   1.00
N848   N     0.18276   0.45050   0.86746   0.00000  Uiso   1.00
N849   N     0.24922   0.51373   0.62555   0.00000  Uiso   1.00
N850   N     0.08410   0.48619   0.87446   0.00000  Uiso   1.00
O851   O     0.03958   0.43989   0.75000   0.00000  Uiso   1.00
O852   O     0.29375   0.56011   0.75000   0.00000  Uiso   1.00
O853   O     0.29372   0.43988   0.75000   0.00000  Uiso   1.00
O854   O     0.03961   0.56012   0.74999   0.00000  Uiso   1.00
O855   O     0.01852   0.50001   0.81491   0.00000  Uiso   1.00
O856   O     0.31481   0.49999   0.68508   0.00000  Uiso   1.00
O857   O     0.27267   0.50000   0.81492   0.00000  Uiso   1.00
O858   O     0.06067   0.50000   0.68508   0.00000  Uiso   1.00
C859   C     0.66665   0.42071   0.75002   0.00000  Uiso   1.00
C860   C     0.37592   0.35463   0.74957   0.00000  Uiso   1.00
C861   C     0.33335   0.62392   0.74996   0.00000  Uiso   1.00
C862   C     0.66665   0.37608   0.75004   0.00000  Uiso   1.00
C863   C     0.52007   0.46671   0.76513   0.00000  Uiso   1.00
C864   C     0.47993   0.53329   0.73487   0.00000  Uiso   1.00
C865   C     0.47055   0.46677   0.76528   0.00000  Uiso   1.00
C866   C     0.52945   0.53323   0.73472   0.00000  Uiso   1.00
C867   C     0.63915   0.49714   0.83590   0.00000  Uiso   1.00
C868   C     0.36085   0.50286   0.66410   0.00000  Uiso   1.00
C869   C     0.62344   0.49114   0.88487   0.00000  Uiso   1.00
C870   C     0.33335   0.57929   0.74997   0.00000  Uiso   1.00
C871   C     0.37656   0.50885   0.61512   0.00000  Uiso   1.00
C872   C     0.64025   0.48074   0.95594   0.00000  Uiso   1.00
C873   C     0.35975   0.51924   0.54405   0.00000  Uiso   1.00
C874   C     0.65717   0.48717   0.91023   0.00000  Uiso   1.00
C875   C     0.34283   0.51280   0.58977   0.00000  Uiso   1.00
C876   C     0.57325   0.48741   0.90702   0.00000  Uiso   1.00
C877   C     0.42675   0.51259   0.59298   0.00000  Uiso   1.00
C878   C     0.55689   0.49186   0.95346   0.00000  Uiso   1.00
C879   C     0.44311   0.50813   0.54654   0.00000  Uiso   1.00
C880   C     0.59065   0.48413   0.97782   0.00000  Uiso   1.00
C881   C     0.52531   0.48328   0.54574   0.00000  Uiso   1.00
C882   C     0.40935   0.51585   0.52218   0.00000  Uiso   1.00
C883   C     0.50781   0.50166   0.97652   0.00000  Uiso   1.00
C884   C     0.49218   0.49834   0.52348   0.00000  Uiso   1.00
C885   C     0.45860   0.53283   0.61516   0.00000  Uiso   1.00
C886   C     0.54140   0.46716   0.88484   0.00000  Uiso   1.00
C887   C     0.62420   0.51335   0.60959   0.00000  Uiso   1.00
C888   C     0.37579   0.48659   0.89041   0.00000  Uiso   1.00
C889   C     0.47468   0.51671   0.95426   0.00000  Uiso   1.00
C890   C     0.57418   0.47804   0.52350   0.00000  Uiso   1.00
C891   C     0.42581   0.52194   0.97649   0.00000  Uiso   1.00
C892   C     0.62406   0.35461   0.75048   0.00000  Uiso   1.00
C893   C     0.37594   0.64539   0.74952   0.00000  Uiso   1.00
C894   C     0.62408   0.64537   0.75043   0.00000  Uiso   1.00
Cu895  Cu    0.38022   0.50001   0.75000   0.00000  Uiso   1.00
Cu896  Cu    0.61978   0.49999   0.75000   0.00000  Uiso   1.00
H897   H     0.59904   0.46827   0.54197   0.00000  Uiso   1.00
H898   H     0.40923   0.37064   0.74921   0.00000  Uiso   1.00
H899   H     0.53469   0.43993   0.77734   0.00000  Uiso   1.00
H900   H     0.46531   0.56007   0.72266   0.00000  Uiso   1.00
H901   H     0.44827   0.44018   0.77795   0.00000  Uiso   1.00
H902   H     0.55173   0.55983   0.72205   0.00000  Uiso   1.00
H903   H     0.40095   0.53170   0.95803   0.00000  Uiso   1.00
H904   H     0.66599   0.47396   0.97459   0.00000  Uiso   1.00
H905   H     0.33400   0.52600   0.52541   0.00000  Uiso   1.00
H906   H     0.51399   0.47525   0.58054   0.00000  Uiso   1.00
H907   H     0.48600   0.52474   0.91946   0.00000  Uiso   1.00
H908   H     0.59074   0.37060   0.75086   0.00000  Uiso   1.00
H909   H     0.40926   0.62940   0.74913   0.00000  Uiso   1.00
H910   H     0.59077   0.62936   0.75079   0.00000  Uiso   1.00
N911   N     0.45069   0.50001   0.74999   0.00000  Uiso   1.00
N912   N     0.54931   0.49999   0.75001   0.00000  Uiso   1.00
N913   N     0.48390   0.54948   0.63254   0.00000  Uiso   1.00
N914   N     0.51610   0.45050   0.86746   0.00000  Uiso   1.00
N915   N     0.58255   0.51373   0.62555   0.00000  Uiso   1.00
N916   N     0.41743   0.48619   0.87446   0.00000  Uiso   1.00
O917   O     0.37291   0.43989   0.75000   0.00000  Uiso   1.00
O918   O     0.62709   0.56011   0.75000   0.00000  Uiso   1.00
O919   O     0.62706   0.43988   0.75000   0.00000  Uiso   1.00
O920   O     0.37294   0.56012   0.74999   0.00000  Uiso   1.00
O921   O     0.35186   0.50001   0.81491   0.00000  Uiso   1.00
O922   O     0.64814   0.49999   0.68508   0.00000  Uiso   1.00
O923   O     0.60600   0.50000   0.81492   0.00000  Uiso   1.00
O924   O     0.39400   0.50000   0.68508   0.00000  Uiso   1.00
C925   C     0.99998   0.42071   0.75002   0.00000  Uiso   1.00
C926   C     0.70925   0.35463   0.74957   0.00000  Uiso   1.00
C927   C     0.66669   0.62392   0.74996   0.00000  Uiso   1.00
C928   C     0.99998   0.37608   0.75004   0.00000  Uiso   1.00
C929   C     0.85340   0.46671   0.76513   0.00000  Uiso   1.00
C930   C     0.81326   0.53329   0.73487   0.00000  Uiso   1.00
C931   C     0.80388   0.46677   0.76528   0.00000  Uiso   1.00
C932   C     0.86278   0.53323   0.73472   0.00000  Uiso   1.00
C933   C     0.97249   0.49714   0.83590   0.00000  Uiso   1.00
C934   C     0.69418   0.50286   0.66410   0.00000  Uiso   1.00
C935   C     0.95677   0.49114   0.88487   0.00000  Uiso   1.00
C936   C     0.66669   0.57929   0.74997   0.00000  Uiso   1.00
C937   C     0.70989   0.50885   0.61512   0.00000  Uiso   1.00
C938   C     0.97358   0.48074   0.95594   0.00000  Uiso   1.00
C939   C     0.69308   0.51924   0.54405   0.00000  Uiso   1.00
C940   C     0.99050   0.48717   0.91023   0.00000  Uiso   1.00
C941   C     0.67616   0.51280   0.58977   0.00000  Uiso   1.00
C942   C     0.90658   0.48741   0.90702   0.00000  Uiso   1.00
C943   C     0.76008   0.51259   0.59298   0.00000  Uiso   1.00
C944   C     0.89022   0.49186   0.95346   0.00000  Uiso   1.00
C945   C     0.77644   0.50813   0.54654   0.00000  Uiso   1.00
C946   C     0.92398   0.48413   0.97782   0.00000  Uiso   1.00
C947   C     0.85864   0.48328   0.54574   0.00000  Uiso   1.00
C948   C     0.74268   0.51585   0.52218   0.00000  Uiso   1.00
C949   C     0.84115   0.50166   0.97652   0.00000  Uiso   1.00
C950   C     0.82551   0.49834   0.52348   0.00000  Uiso   1.00
C951   C     0.79193   0.53283   0.61516   0.00000  Uiso   1.00
C952   C     0.87473   0.46716   0.88484   0.00000  Uiso   1.00
C953   C     0.95753   0.51335   0.60959   0.00000  Uiso   1.00
C954   C     0.70913   0.48659   0.89041   0.00000  Uiso   1.00
C955   C     0.80802   0.51671   0.95426   0.00000  Uiso   1.00
C956   C     0.90751   0.47804   0.52350   0.00000  Uiso   1.00
C957   C     0.75915   0.52194   0.97649   0.00000  Uiso   1.00
C958   C     0.95739   0.35461   0.75048   0.00000  Uiso   1.00
C959   C     0.70927   0.64539   0.74952   0.00000  Uiso   1.00
C960   C     0.95741   0.64537   0.75043   0.00000  Uiso   1.00
Cu961  Cu    0.71355   0.50001   0.75000   0.00000  Uiso   1.00
Cu962  Cu    0.95311   0.49999   0.75000   0.00000  Uiso   1.00
H963   H     0.93237   0.46827   0.54197   0.00000  Uiso   1.00
H964   H     0.74256   0.37064   0.74921   0.00000  Uiso   1.00
H965   H     0.86802   0.43993   0.77734   0.00000  Uiso   1.00
H966   H     0.79865   0.56007   0.72266   0.00000  Uiso   1.00
H967   H     0.78161   0.44018   0.77795   0.00000  Uiso   1.00
H968   H     0.88506   0.55983   0.72205   0.00000  Uiso   1.00
H969   H     0.73428   0.53170   0.95803   0.00000  Uiso   1.00
H970   H     0.99932   0.47396   0.97459   0.00000  Uiso   1.00
H971   H     0.66734   0.52600   0.52541   0.00000  Uiso   1.00
H972   H     0.84733   0.47525   0.58054   0.00000  Uiso   1.00
H973   H     0.81933   0.52474   0.91946   0.00000  Uiso   1.00
H974   H     0.92407   0.37060   0.75086   0.00000  Uiso   1.00
H975   H     0.74260   0.62940   0.74913   0.00000  Uiso   1.00
H976   H     0.92411   0.62936   0.75079   0.00000  Uiso   1.00
N977   N     0.78403   0.50001   0.74999   0.00000  Uiso   1.00
N978   N     0.88264   0.49999   0.75001   0.00000  Uiso   1.00
N979   N     0.81724   0.54948   0.63254   0.00000  Uiso   1.00
N980   N     0.84943   0.45050   0.86746   0.00000  Uiso   1.00
N981   N     0.91589   0.51373   0.62555   0.00000  Uiso   1.00
N982   N     0.75077   0.48619   0.87446   0.00000  Uiso   1.00
O983   O     0.70625   0.43989   0.75000   0.00000  Uiso   1.00
O984   O     0.96042   0.56011   0.75000   0.00000  Uiso   1.00
O985   O     0.96039   0.43988   0.75000   0.00000  Uiso   1.00
O986   O     0.70628   0.56012   0.74999   0.00000  Uiso   1.00
O987   O     0.68519   0.50001   0.81491   0.00000  Uiso   1.00
O988   O     0.98148   0.49999   0.68508   0.00000  Uiso   1.00
O989   O     0.93933   0.50000   0.81492   0.00000  Uiso   1.00
O990   O     0.72733   0.50000   0.68508   0.00000  Uiso   1.00
C991   C     0.33331   0.75405   0.75002   0.00000  Uiso   1.00
C992   C     0.04259   0.68796   0.74957   0.00000  Uiso   1.00
C993   C     0.00002   0.95725   0.74996   0.00000  Uiso   1.00
C994   C     0.33331   0.70942   0.75004   0.00000  Uiso   1.00
C995   C     0.18674   0.80004   0.76513   0.00000  Uiso   1.00
C996   C     0.14660   0.86663   0.73487   0.00000  Uiso   1.00
C997   C     0.13722   0.80010   0.76528   0.00000  Uiso   1.00
C998   C     0.19612   0.86656   0.73472   0.00000  Uiso   1.00
C999   C     0.30582   0.83047   0.83590   0.00000  Uiso   1.00
C1000  C     0.02751   0.83619   0.66410   0.00000  Uiso   1.00
C1001  C     0.29010   0.82448   0.88487   0.00000  Uiso   1.00
C1002  C     0.00002   0.91262   0.74997   0.00000  Uiso   1.00
C1003  C     0.04323   0.84218   0.61512   0.00000  Uiso   1.00
C1004  C     0.30691   0.81407   0.95594   0.00000  Uiso   1.00
C1005  C     0.02642   0.85257   0.54405   0.00000  Uiso   1.00
C1006  C     0.32384   0.82051   0.91023   0.00000  Uiso   1.00
C1007  C     0.00949   0.84614   0.58977   0.00000  Uiso   1.00
C1008  C     0.23991   0.82074   0.90702   0.00000  Uiso   1.00
C1009  C     0.09342   0.84592   0.59298   0.00000  Uiso   1.00
C1010  C     0.22356   0.82520   0.95346   0.00000  Uiso   1.00
C1011  C     0.10977   0.84146   0.54654   0.00000  Uiso   1.00
C1012  C     0.25731   0.81746   0.97782   0.00000  Uiso   1.00
C1013  C     0.19198   0.81661   0.54574   0.00000  Uiso   1.00
C1014  C     0.07602   0.84919   0.52218   0.00000  Uiso   1.00
C1015  C     0.17448   0.83499   0.97652   0.00000  Uiso   1.00
C1016  C     0.15885   0.83167   0.52348   0.00000  Uiso   1.00
C1017  C     0.12526   0.86616   0.61516   0.00000  Uiso   1.00
C1018  C     0.20807   0.80050   0.88484   0.00000  Uiso   1.00
C1019  C     0.29086   0.84669   0.60959   0.00000  Uiso   1.00
C1020  C     0.04246   0.81993   0.89041   0.00000  Uiso   1.00
C1021  C     0.14135   0.85004   0.95426   0.00000  Uiso   1.00
C1022  C     0.24085   0.81137   0.52350   0.00000  Uiso   1.00
C1023  C     0.09248   0.85528   0.97649   0.00000  Uiso   1.00
C1024  C     0.29073   0.68794   0.75048   0.00000  Uiso   1.00
C1025  C     0.04261   0.97872   0.74952   0.00000  Uiso   1.00
C1026  C     0.29075   0.97870   0.75043   0.00000  Uiso   1.00
Cu1027 Cu    0.04689   0.83334   0.75000   0.00000  Uiso   1.00
Cu1028 Cu    0.28645   0.83333   0.75000   0.00000  Uiso   1.00
H1029  H     0.26571   0.80160   0.54197   0.00000  Uiso   1.00
H1030  H     0.07589   0.70397   0.74921   0.00000  Uiso   1.00
H1031  H     0.20135   0.77326   0.77734   0.00000  Uiso   1.00
H1032  H     0.13198   0.89340   0.72266   0.00000  Uiso   1.00
H1033  H     0.11494   0.77351   0.77795   0.00000  Uiso   1.00
H1034  H     0.21839   0.89316   0.72205   0.00000  Uiso   1.00
H1035  H     0.06762   0.86504   0.95803   0.00000  Uiso   1.00
H1036  H     0.33266   0.80729   0.97459   0.00000  Uiso   1.00
H1037  H     0.00067   0.85934   0.52541   0.00000  Uiso   1.00
H1038  H     0.18066   0.80858   0.58054   0.00000  Uiso   1.00
H1039  H     0.15266   0.85807   0.91946   0.00000  Uiso   1.00
H1040  H     0.25741   0.70393   0.75086   0.00000  Uiso   1.00
H1041  H     0.07593   0.96273   0.74913   0.00000  Uiso   1.00
H1042  H     0.25744   0.96269   0.75079   0.00000  Uiso   1.00
N1043  N     0.11736   0.83334   0.74999   0.00000  Uiso   1.00
N1044  N     0.21597   0.83332   0.75001   0.00000  Uiso   1.00
N1045  N     0.15057   0.88282   0.63254   0.00000  Uiso   1.00
N1046  N     0.18276   0.78383   0.86746   0.00000  Uiso   1.00
N1047  N     0.24922   0.84706   0.62555   0.00000  Uiso   1.00
N1048  N     0.08410   0.81953   0.87446   0.00000  Uiso   1.00
O1049  O     0.03958   0.77322   0.75000   0.00000  Uiso   1.00
O1050  O     0.29375   0.89345   0.75000   0.00000  Uiso   1.00
O1051  O     0.29372   0.77321   0.75000   0.00000  Uiso   1.00
O1052  O     0.03961   0.89346   0.74999   0.00000  Uiso   1.00
O1053  O     0.01852   0.83334   0.81491   0.00000  Uiso   1.00
O1054  O     0.31481   0.83332   0.68508   0.00000  Uiso   1.00
O1055  O     0.27267   0.83333   0.81492   0.00000  Uiso   1.00
O1056  O     0.06067   0.83333   0.68508   0.00000  Uiso   1.00
C1057  C     0.66665   0.75405   0.75002   0.00000  Uiso   1.00
C1058  C     0.37592   0.68796   0.74957   0.00000  Uiso   1.00
C1059  C     0.33335   0.95725   0.74996   0.00000  Uiso   1.00
C1060  C     0.66665   0.70942   0.75004   0.00000  Uiso   1.00
C1061  C     0.52007   0.80004   0.76513   0.00000  Uiso   1.00
C1062  C     0.47993   0.86663   0.73487   0.00000  Uiso   1.00
C1063  C     0.47055   0.80010   0.76528   0.00000  Uiso   1.00
C1064  C     0.52945   0.86656   0.73472   0.00000  Uiso   1.00
C1065  C     0.63915   0.83047   0.83590   0.00000  Uiso   1.00
C1066  C     0.36085   0.83619   0.66410   0.00000  Uiso   1.00
C1067  C     0.62344   0.82448   0.88487   0.00000  Uiso   1.00
C1068  C     0.33335   0.91262   0.74997   0.00000  Uiso   1.00
C1069  C     0.37656   0.84218   0.61512   0.00000  Uiso   1.00
C1070  C     0.64025   0.81407   0.95594   0.00000  Uiso   1.00
C1071  C     0.35975   0.85257   0.54405   0.00000  Uiso   1.00
C1072  C     0.65717   0.82051   0.91023   0.00000  Uiso   1.00
C1073  C     0.34283   0.84614   0.58977   0.00000  Uiso   1.00
C1074  C     0.57325   0.82074   0.90702   0.00000  Uiso   1.00
C1075  C     0.42675   0.84592   0.59298   0.00000  Uiso   1.00
C1076  C     0.55689   0.82520   0.95346   0.00000  Uiso   1.00
C1077  C     0.44311   0.84146   0.54654   0.00000  Uiso   1.00
C1078  C     0.59065   0.81746   0.97782   0.00000  Uiso   1.00
C1079  C     0.52531   0.81661   0.54574   0.00000  Uiso   1.00
C1080  C     0.40935   0.84919   0.52218   0.00000  Uiso   1.00
C1081  C     0.50781   0.83499   0.97652   0.00000  Uiso   1.00
C1082  C     0.49218   0.83167   0.52348   0.00000  Uiso   1.00
C1083  C     0.45860   0.86616   0.61516   0.00000  Uiso   1.00
C1084  C     0.54140   0.80050   0.88484   0.00000  Uiso   1.00
C1085  C     0.62420   0.84669   0.60959   0.00000  Uiso   1.00
C1086  C     0.37579   0.81993   0.89041   0.00000  Uiso   1.00
C1087  C     0.47468   0.85004   0.95426   0.00000  Uiso   1.00
C1088  C     0.57418   0.81137   0.52350   0.00000  Uiso   1.00
C1089  C     0.42581   0.85528   0.97649   0.00000  Uiso   1.00
C1090  C     0.62406   0.68794   0.75048   0.00000  Uiso   1.00
C1091  C     0.37594   0.97872   0.74952   0.00000  Uiso   1.00
C1092  C     0.62408   0.97870   0.75043   0.00000  Uiso   1.00
Cu1093 Cu    0.38022   0.83334   0.75000   0.00000  Uiso   1.00
Cu1094 Cu    0.61978   0.83333   0.75000   0.00000  Uiso   1.00
H1095  H     0.59904   0.80160   0.54197   0.00000  Uiso   1.00
H1096  H     0.40923   0.70397   0.74921   0.00000  Uiso   1.00
H1097  H     0.53469   0.77326   0.77734   0.00000  Uiso   1.00
H1098  H     0.46531   0.89340   0.72266   0.00000  Uiso   1.00
H1099  H     0.44827   0.77351   0.77795   0.00000  Uiso   1.00
H1100  H     0.55173   0.89316   0.72205   0.00000  Uiso   1.00
H1101  H     0.40095   0.86504   0.95803   0.00000  Uiso   1.00
H1102  H     0.66599   0.80729   0.97459   0.00000  Uiso   1.00
H1103  H     0.33400   0.85934   0.52541   0.00000  Uiso   1.00
H1104  H     0.51399   0.80858   0.58054   0.00000  Uiso   1.00
H1105  H     0.48600   0.85807   0.91946   0.00000  Uiso   1.00
H1106  H     0.59074   0.70393   0.75086   0.00000  Uiso   1.00
H1107  H     0.40926   0.96273   0.74913   0.00000  Uiso   1.00
H1108  H     0.59077   0.96269   0.75079   0.00000  Uiso   1.00
N1109  N     0.45069   0.83334   0.74999   0.00000  Uiso   1.00
N1110  N     0.54931   0.83332   0.75001   0.00000  Uiso   1.00
N1111  N     0.48390   0.88282   0.63254   0.00000  Uiso   1.00
N1112  N     0.51610   0.78383   0.86746   0.00000  Uiso   1.00
N1113  N     0.58255   0.84706   0.62555   0.00000  Uiso   1.00
N1114  N     0.41743   0.81953   0.87446   0.00000  Uiso   1.00
O1115  O     0.37291   0.77322   0.75000   0.00000  Uiso   1.00
O1116  O     0.62709   0.89345   0.75000   0.00000  Uiso   1.00
O1117  O     0.62706   0.77321   0.75000   0.00000  Uiso   1.00
O1118  O     0.37294   0.89346   0.74999   0.00000  Uiso   1.00
O1119  O     0.35186   0.83334   0.81491   0.00000  Uiso   1.00
O1120  O     0.64814   0.83332   0.68508   0.00000  Uiso   1.00
O1121  O     0.60600   0.83333   0.81492   0.00000  Uiso   1.00
O1122  O     0.39400   0.83333   0.68508   0.00000  Uiso   1.00
C1123  C     0.99998   0.75405   0.75002   0.00000  Uiso   1.00
C1124  C     0.70925   0.68796   0.74957   0.00000  Uiso   1.00
C1125  C     0.66669   0.95725   0.74996   0.00000  Uiso   1.00
C1126  C     0.99998   0.70942   0.75004   0.00000  Uiso   1.00
C1127  C     0.85340   0.80004   0.76513   0.00000  Uiso   1.00
C1128  C     0.81326   0.86663   0.73487   0.00000  Uiso   1.00
C1129  C     0.80388   0.80010   0.76528   0.00000  Uiso   1.00
C1130  C     0.86278   0.86656   0.73472   0.00000  Uiso   1.00
C1131  C     0.97249   0.83047   0.83590   0.00000  Uiso   1.00
C1132  C     0.69418   0.83619   0.66410   0.00000  Uiso   1.00
C1133  C     0.95677   0.82448   0.88487   0.00000  Uiso   1.00
C1134  C     0.66669   0.91262   0.74997   0.00000  Uiso   1.00
C1135  C     0.70989   0.84218   0.61512   0.00000  Uiso   1.00
C1136  C     0.97358   0.81407   0.95594   0.00000  Uiso   1.00
C1137  C     0.69308   0.85257   0.54405   0.00000  Uiso   1.00
C1138  C     0.99050   0.82051   0.91023   0.00000  Uiso   1.00
C1139  C     0.67616   0.84614   0.58977   0.00000  Uiso   1.00
C1140  C     0.90658   0.82074   0.90702   0.00000  Uiso   1.00
C1141  C     0.76008   0.84592   0.59298   0.00000  Uiso   1.00
C1142  C     0.89022   0.82520   0.95346   0.00000  Uiso   1.00
C1143  C     0.77644   0.84146   0.54654   0.00000  Uiso   1.00
C1144  C     0.92398   0.81746   0.97782   0.00000  Uiso   1.00
C1145  C     0.85864   0.81661   0.54574   0.00000  Uiso   1.00
C1146  C     0.74268   0.84919   0.52218   0.00000  Uiso   1.00
C1147  C     0.84115   0.83499   0.97652   0.00000  Uiso   1.00
C1148  C     0.82551   0.83167   0.52348   0.00000  Uiso   1.00
C1149  C     0.79193   0.86616   0.61516   0.00000  Uiso   1.00
C1150  C     0.87473   0.80050   0.88484   0.00000  Uiso   1.00
C1151  C     0.95753   0.84669   0.60959   0.00000  Uiso   1.00
C1152  C     0.70913   0.81993   0.89041   0.00000  Uiso   1.00
C1153  C     0.80802   0.85004   0.95426   0.00000  Uiso   1.00
C1154  C     0.90751   0.81137   0.52350   0.00000  Uiso   1.00
C1155  C     0.75915   0.85528   0.97649   0.00000  Uiso   1.00
C1156  C     0.95739   0.68794   0.75048   0.00000  Uiso   1.00
C1157  C     0.70927   0.97872   0.74952   0.00000  Uiso   1.00
C1158  C     0.95741   0.97870   0.75043   0.00000  Uiso   1.00
Cu1159 Cu    0.71355   0.83334   0.75000   0.00000  Uiso   1.00
Cu1160 Cu    0.95311   0.83333   0.75000   0.00000  Uiso   1.00
H1161  H     0.93237   0.80160   0.54197   0.00000  Uiso   1.00
H1162  H     0.74256   0.70397   0.74921   0.00000  Uiso   1.00
H1163  H     0.86802   0.77326   0.77734   0.00000  Uiso   1.00
H1164  H     0.79865   0.89340   0.72266   0.00000  Uiso   1.00
H1165  H     0.78161   0.77351   0.77795   0.00000  Uiso   1.00
H1166  H     0.88506   0.89316   0.72205   0.00000  Uiso   1.00
H1167  H     0.73428   0.86504   0.95803   0.00000  Uiso   1.00
H1168  H     0.99932   0.80729   0.97459   0.00000  Uiso   1.00
H1169  H     0.66734   0.85934   0.52541   0.00000  Uiso   1.00
H1170  H     0.84733   0.80858   0.58054   0.00000  Uiso   1.00
H1171  H     0.81933   0.85807   0.91946   0.00000  Uiso   1.00
H1172  H     0.92407   0.70393   0.75086   0.00000  Uiso   1.00
H1173  H     0.74260   0.96273   0.74913   0.00000  Uiso   1.00
H1174  H     0.92411   0.96269   0.75079   0.00000  Uiso   1.00
N1175  N     0.78403   0.83334   0.74999   0.00000  Uiso   1.00
N1176  N     0.88264   0.83332   0.75001   0.00000  Uiso   1.00
N1177  N     0.81724   0.88282   0.63254   0.00000  Uiso   1.00
N1178  N     0.84943   0.78383   0.86746   0.00000  Uiso   1.00
N1179  N     0.91589   0.84706   0.62555   0.00000  Uiso   1.00
N1180  N     0.75077   0.81953   0.87446   0.00000  Uiso   1.00
O1181  O     0.70625   0.77322   0.75000   0.00000  Uiso   1.00
O1182  O     0.96042   0.89345   0.75000   0.00000  Uiso   1.00
O1183  O     0.96039   0.77321   0.75000   0.00000  Uiso   1.00
O1184  O     0.70628   0.89346   0.74999   0.00000  Uiso   1.00
O1185  O     0.68519   0.83334   0.81491   0.00000  Uiso   1.00
O1186  O     0.98148   0.83332   0.68508   0.00000  Uiso   1.00
O1187  O     0.93933   0.83333   0.81492   0.00000  Uiso   1.00
O1188  O     0.72733   0.83333   0.68508   0.00000  Uiso   1.00
loop_
_geom_bond_atom_site_label_1
_geom_bond_atom_site_label_2
_geom_bond_distance
_geom_bond_site_symmetry_2
_ccdc_geom_bond_type
C1     C4      1.450   .     S
C1     O61     1.293   .     A
C1     O125    1.293   .     S
C2     H40     1.083   .     S
C2     C136    1.401   1_455 S
C2     C431    1.384   1_545 S
C3     C35     1.401   .     A
C3     C12     1.450   .     S
C3     C168    1.401   1_455 S
C4     C34     1.401   .     A
C4     C68     1.401   .     S
C5     N54     1.367   .     A
C5     C7      1.416   .     A
C5     H41     1.080   .     S
C6     N53     1.367   .     A
C6     C8      1.416   .     A
C6     H42     1.080   .     S
C7     H43     1.081   .     S
C7     N53     1.367   .     A
C8     N54     1.367   .     A
C8     H44     1.081   .     S
C9     O65     1.301   .     A
C9     C11     1.488   .     S
C9     O129    1.301   .     S
C10    O66     1.301   .     A
C10    C13     1.488   .     S
C10    O196    1.301   1_455 S
C11    C18     1.415   .     A
C11    C16     1.418   .     A
C12    O62     1.293   .     A
C12    O192    1.293   1_455 S
C13    C17     1.418   .     A
C13    C19     1.415   .     A
C14    C22     1.398   .     A
C14    H46     1.084   .     S
C14    C16     1.395   .     A
C15    C24     1.398   .     A
C15    C17     1.395   .     A
C15    H47     1.084   .     S
C16    C96     1.443   .     S
C17    C161    1.443   1_455 S
C18    C20     1.409   .     A
C18    C28     1.451   .     S
C19    C27     1.451   .     S
C19    C21     1.409   .     A
C20    C22     1.412   .     A
C20    C25     1.425   .     A
C21    C26     1.425   .     A
C21    C24     1.412   .     A
C22    C626    1.392   .     S
C23    H48     1.080   .     S
C23    C32     1.388   .     A
C23    C26     1.413   .     A
C24    C627    1.392   1_554 S
C25    C31     1.413   .     A
C25    C620    1.420   .     S
C26    C619    1.420   1_554 S
C27    N55     1.157   .     T
C28    N56     1.157   .     T
C29    N57     1.157   .     T
C29    C83     1.443   .     S
C30    N58     1.157   .     T
C30    C148    1.443   1_455 S
C31    C33     1.388   .     A
C31    H49     1.080   .     S
C32    H39     1.083   .     S
C32    C616    1.392   1_554 S
C33    H45     1.083   .     S
C33    C618    1.392   .     S
C34    H50     1.083   .     S
C34    C432    1.384   1_545 S
C35    H51     1.083   .     S
C35    C200    1.384   .     S
C36    H52     1.083   .     S
C36    C69     1.401   .     S
C36    C232    1.384   .     S
Cu37   N53     2.017   .     S
Cu37   O62     1.965   .     S
Cu37   O66     1.964   .     S
Cu37   O59     1.965   .     S
Cu37   O63     1.971   .     S
Cu37   Cu170   2.684   1_455 S
Cu38   N54     2.017   .     S
Cu38   O65     1.964   .     S
Cu38   O61     1.965   .     S
Cu38   O60     1.965   .     S
Cu38   O64     1.971   .     S
Cu38   Cu103   2.684   .     S
O59    C133    1.293   1_455 S
O60    C78     1.293   .     S
O63    C141    1.301   1_455 S
O64    C76     1.301   .     S
C67    C70     1.450   .     S
C67    O127    1.293   .     A
C67    O191    1.293   .     S
C68    H106    1.083   .     S
C68    C497    1.384   1_545 S
C69    C101    1.401   .     A
C69    C78     1.450   .     S
C70    C100    1.401   .     A
C70    C134    1.401   .     S
C71    N120    1.367   .     A
C71    C73     1.416   .     A
C71    H107    1.080   .     S
C72    N119    1.367   .     A
C72    C74     1.416   .     A
C72    H108    1.080   .     S
C73    H109    1.081   .     S
C73    N119    1.367   .     A
C74    N120    1.367   .     A
C74    H110    1.081   .     S
C75    O131    1.301   .     A
C75    C77     1.488   .     S
C75    O195    1.301   .     S
C76    O132    1.301   .     A
C76    C79     1.488   .     S
C77    C84     1.415   .     A
C77    C82     1.418   .     A
C78    O128    1.293   .     A
C79    C83     1.418   .     A
C79    C85     1.415   .     A
C80    C88     1.398   .     A
C80    H112    1.084   .     S
C80    C82     1.395   .     A
C81    C90     1.398   .     A
C81    C83     1.395   .     A
C81    H113    1.084   .     S
C82    C162    1.443   .     S
C84    C86     1.409   .     A
C84    C94     1.451   .     S
C85    C93     1.451   .     S
C85    C87     1.409   .     A
C86    C88     1.412   .     A
C86    C91     1.425   .     A
C87    C92     1.425   .     A
C87    C90     1.412   .     A
C88    C692    1.392   .     S
C89    H114    1.080   .     S
C89    C98     1.388   .     A
C89    C92     1.413   .     A
C90    C693    1.392   1_554 S
C91    C97     1.413   .     A
C91    C686    1.420   .     S
C92    C685    1.420   1_554 S
C93    N121    1.157   .     T
C94    N122    1.157   .     T
C95    N123    1.157   .     T
C95    C149    1.443   .     S
C96    N124    1.157   .     T
C97    C99     1.388   .     A
C97    H115    1.080   .     S
C98    H105    1.083   .     S
C98    C682    1.392   1_554 S
C99    H111    1.083   .     S
C99    C684    1.392   .     S
C100   H116    1.083   .     S
C100   C498    1.384   1_545 S
C101   H117    1.083   .     S
C101   C266    1.384   .     S
C102   H118    1.083   .     S
C102   C135    1.401   .     S
C102   C298    1.384   .     S
Cu103  N119    2.017   .     S
Cu103  O128    1.965   .     S
Cu103  O132    1.964   .     S
Cu103  O125    1.965   .     S
Cu103  O129    1.971   .     S
Cu104  N120    2.017   .     S
Cu104  O131    1.964   .     S
Cu104  O127    1.965   .     S
Cu104  O126    1.965   .     S
Cu104  O130    1.971   .     S
Cu104  Cu169   2.684   .     S
O126   C144    1.293   .     S
O130   C142    1.301   .     S
C133   C136    1.450   .     S
C133   O193    1.293   .     A
C133   O59     1.293   1_655 S
C134   H172    1.083   .     S
C134   C563    1.384   1_545 S
C135   C167    1.401   .     A
C135   C144    1.450   .     S
C136   C166    1.401   .     A
C136   C2      1.401   1_655 S
C137   N186    1.367   .     A
C137   C139    1.416   .     A
C137   H173    1.080   .     S
C138   N185    1.367   .     A
C138   C140    1.416   .     A
C138   H174    1.080   .     S
C139   H175    1.081   .     S
C139   N185    1.367   .     A
C140   N186    1.367   .     A
C140   H176    1.081   .     S
C141   O197    1.301   .     A
C141   C143    1.488   .     S
C141   O63     1.301   1_655 S
C142   O198    1.301   .     A
C142   C145    1.488   .     S
C143   C150    1.415   .     A
C143   C148    1.418   .     A
C144   O194    1.293   .     A
C145   C149    1.418   .     A
C145   C151    1.415   .     A
C146   C154    1.398   .     A
C146   H178    1.084   .     S
C146   C148    1.395   .     A
C147   C156    1.398   .     A
C147   C149    1.395   .     A
C147   H179    1.084   .     S
C148   C30     1.443   1_655 S
C150   C152    1.409   .     A
C150   C160    1.451   .     S
C151   C159    1.451   .     S
C151   C153    1.409   .     A
C152   C154    1.412   .     A
C152   C157    1.425   .     A
C153   C158    1.425   .     A
C153   C156    1.412   .     A
C154   C758    1.392   .     S
C155   H180    1.080   .     S
C155   C164    1.388   .     A
C155   C158    1.413   .     A
C156   C759    1.392   1_554 S
C157   C163    1.413   .     A
C157   C752    1.420   .     S
C158   C751    1.420   1_554 S
C159   N187    1.157   .     T
C160   N188    1.157   .     T
C161   N189    1.157   .     T
C161   C17     1.443   1_655 S
C162   N190    1.157   .     T
C163   C165    1.388   .     A
C163   H181    1.080   .     S
C164   H171    1.083   .     S
C164   C748    1.392   1_554 S
C165   H177    1.083   .     S
C165   C750    1.392   .     S
C166   H182    1.083   .     S
C166   C564    1.384   1_545 S
C167   H183    1.083   .     S
C167   C332    1.384   .     S
C168   H184    1.083   .     S
C168   C3      1.401   1_655 S
C168   C364    1.384   .     S
Cu169  N185    2.017   .     S
Cu169  O194    1.965   .     S
Cu169  O198    1.964   .     S
Cu169  O191    1.965   .     S
Cu169  O195    1.971   .     S
Cu170  N186    2.017   .     S
Cu170  O197    1.964   .     S
Cu170  O193    1.965   .     S
Cu170  O192    1.965   .     S
Cu170  O196    1.971   .     S
Cu170  Cu37    2.684   1_655 S
O192   C12     1.293   1_655 S
O196   C10     1.301   1_655 S
C199   C202    1.450   .     S
C199   O259    1.293   .     A
C199   O323    1.293   .     S
C200   H238    1.083   .     S
C200   C334    1.401   1_455 S
C201   C233    1.401   .     A
C201   C210    1.450   .     S
C201   C366    1.401   1_455 S
C202   C232    1.401   .     A
C202   C266    1.401   .     S
C203   N252    1.367   .     A
C203   C205    1.416   .     A
C203   H239    1.080   .     S
C204   N251    1.367   .     A
C204   C206    1.416   .     A
C204   H240    1.080   .     S
C205   H241    1.081   .     S
C205   N251    1.367   .     A
C206   N252    1.367   .     A
C206   H242    1.081   .     S
C207   O263    1.301   .     A
C207   C209    1.488   .     S
C207   O327    1.301   .     S
C208   O264    1.301   .     A
C208   C211    1.488   .     S
C208   O394    1.301   1_455 S
C209   C216    1.415   .     A
C209   C214    1.418   .     A
C210   O260    1.293   .     A
C210   O390    1.293   1_455 S
C211   C215    1.418   .     A
C211   C217    1.415   .     A
C212   C220    1.398   .     A
C212   H244    1.084   .     S
C212   C214    1.395   .     A
C213   C222    1.398   .     A
C213   C215    1.395   .     A
C213   H245    1.084   .     S
C214   C294    1.443   .     S
C215   C359    1.443   1_455 S
C216   C218    1.409   .     A
C216   C226    1.451   .     S
C217   C225    1.451   .     S
C217   C219    1.409   .     A
C218   C220    1.412   .     A
C218   C223    1.425   .     A
C219   C224    1.425   .     A
C219   C222    1.412   .     A
C220   C824    1.392   .     S
C221   H246    1.080   .     S
C221   C230    1.388   .     A
C221   C224    1.413   .     A
C222   C825    1.392   1_554 S
C223   C229    1.413   .     A
C223   C818    1.420   .     S
C224   C817    1.420   1_554 S
C225   N253    1.157   .     T
C226   N254    1.157   .     T
C227   N255    1.157   .     T
C227   C281    1.443   .     S
C228   N256    1.157   .     T
C228   C346    1.443   1_455 S
C229   C231    1.388   .     A
C229   H247    1.080   .     S
C230   H237    1.083   .     S
C230   C814    1.392   1_554 S
C231   H243    1.083   .     S
C231   C816    1.392   .     S
C232   H248    1.083   .     S
C233   H249    1.083   .     S
C233   C398    1.384   .     S
C234   H250    1.083   .     S
C234   C267    1.401   .     S
C234   C430    1.384   .     S
Cu235  N251    2.017   .     S
Cu235  O260    1.965   .     S
Cu235  O264    1.964   .     S
Cu235  O257    1.965   .     S
Cu235  O261    1.971   .     S
Cu235  Cu368   2.684   1_455 S
Cu236  N252    2.017   .     S
Cu236  O263    1.964   .     S
Cu236  O259    1.965   .     S
Cu236  O258    1.965   .     S
Cu236  O262    1.971   .     S
Cu236  Cu301   2.684   .     S
O257   C331    1.293   1_455 S
O258   C276    1.293   .     S
O261   C339    1.301   1_455 S
O262   C274    1.301   .     S
C265   C268    1.450   .     S
C265   O325    1.293   .     A
C265   O389    1.293   .     S
C266   H304    1.083   .     S
C267   C299    1.401   .     A
C267   C276    1.450   .     S
C268   C298    1.401   .     A
C268   C332    1.401   .     S
C269   N318    1.367   .     A
C269   C271    1.416   .     A
C269   H305    1.080   .     S
C270   N317    1.367   .     A
C270   C272    1.416   .     A
C270   H306    1.080   .     S
C271   H307    1.081   .     S
C271   N317    1.367   .     A
C272   N318    1.367   .     A
C272   H308    1.081   .     S
C273   O329    1.301   .     A
C273   C275    1.488   .     S
C273   O393    1.301   .     S
C274   O330    1.301   .     A
C274   C277    1.488   .     S
C275   C282    1.415   .     A
C275   C280    1.418   .     A
C276   O326    1.293   .     A
C277   C281    1.418   .     A
C277   C283    1.415   .     A
C278   C286    1.398   .     A
C278   H310    1.084   .     S
C278   C280    1.395   .     A
C279   C288    1.398   .     A
C279   C281    1.395   .     A
C279   H311    1.084   .     S
C280   C360    1.443   .     S
C282   C284    1.409   .     A
C282   C292    1.451   .     S
C283   C291    1.451   .     S
C283   C285    1.409   .     A
C284   C286    1.412   .     A
C284   C289    1.425   .     A
C285   C290    1.425   .     A
C285   C288    1.412   .     A
C286   C890    1.392   .     S
C287   H312    1.080   .     S
C287   C296    1.388   .     A
C287   C290    1.413   .     A
C288   C891    1.392   1_554 S
C289   C295    1.413   .     A
C289   C884    1.420   .     S
C290   C883    1.420   1_554 S
C291   N319    1.157   .     T
C292   N320    1.157   .     T
C293   N321    1.157   .     T
C293   C347    1.443   .     S
C294   N322    1.157   .     T
C295   C297    1.388   .     A
C295   H313    1.080   .     S
C296   H303    1.083   .     S
C296   C880    1.392   1_554 S
C297   H309    1.083   .     S
C297   C882    1.392   .     S
C298   H314    1.083   .     S
C299   H315    1.083   .     S
C299   C464    1.384   .     S
C300   H316    1.083   .     S
C300   C333    1.401   .     S
C300   C496    1.384   .     S
Cu301  N317    2.017   .     S
Cu301  O326    1.965   .     S
Cu301  O330    1.964   .     S
Cu301  O323    1.965   .     S
Cu301  O327    1.971   .     S
Cu302  N318    2.017   .     S
Cu302  O329    1.964   .     S
Cu302  O325    1.965   .     S
Cu302  O324    1.965   .     S
Cu302  O328    1.971   .     S
Cu302  Cu367   2.684   .     S
O324   C342    1.293   .     S
O328   C340    1.301   .     S
C331   C334    1.450   .     S
C331   O391    1.293   .     A
C331   O257    1.293   1_655 S
C332   H370    1.083   .     S
C333   C365    1.401   .     A
C333   C342    1.450   .     S
C334   C364    1.401   .     A
C334   C200    1.401   1_655 S
C335   N384    1.367   .     A
C335   C337    1.416   .     A
C335   H371    1.080   .     S
C336   N383    1.367   .     A
C336   C338    1.416   .     A
C336   H372    1.080   .     S
C337   H373    1.081   .     S
C337   N383    1.367   .     A
C338   N384    1.367   .     A
C338   H374    1.081   .     S
C339   O395    1.301   .     A
C339   C341    1.488   .     S
C339   O261    1.301   1_655 S
C340   O396    1.301   .     A
C340   C343    1.488   .     S
C341   C348    1.415   .     A
C341   C346    1.418   .     A
C342   O392    1.293   .     A
C343   C347    1.418   .     A
C343   C349    1.415   .     A
C344   C352    1.398   .     A
C344   H376    1.084   .     S
C344   C346    1.395   .     A
C345   C354    1.398   .     A
C345   C347    1.395   .     A
C345   H377    1.084   .     S
C346   C228    1.443   1_655 S
C348   C350    1.409   .     A
C348   C358    1.451   .     S
C349   C357    1.451   .     S
C349   C351    1.409   .     A
C350   C352    1.412   .     A
C350   C355    1.425   .     A
C351   C356    1.425   .     A
C351   C354    1.412   .     A
C352   C956    1.392   .     S
C353   H378    1.080   .     S
C353   C362    1.388   .     A
C353   C356    1.413   .     A
C354   C957    1.392   1_554 S
C355   C361    1.413   .     A
C355   C950    1.420   .     S
C356   C949    1.420   1_554 S
C357   N385    1.157   .     T
C358   N386    1.157   .     T
C359   N387    1.157   .     T
C359   C215    1.443   1_655 S
C360   N388    1.157   .     T
C361   C363    1.388   .     A
C361   H379    1.080   .     S
C362   H369    1.083   .     S
C362   C946    1.392   1_554 S
C363   H375    1.083   .     S
C363   C948    1.392   .     S
C364   H380    1.083   .     S
C365   H381    1.083   .     S
C365   C530    1.384   .     S
C366   H382    1.083   .     S
C366   C201    1.401   1_655 S
C366   C562    1.384   .     S
Cu367  N383    2.017   .     S
Cu367  O392    1.965   .     S
Cu367  O396    1.964   .     S
Cu367  O389    1.965   .     S
Cu367  O393    1.971   .     S
Cu368  N384    2.017   .     S
Cu368  O395    1.964   .     S
Cu368  O391    1.965   .     S
Cu368  O390    1.965   .     S
Cu368  O394    1.971   .     S
Cu368  Cu235   2.684   1_655 S
O390   C210    1.293   1_655 S
O394   C208    1.301   1_655 S
C397   C400    1.450   .     S
C397   O457    1.293   .     A
C397   O521    1.293   .     S
C398   H436    1.083   .     S
C398   C532    1.401   1_455 S
C399   C431    1.401   .     A
C399   C408    1.450   .     S
C399   C564    1.401   1_455 S
C400   C430    1.401   .     A
C400   C464    1.401   .     S
C401   N450    1.367   .     A
C401   C403    1.416   .     A
C401   H437    1.080   .     S
C402   N449    1.367   .     A
C402   C404    1.416   .     A
C402   H438    1.080   .     S
C403   H439    1.081   .     S
C403   N449    1.367   .     A
C404   N450    1.367   .     A
C404   H440    1.081   .     S
C405   O461    1.301   .     A
C405   C407    1.488   .     S
C405   O525    1.301   .     S
C406   O462    1.301   .     A
C406   C409    1.488   .     S
C406   O592    1.301   1_455 S
C407   C414    1.415   .     A
C407   C412    1.418   .     A
C408   O458    1.293   .     A
C408   O588    1.293   1_455 S
C409   C413    1.418   .     A
C409   C415    1.415   .     A
C410   C418    1.398   .     A
C410   H442    1.084   .     S
C410   C412    1.395   .     A
C411   C420    1.398   .     A
C411   C413    1.395   .     A
C411   H443    1.084   .     S
C412   C492    1.443   .     S
C413   C557    1.443   1_455 S
C414   C416    1.409   .     A
C414   C424    1.451   .     S
C415   C423    1.451   .     S
C415   C417    1.409   .     A
C416   C418    1.412   .     A
C416   C421    1.425   .     A
C417   C422    1.425   .     A
C417   C420    1.412   .     A
C418   C1022   1.392   .     S
C419   H444    1.080   .     S
C419   C428    1.388   .     A
C419   C422    1.413   .     A
C420   C1023   1.392   1_554 S
C421   C427    1.413   .     A
C421   C1016   1.420   .     S
C422   C1015   1.420   1_554 S
C423   N451    1.157   .     T
C424   N452    1.157   .     T
C425   N453    1.157   .     T
C425   C479    1.443   .     S
C426   N454    1.157   .     T
C426   C544    1.443   1_455 S
C427   C429    1.388   .     A
C427   H445    1.080   .     S
C428   H435    1.083   .     S
C428   C1012   1.392   1_554 S
C429   H441    1.083   .     S
C429   C1014   1.392   .     S
C430   H446    1.083   .     S
C431   H447    1.083   .     S
C431   C2      1.384   1_565 S
C432   H448    1.083   .     S
C432   C465    1.401   .     S
C432   C34     1.384   1_565 S
Cu433  N449    2.017   .     S
Cu433  O458    1.965   .     S
Cu433  O462    1.964   .     S
Cu433  O455    1.965   .     S
Cu433  O459    1.971   .     S
Cu433  Cu566   2.684   1_455 S
Cu434  N450    2.017   .     S
Cu434  O461    1.964   .     S
Cu434  O457    1.965   .     S
Cu434  O456    1.965   .     S
Cu434  O460    1.971   .     S
Cu434  Cu499   2.684   .     S
O455   C529    1.293   1_455 S
O456   C474    1.293   .     S
O459   C537    1.301   1_455 S
O460   C472    1.301   .     S
C463   C466    1.450   .     S
C463   O523    1.293   .     A
C463   O587    1.293   .     S
C464   H502    1.083   .     S
C465   C497    1.401   .     A
C465   C474    1.450   .     S
C466   C496    1.401   .     A
C466   C530    1.401   .     S
C467   N516    1.367   .     A
C467   C469    1.416   .     A
C467   H503    1.080   .     S
C468   N515    1.367   .     A
C468   C470    1.416   .     A
C468   H504    1.080   .     S
C469   H505    1.081   .     S
C469   N515    1.367   .     A
C470   N516    1.367   .     A
C470   H506    1.081   .     S
C471   O527    1.301   .     A
C471   C473    1.488   .     S
C471   O591    1.301   .     S
C472   O528    1.301   .     A
C472   C475    1.488   .     S
C473   C480    1.415   .     A
C473   C478    1.418   .     A
C474   O524    1.293   .     A
C475   C479    1.418   .     A
C475   C481    1.415   .     A
C476   C484    1.398   .     A
C476   H508    1.084   .     S
C476   C478    1.395   .     A
C477   C486    1.398   .     A
C477   C479    1.395   .     A
C477   H509    1.084   .     S
C478   C558    1.443   .     S
C480   C482    1.409   .     A
C480   C490    1.451   .     S
C481   C489    1.451   .     S
C481   C483    1.409   .     A
C482   C484    1.412   .     A
C482   C487    1.425   .     A
C483   C488    1.425   .     A
C483   C486    1.412   .     A
C484   C1088   1.392   .     S
C485   H510    1.080   .     S
C485   C494    1.388   .     A
C485   C488    1.413   .     A
C486   C1089   1.392   1_554 S
C487   C493    1.413   .     A
C487   C1082   1.420   .     S
C488   C1081   1.420   1_554 S
C489   N517    1.157   .     T
C490   N518    1.157   .     T
C491   N519    1.157   .     T
C491   C545    1.443   .     S
C492   N520    1.157   .     T
C493   C495    1.388   .     A
C493   H511    1.080   .     S
C494   H501    1.083   .     S
C494   C1078   1.392   1_554 S
C495   H507    1.083   .     S
C495   C1080   1.392   .     S
C496   H512    1.083   .     S
C497   H513    1.083   .     S
C497   C68     1.384   1_565 S
C498   H514    1.083   .     S
C498   C531    1.401   .     S
C498   C100    1.384   1_565 S
Cu499  N515    2.017   .     S
Cu499  O524    1.965   .     S
Cu499  O528    1.964   .     S
Cu499  O521    1.965   .     S
Cu499  O525    1.971   .     S
Cu500  N516    2.017   .     S
Cu500  O527    1.964   .     S
Cu500  O523    1.965   .     S
Cu500  O522    1.965   .     S
Cu500  O526    1.971   .     S
Cu500  Cu565   2.684   .     S
O522   C540    1.293   .     S
O526   C538    1.301   .     S
C529   C532    1.450   .     S
C529   O589    1.293   .     A
C529   O455    1.293   1_655 S
C530   H568    1.083   .     S
C531   C563    1.401   .     A
C531   C540    1.450   .     S
C532   C562    1.401   .     A
C532   C398    1.401   1_655 S
C533   N582    1.367   .     A
C533   C535    1.416   .     A
C533   H569    1.080   .     S
C534   N581    1.367   .     A
C534   C536    1.416   .     A
C534   H570    1.080   .     S
C535   H571    1.081   .     S
C535   N581    1.367   .     A
C536   N582    1.367   .     A
C536   H572    1.081   .     S
C537   O593    1.301   .     A
C537   C539    1.488   .     S
C537   O459    1.301   1_655 S
C538   O594    1.301   .     A
C538   C541    1.488   .     S
C539   C546    1.415   .     A
C539   C544    1.418   .     A
C540   O590    1.293   .     A
C541   C545    1.418   .     A
C541   C547    1.415   .     A
C542   C550    1.398   .     A
C542   H574    1.084   .     S
C542   C544    1.395   .     A
C543   C552    1.398   .     A
C543   C545    1.395   .     A
C543   H575    1.084   .     S
C544   C426    1.443   1_655 S
C546   C548    1.409   .     A
C546   C556    1.451   .     S
C547   C555    1.451   .     S
C547   C549    1.409   .     A
C548   C550    1.412   .     A
C548   C553    1.425   .     A
C549   C554    1.425   .     A
C549   C552    1.412   .     A
C550   C1154   1.392   .     S
C551   H576    1.080   .     S
C551   C560    1.388   .     A
C551   C554    1.413   .     A
C552   C1155   1.392   1_554 S
C553   C559    1.413   .     A
C553   C1148   1.420   .     S
C554   C1147   1.420   1_554 S
C555   N583    1.157   .     T
C556   N584    1.157   .     T
C557   N585    1.157   .     T
C557   C413    1.443   1_655 S
C558   N586    1.157   .     T
C559   C561    1.388   .     A
C559   H577    1.080   .     S
C560   H567    1.083   .     S
C560   C1144   1.392   1_554 S
C561   H573    1.083   .     S
C561   C1146   1.392   .     S
C562   H578    1.083   .     S
C563   H579    1.083   .     S
C563   C134    1.384   1_565 S
C564   H580    1.083   .     S
C564   C399    1.401   1_655 S
C564   C166    1.384   1_565 S
Cu565  N581    2.017   .     S
Cu565  O590    1.965   .     S
Cu565  O594    1.964   .     S
Cu565  O587    1.965   .     S
Cu565  O591    1.971   .     S
Cu566  N582    2.017   .     S
Cu566  O593    1.964   .     S
Cu566  O589    1.965   .     S
Cu566  O588    1.965   .     S
Cu566  O592    1.971   .     S
Cu566  Cu433   2.684   1_655 S
O588   C408    1.293   1_655 S
O592   C406    1.301   1_655 S
C595   C598    1.450   .     S
C595   O655    1.293   .     A
C595   O719    1.293   .     S
C596   H634    1.083   .     S
C596   C730    1.401   1_455 S
C596   C1025   1.384   1_545 S
C597   C629    1.401   .     A
C597   C606    1.450   .     S
C597   C762    1.401   1_455 S
C598   C628    1.401   .     A
C598   C662    1.401   .     S
C599   N648    1.367   .     A
C599   C601    1.416   .     A
C599   H635    1.080   .     S
C600   N647    1.367   .     A
C600   C602    1.416   .     A
C600   H636    1.080   .     S
C601   H637    1.081   .     S
C601   N647    1.367   .     A
C602   N648    1.367   .     A
C602   H638    1.081   .     S
C603   O659    1.301   .     A
C603   C605    1.488   .     S
C603   O723    1.301   .     S
C604   O660    1.301   .     A
C604   C607    1.488   .     S
C604   O790    1.301   1_455 S
C605   C612    1.415   .     A
C605   C610    1.418   .     A
C606   O656    1.293   .     A
C606   O786    1.293   1_455 S
C607   C611    1.418   .     A
C607   C613    1.415   .     A
C608   C616    1.398   .     A
C608   H640    1.084   .     S
C608   C610    1.395   .     A
C609   C618    1.398   .     A
C609   C611    1.395   .     A
C609   H641    1.084   .     S
C610   C690    1.443   .     S
C611   C755    1.443   1_455 S
C612   C614    1.409   .     A
C612   C622    1.451   .     S
C613   C621    1.451   .     S
C613   C615    1.409   .     A
C614   C616    1.412   .     A
C614   C619    1.425   .     A
C615   C620    1.425   .     A
C615   C618    1.412   .     A
C616   C32     1.392   1_556 S
C617   H642    1.080   .     S
C617   C626    1.388   .     A
C617   C620    1.413   .     A
C619   C625    1.413   .     A
C619   C26     1.420   1_556 S
C621   N649    1.157   .     T
C622   N650    1.157   .     T
C623   N651    1.157   .     T
C623   C677    1.443   .     S
C624   N652    1.157   .     T
C624   C742    1.443   1_455 S
C625   C627    1.388   .     A
C625   H643    1.080   .     S
C626   H633    1.083   .     S
C627   H639    1.083   .     S
C627   C24     1.392   1_556 S
C628   H644    1.083   .     S
C628   C1026   1.384   1_545 S
C629   H645    1.083   .     S
C629   C794    1.384   .     S
C630   H646    1.083   .     S
C630   C663    1.401   .     S
C630   C826    1.384   .     S
Cu631  N647    2.017   .     S
Cu631  O656    1.965   .     S
Cu631  O660    1.964   .     S
Cu631  O653    1.965   .     S
Cu631  O657    1.971   .     S
Cu631  Cu764   2.684   1_455 S
Cu632  N648    2.017   .     S
Cu632  O659    1.964   .     S
Cu632  O655    1.965   .     S
Cu632  O654    1.965   .     S
Cu632  O658    1.971   .     S
Cu632  Cu697   2.684   .     S
O653   C727    1.293   1_455 S
O654   C672    1.293   .     S
O657   C735    1.301   1_455 S
O658   C670    1.301   .     S
C661   C664    1.450   .     S
C661   O721    1.293   .     A
C661   O785    1.293   .     S
C662   H700    1.083   .     S
C662   C1091   1.384   1_545 S
C663   C695    1.401   .     A
C663   C672    1.450   .     S
C664   C694    1.401   .     A
C664   C728    1.401   .     S
C665   N714    1.367   .     A
C665   C667    1.416   .     A
C665   H701    1.080   .     S
C666   N713    1.367   .     A
C666   C668    1.416   .     A
C666   H702    1.080   .     S
C667   H703    1.081   .     S
C667   N713    1.367   .     A
C668   N714    1.367   .     A
C668   H704    1.081   .     S
C669   O725    1.301   .     A
C669   C671    1.488   .     S
C669   O789    1.301   .     S
C670   O726    1.301   .     A
C670   C673    1.488   .     S
C671   C678    1.415   .     A
C671   C676    1.418   .     A
C672   O722    1.293   .     A
C673   C677    1.418   .     A
C673   C679    1.415   .     A
C674   C682    1.398   .     A
C674   H706    1.084   .     S
C674   C676    1.395   .     A
C675   C684    1.398   .     A
C675   C677    1.395   .     A
C675   H707    1.084   .     S
C676   C756    1.443   .     S
C678   C680    1.409   .     A
C678   C688    1.451   .     S
C679   C687    1.451   .     S
C679   C681    1.409   .     A
C680   C682    1.412   .     A
C680   C685    1.425   .     A
C681   C686    1.425   .     A
C681   C684    1.412   .     A
C682   C98     1.392   1_556 S
C683   H708    1.080   .     S
C683   C692    1.388   .     A
C683   C686    1.413   .     A
C685   C691    1.413   .     A
C685   C92     1.420   1_556 S
C687   N715    1.157   .     T
C688   N716    1.157   .     T
C689   N717    1.157   .     T
C689   C743    1.443   .     S
C690   N718    1.157   .     T
C691   C693    1.388   .     A
C691   H709    1.080   .     S
C692   H699    1.083   .     S
C693   H705    1.083   .     S
C693   C90     1.392   1_556 S
C694   H710    1.083   .     S
C694   C1092   1.384   1_545 S
C695   H711    1.083   .     S
C695   C860    1.384   .     S
C696   H712    1.083   .     S
C696   C729    1.401   .     S
C696   C892    1.384   .     S
Cu697  N713    2.017   .     S
Cu697  O722    1.965   .     S
Cu697  O726    1.964   .     S
Cu697  O719    1.965   .     S
Cu697  O723    1.971   .     S
Cu698  N714    2.017   .     S
Cu698  O725    1.964   .     S
Cu698  O721    1.965   .     S
Cu698  O720    1.965   .     S
Cu698  O724    1.971   .     S
Cu698  Cu763   2.684   .     S
O720   C738    1.293   .     S
O724   C736    1.301   .     S
C727   C730    1.450   .     S
C727   O787    1.293   .     A
C727   O653    1.293   1_655 S
C728   H766    1.083   .     S
C728   C1157   1.384   1_545 S
C729   C761    1.401   .     A
C729   C738    1.450   .     S
C730   C760    1.401   .     A
C730   C596    1.401   1_655 S
C731   N780    1.367   .     A
C731   C733    1.416   .     A
C731   H767    1.080   .     S
C732   N779    1.367   .     A
C732   C734    1.416   .     A
C732   H768    1.080   .     S
C733   H769    1.081   .     S
C733   N779    1.367   .     A
C734   N780    1.367   .     A
C734   H770    1.081   .     S
C735   O791    1.301   .     A
C735   C737    1.488   .     S
C735   O657    1.301   1_655 S
C736   O792    1.301   .     A
C736   C739    1.488   .     S
C737   C744    1.415   .     A
C737   C742    1.418   .     A
C738   O788    1.293   .     A
C739   C743    1.418   .     A
C739   C745    1.415   .     A
C740   C748    1.398   .     A
C740   H772    1.084   .     S
C740   C742    1.395   .     A
C741   C750    1.398   .     A
C741   C743    1.395   .     A
C741   H773    1.084   .     S
C742   C624    1.443   1_655 S
C744   C746    1.409   .     A
C744   C754    1.451   .     S
C745   C753    1.451   .     S
C745   C747    1.409   .     A
C746   C748    1.412   .     A
C746   C751    1.425   .     A
C747   C752    1.425   .     A
C747   C750    1.412   .     A
C748   C164    1.392   1_556 S
C749   H774    1.080   .     S
C749   C758    1.388   .     A
C749   C752    1.413   .     A
C751   C757    1.413   .     A
C751   C158    1.420   1_556 S
C753   N781    1.157   .     T
C754   N782    1.157   .     T
C755   N783    1.157   .     T
C755   C611    1.443   1_655 S
C756   N784    1.157   .     T
C757   C759    1.388   .     A
C757   H775    1.080   .     S
C758   H765    1.083   .     S
C759   H771    1.083   .     S
C759   C156    1.392   1_556 S
C760   H776    1.083   .     S
C760   C1158   1.384   1_545 S
C761   H777    1.083   .     S
C761   C926    1.384   .     S
C762   H778    1.083   .     S
C762   C597    1.401   1_655 S
C762   C958    1.384   .     S
Cu763  N779    2.017   .     S
Cu763  O788    1.965   .     S
Cu763  O792    1.964   .     S
Cu763  O785    1.965   .     S
Cu763  O789    1.971   .     S
Cu764  N780    2.017   .     S
Cu764  O791    1.964   .     S
Cu764  O787    1.965   .     S
Cu764  O786    1.965   .     S
Cu764  O790    1.971   .     S
Cu764  Cu631   2.684   1_655 S
O786   C606    1.293   1_655 S
O790   C604    1.301   1_655 S
C793   C796    1.450   .     S
C793   O853    1.293   .     A
C793   O917    1.293   .     S
C794   H832    1.083   .     S
C794   C928    1.401   1_455 S
C795   C827    1.401   .     A
C795   C804    1.450   .     S
C795   C960    1.401   1_455 S
C796   C826    1.401   .     A
C796   C860    1.401   .     S
C797   N846    1.367   .     A
C797   C799    1.416   .     A
C797   H833    1.080   .     S
C798   N845    1.367   .     A
C798   C800    1.416   .     A
C798   H834    1.080   .     S
C799   H835    1.081   .     S
C799   N845    1.367   .     A
C800   N846    1.367   .     A
C800   H836    1.081   .     S
C801   O857    1.301   .     A
C801   C803    1.488   .     S
C801   O921    1.301   .     S
C802   O858    1.301   .     A
C802   C805    1.488   .     S
C802   O988    1.301   1_455 S
C803   C810    1.415   .     A
C803   C808    1.418   .     A
C804   O854    1.293   .     A
C804   O984    1.293   1_455 S
C805   C809    1.418   .     A
C805   C811    1.415   .     A
C806   C814    1.398   .     A
C806   H838    1.084   .     S
C806   C808    1.395   .     A
C807   C816    1.398   .     A
C807   C809    1.395   .     A
C807   H839    1.084   .     S
C808   C888    1.443   .     S
C809   C953    1.443   1_455 S
C810   C812    1.409   .     A
C810   C820    1.451   .     S
C811   C819    1.451   .     S
C811   C813    1.409   .     A
C812   C814    1.412   .     A
C812   C817    1.425   .     A
C813   C818    1.425   .     A
C813   C816    1.412   .     A
C814   C230    1.392   1_556 S
C815   H840    1.080   .     S
C815   C824    1.388   .     A
C815   C818    1.413   .     A
C817   C823    1.413   .     A
C817   C224    1.420   1_556 S
C819   N847    1.157   .     T
C820   N848    1.157   .     T
C821   N849    1.157   .     T
C821   C875    1.443   .     S
C822   N850    1.157   .     T
C822   C940    1.443   1_455 S
C823   C825    1.388   .     A
C823   H841    1.080   .     S
C824   H831    1.083   .     S
C825   H837    1.083   .     S
C825   C222    1.392   1_556 S
C826   H842    1.083   .     S
C827   H843    1.083   .     S
C827   C992    1.384   .     S
C828   H844    1.083   .     S
C828   C861    1.401   .     S
C828   C1024   1.384   .     S
Cu829  N845    2.017   .     S
Cu829  O854    1.965   .     S
Cu829  O858    1.964   .     S
Cu829  O851    1.965   .     S
Cu829  O855    1.971   .     S
Cu829  Cu962   2.684   1_455 S
Cu830  N846    2.017   .     S
Cu830  O857    1.964   .     S
Cu830  O853    1.965   .     S
Cu830  O852    1.965   .     S
Cu830  O856    1.971   .     S
Cu830  Cu895   2.684   .     S
O851   C925    1.293   1_455 S
O852   C870    1.293   .     S
O855   C933    1.301   1_455 S
O856   C868    1.301   .     S
C859   C862    1.450   .     S
C859   O919    1.293   .     A
C859   O983    1.293   .     S
C860   H898    1.083   .     S
C861   C893    1.401   .     A
C861   C870    1.450   .     S
C862   C892    1.401   .     A
C862   C926    1.401   .     S
C863   N912    1.367   .     A
C863   C865    1.416   .     A
C863   H899    1.080   .     S
C864   N911    1.367   .     A
C864   C866    1.416   .     A
C864   H900    1.080   .     S
C865   H901    1.081   .     S
C865   N911    1.367   .     A
C866   N912    1.367   .     A
C866   H902    1.081   .     S
C867   O923    1.301   .     A
C867   C869    1.488   .     S
C867   O987    1.301   .     S
C868   O924    1.301   .     A
C868   C871    1.488   .     S
C869   C876    1.415   .     A
C869   C874    1.418   .     A
C870   O920    1.293   .     A
C871   C875    1.418   .     A
C871   C877    1.415   .     A
C872   C880    1.398   .     A
C872   H904    1.084   .     S
C872   C874    1.395   .     A
C873   C882    1.398   .     A
C873   C875    1.395   .     A
C873   H905    1.084   .     S
C874   C954    1.443   .     S
C876   C878    1.409   .     A
C876   C886    1.451   .     S
C877   C885    1.451   .     S
C877   C879    1.409   .     A
C878   C880    1.412   .     A
C878   C883    1.425   .     A
C879   C884    1.425   .     A
C879   C882    1.412   .     A
C880   C296    1.392   1_556 S
C881   H906    1.080   .     S
C881   C890    1.388   .     A
C881   C884    1.413   .     A
C883   C889    1.413   .     A
C883   C290    1.420   1_556 S
C885   N913    1.157   .     T
C886   N914    1.157   .     T
C887   N915    1.157   .     T
C887   C941    1.443   .     S
C888   N916    1.157   .     T
C889   C891    1.388   .     A
C889   H907    1.080   .     S
C890   H897    1.083   .     S
C891   H903    1.083   .     S
C891   C288    1.392   1_556 S
C892   H908    1.083   .     S
C893   H909    1.083   .     S
C893   C1058   1.384   .     S
C894   H910    1.083   .     S
C894   C927    1.401   .     S
C894   C1090   1.384   .     S
Cu895  N911    2.017   .     S
Cu895  O920    1.965   .     S
Cu895  O924    1.964   .     S
Cu895  O917    1.965   .     S
Cu895  O921    1.971   .     S
Cu896  N912    2.017   .     S
Cu896  O923    1.964   .     S
Cu896  O919    1.965   .     S
Cu896  O918    1.965   .     S
Cu896  O922    1.971   .     S
Cu896  Cu961   2.684   .     S
O918   C936    1.293   .     S
O922   C934    1.301   .     S
C925   C928    1.450   .     S
C925   O985    1.293   .     A
C925   O851    1.293   1_655 S
C926   H964    1.083   .     S
C927   C959    1.401   .     A
C927   C936    1.450   .     S
C928   C958    1.401   .     A
C928   C794    1.401   1_655 S
C929   N978    1.367   .     A
C929   C931    1.416   .     A
C929   H965    1.080   .     S
C930   N977    1.367   .     A
C930   C932    1.416   .     A
C930   H966    1.080   .     S
C931   H967    1.081   .     S
C931   N977    1.367   .     A
C932   N978    1.367   .     A
C932   H968    1.081   .     S
C933   O989    1.301   .     A
C933   C935    1.488   .     S
C933   O855    1.301   1_655 S
C934   O990    1.301   .     A
C934   C937    1.488   .     S
C935   C942    1.415   .     A
C935   C940    1.418   .     A
C936   O986    1.293   .     A
C937   C941    1.418   .     A
C937   C943    1.415   .     A
C938   C946    1.398   .     A
C938   H970    1.084   .     S
C938   C940    1.395   .     A
C939   C948    1.398   .     A
C939   C941    1.395   .     A
C939   H971    1.084   .     S
C940   C822    1.443   1_655 S
C942   C944    1.409   .     A
C942   C952    1.451   .     S
C943   C951    1.451   .     S
C943   C945    1.409   .     A
C944   C946    1.412   .     A
C944   C949    1.425   .     A
C945   C950    1.425   .     A
C945   C948    1.412   .     A
C946   C362    1.392   1_556 S
C947   H972    1.080   .     S
C947   C956    1.388   .     A
C947   C950    1.413   .     A
C949   C955    1.413   .     A
C949   C356    1.420   1_556 S
C951   N979    1.157   .     T
C952   N980    1.157   .     T
C953   N981    1.157   .     T
C953   C809    1.443   1_655 S
C954   N982    1.157   .     T
C955   C957    1.388   .     A
C955   H973    1.080   .     S
C956   H963    1.083   .     S
C957   H969    1.083   .     S
C957   C354    1.392   1_556 S
C958   H974    1.083   .     S
C959   H975    1.083   .     S
C959   C1124   1.384   .     S
C960   H976    1.083   .     S
C960   C795    1.401   1_655 S
C960   C1156   1.384   .     S
Cu961  N977    2.017   .     S
Cu961  O986    1.965   .     S
Cu961  O990    1.964   .     S
Cu961  O983    1.965   .     S
Cu961  O987    1.971   .     S
Cu962  N978    2.017   .     S
Cu962  O989    1.964   .     S
Cu962  O985    1.965   .     S
Cu962  O984    1.965   .     S
Cu962  O988    1.971   .     S
Cu962  Cu829   2.684   1_655 S
O984   C804    1.293   1_655 S
O988   C802    1.301   1_655 S
C991   C994    1.450   .     S
C991   O1051   1.293   .     A
C991   O1115   1.293   .     S
C992   H1030   1.083   .     S
C992   C1126   1.401   1_455 S
C993   C1025   1.401   .     A
C993   C1002   1.450   .     S
C993   C1158   1.401   1_455 S
C994   C1024   1.401   .     A
C994   C1058   1.401   .     S
C995   N1044   1.367   .     A
C995   C997    1.416   .     A
C995   H1031   1.080   .     S
C996   N1043   1.367   .     A
C996   C998    1.416   .     A
C996   H1032   1.080   .     S
C997   H1033   1.081   .     S
C997   N1043   1.367   .     A
C998   N1044   1.367   .     A
C998   H1034   1.081   .     S
C999   O1055   1.301   .     A
C999   C1001   1.488   .     S
C999   O1119   1.301   .     S
C1000  O1056   1.301   .     A
C1000  C1003   1.488   .     S
C1000  O1186   1.301   1_455 S
C1001  C1008   1.415   .     A
C1001  C1006   1.418   .     A
C1002  O1052   1.293   .     A
C1002  O1182   1.293   1_455 S
C1003  C1007   1.418   .     A
C1003  C1009   1.415   .     A
C1004  C1012   1.398   .     A
C1004  H1036   1.084   .     S
C1004  C1006   1.395   .     A
C1005  C1014   1.398   .     A
C1005  C1007   1.395   .     A
C1005  H1037   1.084   .     S
C1006  C1086   1.443   .     S
C1007  C1151   1.443   1_455 S
C1008  C1010   1.409   .     A
C1008  C1018   1.451   .     S
C1009  C1017   1.451   .     S
C1009  C1011   1.409   .     A
C1010  C1012   1.412   .     A
C1010  C1015   1.425   .     A
C1011  C1016   1.425   .     A
C1011  C1014   1.412   .     A
C1012  C428    1.392   1_556 S
C1013  H1038   1.080   .     S
C1013  C1022   1.388   .     A
C1013  C1016   1.413   .     A
C1015  C1021   1.413   .     A
C1015  C422    1.420   1_556 S
C1017  N1045   1.157   .     T
C1018  N1046   1.157   .     T
C1019  N1047   1.157   .     T
C1019  C1073   1.443   .     S
C1020  N1048   1.157   .     T
C1020  C1138   1.443   1_455 S
C1021  C1023   1.388   .     A
C1021  H1039   1.080   .     S
C1022  H1029   1.083   .     S
C1023  H1035   1.083   .     S
C1023  C420    1.392   1_556 S
C1024  H1040   1.083   .     S
C1025  H1041   1.083   .     S
C1025  C596    1.384   1_565 S
C1026  H1042   1.083   .     S
C1026  C1059   1.401   .     S
C1026  C628    1.384   1_565 S
Cu1027 N1043   2.017   .     S
Cu1027 O1052   1.965   .     S
Cu1027 O1056   1.964   .     S
Cu1027 O1049   1.965   .     S
Cu1027 O1053   1.971   .     S
Cu1027 Cu1160  2.684   1_455 S
Cu1028 N1044   2.017   .     S
Cu1028 O1055   1.964   .     S
Cu1028 O1051   1.965   .     S
Cu1028 O1050   1.965   .     S
Cu1028 O1054   1.971   .     S
Cu1028 Cu1093  2.684   .     S
O1049  C1123   1.293   1_455 S
O1050  C1068   1.293   .     S
O1053  C1131   1.301   1_455 S
O1054  C1066   1.301   .     S
C1057  C1060   1.450   .     S
C1057  O1117   1.293   .     A
C1057  O1181   1.293   .     S
C1058  H1096   1.083   .     S
C1059  C1091   1.401   .     A
C1059  C1068   1.450   .     S
C1060  C1090   1.401   .     A
C1060  C1124   1.401   .     S
C1061  N1110   1.367   .     A
C1061  C1063   1.416   .     A
C1061  H1097   1.080   .     S
C1062  N1109   1.367   .     A
C1062  C1064   1.416   .     A
C1062  H1098   1.080   .     S
C1063  H1099   1.081   .     S
C1063  N1109   1.367   .     A
C1064  N1110   1.367   .     A
C1064  H1100   1.081   .     S
C1065  O1121   1.301   .     A
C1065  C1067   1.488   .     S
C1065  O1185   1.301   .     S
C1066  O1122   1.301   .     A
C1066  C1069   1.488   .     S
C1067  C1074   1.415   .     A
C1067  C1072   1.418   .     A
C1068  O1118   1.293   .     A
C1069  C1073   1.418   .     A
C1069  C1075   1.415   .     A
C1070  C1078   1.398   .     A
C1070  H1102   1.084   .     S
C1070  C1072   1.395   .     A
C1071  C1080   1.398   .     A
C1071  C1073   1.395   .     A
C1071  H1103   1.084   .     S
C1072  C1152   1.443   .     S
C1074  C1076   1.409   .     A
C1074  C1084   1.451   .     S
C1075  C1083   1.451   .     S
C1075  C1077   1.409   .     A
C1076  C1078   1.412   .     A
C1076  C1081   1.425   .     A
C1077  C1082   1.425   .     A
C1077  C1080   1.412   .     A
C1078  C494    1.392   1_556 S
C1079  H1104   1.080   .     S
C1079  C1088   1.388   .     A
C1079  C1082   1.413   .     A
C1081  C1087   1.413   .     A
C1081  C488    1.420   1_556 S
C1083  N1111   1.157   .     T
C1084  N1112   1.157   .     T
C1085  N1113   1.157   .     T
C1085  C1139   1.443   .     S
C1086  N1114   1.157   .     T
C1087  C1089   1.388   .     A
C1087  H1105   1.080   .     S
C1088  H1095   1.083   .     S
C1089  H1101   1.083   .     S
C1089  C486    1.392   1_556 S
C1090  H1106   1.083   .     S
C1091  H1107   1.083   .     S
C1091  C662    1.384   1_565 S
C1092  H1108   1.083   .     S
C1092  C1125   1.401   .     S
C1092  C694    1.384   1_565 S
Cu1093 N1109   2.017   .     S
Cu1093 O1118   1.965   .     S
Cu1093 O1122   1.964   .     S
Cu1093 O1115   1.965   .     S
Cu1093 O1119   1.971   .     S
Cu1094 N1110   2.017   .     S
Cu1094 O1121   1.964   .     S
Cu1094 O1117   1.965   .     S
Cu1094 O1116   1.965   .     S
Cu1094 O1120   1.971   .     S
Cu1094 Cu1159  2.684   .     S
O1116  C1134   1.293   .     S
O1120  C1132   1.301   .     S
C1123  C1126   1.450   .     S
C1123  O1183   1.293   .     A
C1123  O1049   1.293   1_655 S
C1124  H1162   1.083   .     S
C1125  C1157   1.401   .     A
C1125  C1134   1.450   .     S
C1126  C1156   1.401   .     A
C1126  C992    1.401   1_655 S
C1127  N1176   1.367   .     A
C1127  C1129   1.416   .     A
C1127  H1163   1.080   .     S
C1128  N1175   1.367   .     A
C1128  C1130   1.416   .     A
C1128  H1164   1.080   .     S
C1129  H1165   1.081   .     S
C1129  N1175   1.367   .     A
C1130  N1176   1.367   .     A
C1130  H1166   1.081   .     S
C1131  O1187   1.301   .     A
C1131  C1133   1.488   .     S
C1131  O1053   1.301   1_655 S
C1132  O1188   1.301   .     A
C1132  C1135   1.488   .     S
C1133  C1140   1.415   .     A
C1133  C1138   1.418   .     A
C1134  O1184   1.293   .     A
C1135  C1139   1.418   .     A
C1135  C1141   1.415   .     A
C1136  C1144   1.398   .     A
C1136  H1168   1.084   .     S
C1136  C1138   1.395   .     A
C1137  C1146   1.398   .     A
C1137  C1139   1.395   .     A
C1137  H1169   1.084   .     S
C1138  C1020   1.443   1_655 S
C1140  C1142   1.409   .     A
C1140  C1150   1.451   .     S
C1141  C1149   1.451   .     S
C1141  C1143   1.409   .     A
C1142  C1144   1.412   .     A
C1142  C1147   1.425   .     A
C1143  C1148   1.425   .     A
C1143  C1146   1.412   .     A
C1144  C560    1.392   1_556 S
C1145  H1170   1.080   .     S
C1145  C1154   1.388   .     A
C1145  C1148   1.413   .     A
C1147  C1153   1.413   .     A
C1147  C554    1.420   1_556 S
C1149  N1177   1.157   .     T
C1150  N1178   1.157   .     T
C1151  N1179   1.157   .     T
C1151  C1007   1.443   1_655 S
C1152  N1180   1.157   .     T
C1153  C1155   1.388   .     A
C1153  H1171   1.080   .     S
C1154  H1161   1.083   .     S
C1155  H1167   1.083   .     S
C1155  C552    1.392   1_556 S
C1156  H1172   1.083   .     S
C1157  H1173   1.083   .     S
C1157  C728    1.384   1_565 S
C1158  H1174   1.083   .     S
C1158  C993    1.401   1_655 S
C1158  C760    1.384   1_565 S
Cu1159 N1175   2.017   .     S
Cu1159 O1184   1.965   .     S
Cu1159 O1188   1.964   .     S
Cu1159 O1181   1.965   .     S
Cu1159 O1185   1.971   .     S
Cu1160 N1176   2.017   .     S
Cu1160 O1187   1.964   .     S
Cu1160 O1183   1.965   .     S
Cu1160 O1182   1.965   .     S
Cu1160 O1186   1.971   .     S
Cu1160 Cu1027  2.684   1_655 S
O1182  C1002   1.293   1_655 S
O1186  C1000   1.301   1_655 S
