data_str_m3_o1_o5_pcu_sym.19
_audit_creation_date              2020-01-03
_audit_creation_method            'Materials Studio'
_symmetry_space_group_name_H-M    'P1'
_symmetry_Int_Tables_number       1
_symmetry_cell_setting            triclinic
loop_
_symmetry_equiv_pos_as_xyz
  x,y,z
_cell_length_a                    32.1726
_cell_length_b                    30.0615
_cell_length_c                    26.7196
_cell_angle_alpha                 90.0000
_cell_angle_beta                  93.5906
_cell_angle_gamma                 90.0000
loop_
_atom_site_label
_atom_site_type_symbol
_atom_site_fract_x
_atom_site_fract_y
_atom_site_fract_z
_atom_site_U_iso_or_equiv
_atom_site_adp_type
_atom_site_occupancy
C1     C     0.08679   0.16667   0.16647   0.00000  Uiso   1.00
C2     C     0.02129   0.20723   0.16656   0.00000  Uiso   1.00
C3     C     0.29080   0.16667   0.16685   0.00000  Uiso   1.00
C4     C     0.04253   0.16667   0.16648   0.00000  Uiso   1.00
C5     C     0.19351   0.02387   0.19891   0.00000  Uiso   1.00
C6     C     0.13983   0.30946   0.13443   0.00000  Uiso   1.00
C7     C     0.13983   0.02387   0.13443   0.00000  Uiso   1.00
C8     C     0.19351   0.30946   0.19891   0.00000  Uiso   1.00
C9     C     0.22388   0.04740   0.23545   0.00000  Uiso   1.00
C10    C     0.10945   0.28593   0.09788   0.00000  Uiso   1.00
C11    C     0.10945   0.04740   0.09788   0.00000  Uiso   1.00
C12    C     0.24655   0.16667   0.16686   0.00000  Uiso   1.00
C13    C     0.22388   0.28593   0.23545   0.00000  Uiso   1.00
C14    C     0.16649   0.16667   0.07306   0.00000  Uiso   1.00
C15    C     0.16684   0.16667   0.26027   0.00000  Uiso   1.00
C16    C     0.16660   0.16667   0.02183   0.00000  Uiso   1.00
C17    C     0.16673   0.16667   0.31150   0.00000  Uiso   1.00
C18    C     0.02129   0.12611   0.16657   0.00000  Uiso   1.00
C19    C     0.31204   0.20723   0.16676   0.00000  Uiso   1.00
C20    C     0.31205   0.12611   0.16678   0.00000  Uiso   1.00
H21    H     0.03738   0.09445   0.16653   0.00000  Uiso   1.00
H22    H     0.11572   0.29505   0.05883   0.00000  Uiso   1.00
H23    H     0.11070   0.08340   0.09944   0.00000  Uiso   1.00
H24    H     0.11572   0.03829   0.05883   0.00000  Uiso   1.00
H25    H     0.07702   0.03823   0.10540   0.00000  Uiso   1.00
H26    H     0.22264   0.24993   0.23390   0.00000  Uiso   1.00
H27    H     0.25631   0.29510   0.22793   0.00000  Uiso   1.00
H28    H     0.21761   0.29505   0.27450   0.00000  Uiso   1.00
H29    H     0.29596   0.23889   0.16680   0.00000  Uiso   1.00
H30    H     0.29596   0.09445   0.16683   0.00000  Uiso   1.00
H31    H     0.03738   0.23889   0.16651   0.00000  Uiso   1.00
H32    H     0.22264   0.08340   0.23390   0.00000  Uiso   1.00
H33    H     0.21761   0.03829   0.27450   0.00000  Uiso   1.00
H34    H     0.25631   0.03823   0.22793   0.00000  Uiso   1.00
H35    H     0.11070   0.24993   0.09944   0.00000  Uiso   1.00
H36    H     0.07702   0.29510   0.10540   0.00000  Uiso   1.00
N37    N     0.16667   0.28573   0.16667   0.00000  Uiso   1.00
N38    N     0.16667   0.04760   0.16667   0.00000  Uiso   1.00
O39    O     0.10559   0.20487   0.16666   0.00000  Uiso   1.00
O40    O     0.22774   0.12846   0.16667   0.00000  Uiso   1.00
O41    O     0.22774   0.20487   0.16667   0.00000  Uiso   1.00
O42    O     0.10559   0.12846   0.16666   0.00000  Uiso   1.00
O43    O     0.16667   0.20488   0.09511   0.00000  Uiso   1.00
O44    O     0.16666   0.12845   0.23822   0.00000  Uiso   1.00
O45    O     0.16666   0.20488   0.23822   0.00000  Uiso   1.00
O46    O     0.16667   0.12845   0.09511   0.00000  Uiso   1.00
Zn47   Zn    0.16667   0.21771   0.16667   0.00000  Uiso   1.00
Zn48   Zn    0.16667   0.11563   0.16667   0.00000  Uiso   1.00
C49    C     0.42012   0.16667   0.16647   0.00000  Uiso   1.00
C50    C     0.35462   0.20723   0.16656   0.00000  Uiso   1.00
C51    C     0.62413   0.16667   0.16685   0.00000  Uiso   1.00
C52    C     0.37587   0.16667   0.16648   0.00000  Uiso   1.00
C53    C     0.52684   0.02387   0.19891   0.00000  Uiso   1.00
C54    C     0.47316   0.30946   0.13443   0.00000  Uiso   1.00
C55    C     0.47316   0.02387   0.13443   0.00000  Uiso   1.00
C56    C     0.52684   0.30946   0.19891   0.00000  Uiso   1.00
C57    C     0.55722   0.04740   0.23545   0.00000  Uiso   1.00
C58    C     0.44278   0.28593   0.09788   0.00000  Uiso   1.00
C59    C     0.44278   0.04740   0.09788   0.00000  Uiso   1.00
C60    C     0.57988   0.16667   0.16686   0.00000  Uiso   1.00
C61    C     0.55722   0.28593   0.23545   0.00000  Uiso   1.00
C62    C     0.49982   0.16667   0.07306   0.00000  Uiso   1.00
C63    C     0.50018   0.16667   0.26027   0.00000  Uiso   1.00
C64    C     0.49993   0.16667   0.02183   0.00000  Uiso   1.00
C65    C     0.50007   0.16667   0.31150   0.00000  Uiso   1.00
C66    C     0.35462   0.12611   0.16657   0.00000  Uiso   1.00
C67    C     0.64538   0.20723   0.16676   0.00000  Uiso   1.00
C68    C     0.64538   0.12611   0.16678   0.00000  Uiso   1.00
H69    H     0.37071   0.09445   0.16653   0.00000  Uiso   1.00
H70    H     0.44906   0.29505   0.05883   0.00000  Uiso   1.00
H71    H     0.44403   0.08340   0.09944   0.00000  Uiso   1.00
H72    H     0.44906   0.03829   0.05883   0.00000  Uiso   1.00
H73    H     0.41036   0.03823   0.10540   0.00000  Uiso   1.00
H74    H     0.55597   0.24993   0.23390   0.00000  Uiso   1.00
H75    H     0.58964   0.29510   0.22793   0.00000  Uiso   1.00
H76    H     0.55094   0.29505   0.27450   0.00000  Uiso   1.00
H77    H     0.62929   0.23889   0.16680   0.00000  Uiso   1.00
H78    H     0.62929   0.09445   0.16683   0.00000  Uiso   1.00
H79    H     0.37071   0.23889   0.16651   0.00000  Uiso   1.00
H80    H     0.55597   0.08340   0.23390   0.00000  Uiso   1.00
H81    H     0.55094   0.03829   0.27450   0.00000  Uiso   1.00
H82    H     0.58964   0.03823   0.22793   0.00000  Uiso   1.00
H83    H     0.44403   0.24993   0.09944   0.00000  Uiso   1.00
H84    H     0.41036   0.29510   0.10540   0.00000  Uiso   1.00
N85    N     0.50000   0.28573   0.16667   0.00000  Uiso   1.00
N86    N     0.50000   0.04760   0.16667   0.00000  Uiso   1.00
O87    O     0.43892   0.20487   0.16666   0.00000  Uiso   1.00
O88    O     0.56108   0.12846   0.16667   0.00000  Uiso   1.00
O89    O     0.56108   0.20487   0.16667   0.00000  Uiso   1.00
O90    O     0.43892   0.12846   0.16666   0.00000  Uiso   1.00
O91    O     0.50000   0.20488   0.09511   0.00000  Uiso   1.00
O92    O     0.50000   0.12845   0.23822   0.00000  Uiso   1.00
O93    O     0.50000   0.20488   0.23822   0.00000  Uiso   1.00
O94    O     0.50000   0.12845   0.09511   0.00000  Uiso   1.00
Zn95   Zn    0.50000   0.21771   0.16667   0.00000  Uiso   1.00
Zn96   Zn    0.50000   0.11563   0.16667   0.00000  Uiso   1.00
C97    C     0.75345   0.16667   0.16647   0.00000  Uiso   1.00
C98    C     0.68795   0.20723   0.16656   0.00000  Uiso   1.00
C99    C     0.95747   0.16667   0.16685   0.00000  Uiso   1.00
C100   C     0.70920   0.16667   0.16648   0.00000  Uiso   1.00
C101   C     0.86017   0.02387   0.19891   0.00000  Uiso   1.00
C102   C     0.80649   0.30946   0.13443   0.00000  Uiso   1.00
C103   C     0.80649   0.02387   0.13443   0.00000  Uiso   1.00
C104   C     0.86017   0.30946   0.19891   0.00000  Uiso   1.00
C105   C     0.89055   0.04740   0.23545   0.00000  Uiso   1.00
C106   C     0.77612   0.28593   0.09788   0.00000  Uiso   1.00
C107   C     0.77612   0.04740   0.09788   0.00000  Uiso   1.00
C108   C     0.91321   0.16667   0.16686   0.00000  Uiso   1.00
C109   C     0.89055   0.28593   0.23545   0.00000  Uiso   1.00
C110   C     0.83316   0.16667   0.07306   0.00000  Uiso   1.00
C111   C     0.83351   0.16667   0.26027   0.00000  Uiso   1.00
C112   C     0.83327   0.16667   0.02183   0.00000  Uiso   1.00
C113   C     0.83340   0.16667   0.31150   0.00000  Uiso   1.00
C114   C     0.68796   0.12611   0.16657   0.00000  Uiso   1.00
C115   C     0.97871   0.20723   0.16676   0.00000  Uiso   1.00
C116   C     0.97871   0.12611   0.16678   0.00000  Uiso   1.00
H117   H     0.70404   0.09445   0.16653   0.00000  Uiso   1.00
H118   H     0.78239   0.29505   0.05883   0.00000  Uiso   1.00
H119   H     0.77736   0.08340   0.09944   0.00000  Uiso   1.00
H120   H     0.78239   0.03829   0.05883   0.00000  Uiso   1.00
H121   H     0.74369   0.03823   0.10540   0.00000  Uiso   1.00
H122   H     0.88930   0.24993   0.23390   0.00000  Uiso   1.00
H123   H     0.92298   0.29510   0.22793   0.00000  Uiso   1.00
H124   H     0.88428   0.29505   0.27450   0.00000  Uiso   1.00
H125   H     0.96262   0.23889   0.16680   0.00000  Uiso   1.00
H126   H     0.96262   0.09445   0.16683   0.00000  Uiso   1.00
H127   H     0.70404   0.23889   0.16651   0.00000  Uiso   1.00
H128   H     0.88930   0.08340   0.23390   0.00000  Uiso   1.00
H129   H     0.88428   0.03829   0.27450   0.00000  Uiso   1.00
H130   H     0.92298   0.03823   0.22793   0.00000  Uiso   1.00
H131   H     0.77736   0.24993   0.09944   0.00000  Uiso   1.00
H132   H     0.74369   0.29510   0.10540   0.00000  Uiso   1.00
N133   N     0.83333   0.28573   0.16667   0.00000  Uiso   1.00
N134   N     0.83333   0.04760   0.16667   0.00000  Uiso   1.00
O135   O     0.77226   0.20487   0.16666   0.00000  Uiso   1.00
O136   O     0.89441   0.12846   0.16667   0.00000  Uiso   1.00
O137   O     0.89441   0.20487   0.16667   0.00000  Uiso   1.00
O138   O     0.77226   0.12846   0.16666   0.00000  Uiso   1.00
O139   O     0.83334   0.20488   0.09511   0.00000  Uiso   1.00
O140   O     0.83333   0.12845   0.23822   0.00000  Uiso   1.00
O141   O     0.83333   0.20488   0.23822   0.00000  Uiso   1.00
O142   O     0.83334   0.12845   0.09511   0.00000  Uiso   1.00
Zn143  Zn    0.83333   0.21771   0.16667   0.00000  Uiso   1.00
Zn144  Zn    0.83333   0.11563   0.16667   0.00000  Uiso   1.00
C145   C     0.08679   0.50000   0.16647   0.00000  Uiso   1.00
C146   C     0.02129   0.54056   0.16656   0.00000  Uiso   1.00
C147   C     0.29080   0.50000   0.16685   0.00000  Uiso   1.00
C148   C     0.04253   0.50000   0.16648   0.00000  Uiso   1.00
C149   C     0.19351   0.35721   0.19891   0.00000  Uiso   1.00
C150   C     0.13983   0.64279   0.13443   0.00000  Uiso   1.00
C151   C     0.13983   0.35721   0.13443   0.00000  Uiso   1.00
C152   C     0.19351   0.64279   0.19891   0.00000  Uiso   1.00
C153   C     0.22388   0.38073   0.23545   0.00000  Uiso   1.00
C154   C     0.10945   0.61927   0.09788   0.00000  Uiso   1.00
C155   C     0.10945   0.38073   0.09788   0.00000  Uiso   1.00
C156   C     0.24655   0.50000   0.16686   0.00000  Uiso   1.00
C157   C     0.22388   0.61927   0.23545   0.00000  Uiso   1.00
C158   C     0.16649   0.50000   0.07306   0.00000  Uiso   1.00
C159   C     0.16684   0.50000   0.26027   0.00000  Uiso   1.00
C160   C     0.16660   0.50000   0.02183   0.00000  Uiso   1.00
C161   C     0.16673   0.50000   0.31150   0.00000  Uiso   1.00
C162   C     0.02129   0.45944   0.16657   0.00000  Uiso   1.00
C163   C     0.31204   0.54056   0.16676   0.00000  Uiso   1.00
C164   C     0.31205   0.45944   0.16678   0.00000  Uiso   1.00
H165   H     0.03738   0.42778   0.16653   0.00000  Uiso   1.00
H166   H     0.11572   0.62838   0.05883   0.00000  Uiso   1.00
H167   H     0.11070   0.41673   0.09944   0.00000  Uiso   1.00
H168   H     0.11572   0.37162   0.05883   0.00000  Uiso   1.00
H169   H     0.07702   0.37157   0.10540   0.00000  Uiso   1.00
H170   H     0.22264   0.58327   0.23390   0.00000  Uiso   1.00
H171   H     0.25631   0.62843   0.22793   0.00000  Uiso   1.00
H172   H     0.21761   0.62838   0.27450   0.00000  Uiso   1.00
H173   H     0.29596   0.57222   0.16680   0.00000  Uiso   1.00
H174   H     0.29596   0.42778   0.16683   0.00000  Uiso   1.00
H175   H     0.03738   0.57222   0.16651   0.00000  Uiso   1.00
H176   H     0.22264   0.41673   0.23390   0.00000  Uiso   1.00
H177   H     0.21761   0.37162   0.27450   0.00000  Uiso   1.00
H178   H     0.25631   0.37157   0.22793   0.00000  Uiso   1.00
H179   H     0.11070   0.58327   0.09944   0.00000  Uiso   1.00
H180   H     0.07702   0.62843   0.10540   0.00000  Uiso   1.00
N181   N     0.16667   0.61907   0.16667   0.00000  Uiso   1.00
N182   N     0.16667   0.38093   0.16667   0.00000  Uiso   1.00
O183   O     0.10559   0.53821   0.16666   0.00000  Uiso   1.00
O184   O     0.22774   0.46179   0.16667   0.00000  Uiso   1.00
O185   O     0.22774   0.53821   0.16667   0.00000  Uiso   1.00
O186   O     0.10559   0.46179   0.16666   0.00000  Uiso   1.00
O187   O     0.16667   0.53821   0.09511   0.00000  Uiso   1.00
O188   O     0.16666   0.46179   0.23822   0.00000  Uiso   1.00
O189   O     0.16666   0.53821   0.23822   0.00000  Uiso   1.00
O190   O     0.16667   0.46179   0.09511   0.00000  Uiso   1.00
Zn191  Zn    0.16667   0.55104   0.16667   0.00000  Uiso   1.00
Zn192  Zn    0.16667   0.44896   0.16667   0.00000  Uiso   1.00
C193   C     0.42012   0.50000   0.16647   0.00000  Uiso   1.00
C194   C     0.35462   0.54056   0.16656   0.00000  Uiso   1.00
C195   C     0.62413   0.50000   0.16685   0.00000  Uiso   1.00
C196   C     0.37587   0.50000   0.16648   0.00000  Uiso   1.00
C197   C     0.52684   0.35721   0.19891   0.00000  Uiso   1.00
C198   C     0.47316   0.64279   0.13443   0.00000  Uiso   1.00
C199   C     0.47316   0.35721   0.13443   0.00000  Uiso   1.00
C200   C     0.52684   0.64279   0.19891   0.00000  Uiso   1.00
C201   C     0.55722   0.38073   0.23545   0.00000  Uiso   1.00
C202   C     0.44278   0.61927   0.09788   0.00000  Uiso   1.00
C203   C     0.44278   0.38073   0.09788   0.00000  Uiso   1.00
C204   C     0.57988   0.50000   0.16686   0.00000  Uiso   1.00
C205   C     0.55722   0.61927   0.23545   0.00000  Uiso   1.00
C206   C     0.49982   0.50000   0.07306   0.00000  Uiso   1.00
C207   C     0.50018   0.50000   0.26027   0.00000  Uiso   1.00
C208   C     0.49993   0.50000   0.02183   0.00000  Uiso   1.00
C209   C     0.50007   0.50000   0.31150   0.00000  Uiso   1.00
C210   C     0.35462   0.45944   0.16657   0.00000  Uiso   1.00
C211   C     0.64538   0.54056   0.16676   0.00000  Uiso   1.00
C212   C     0.64538   0.45944   0.16678   0.00000  Uiso   1.00
H213   H     0.37071   0.42778   0.16653   0.00000  Uiso   1.00
H214   H     0.44906   0.62838   0.05883   0.00000  Uiso   1.00
H215   H     0.44403   0.41673   0.09944   0.00000  Uiso   1.00
H216   H     0.44906   0.37162   0.05883   0.00000  Uiso   1.00
H217   H     0.41036   0.37157   0.10540   0.00000  Uiso   1.00
H218   H     0.55597   0.58327   0.23390   0.00000  Uiso   1.00
H219   H     0.58964   0.62843   0.22793   0.00000  Uiso   1.00
H220   H     0.55094   0.62838   0.27450   0.00000  Uiso   1.00
H221   H     0.62929   0.57222   0.16680   0.00000  Uiso   1.00
H222   H     0.62929   0.42778   0.16683   0.00000  Uiso   1.00
H223   H     0.37071   0.57222   0.16651   0.00000  Uiso   1.00
H224   H     0.55597   0.41673   0.23390   0.00000  Uiso   1.00
H225   H     0.55094   0.37162   0.27450   0.00000  Uiso   1.00
H226   H     0.58964   0.37157   0.22793   0.00000  Uiso   1.00
H227   H     0.44403   0.58327   0.09944   0.00000  Uiso   1.00
H228   H     0.41036   0.62843   0.10540   0.00000  Uiso   1.00
N229   N     0.50000   0.61907   0.16667   0.00000  Uiso   1.00
N230   N     0.50000   0.38093   0.16667   0.00000  Uiso   1.00
O231   O     0.43892   0.53821   0.16666   0.00000  Uiso   1.00
O232   O     0.56108   0.46179   0.16667   0.00000  Uiso   1.00
O233   O     0.56108   0.53821   0.16667   0.00000  Uiso   1.00
O234   O     0.43892   0.46179   0.16666   0.00000  Uiso   1.00
O235   O     0.50000   0.53821   0.09511   0.00000  Uiso   1.00
O236   O     0.50000   0.46179   0.23822   0.00000  Uiso   1.00
O237   O     0.50000   0.53821   0.23822   0.00000  Uiso   1.00
O238   O     0.50000   0.46179   0.09511   0.00000  Uiso   1.00
Zn239  Zn    0.50000   0.55104   0.16667   0.00000  Uiso   1.00
Zn240  Zn    0.50000   0.44896   0.16667   0.00000  Uiso   1.00
C241   C     0.75345   0.50000   0.16647   0.00000  Uiso   1.00
C242   C     0.68795   0.54056   0.16656   0.00000  Uiso   1.00
C243   C     0.95747   0.50000   0.16685   0.00000  Uiso   1.00
C244   C     0.70920   0.50000   0.16648   0.00000  Uiso   1.00
C245   C     0.86017   0.35721   0.19891   0.00000  Uiso   1.00
C246   C     0.80649   0.64279   0.13443   0.00000  Uiso   1.00
C247   C     0.80649   0.35721   0.13443   0.00000  Uiso   1.00
C248   C     0.86017   0.64279   0.19891   0.00000  Uiso   1.00
C249   C     0.89055   0.38073   0.23545   0.00000  Uiso   1.00
C250   C     0.77612   0.61927   0.09788   0.00000  Uiso   1.00
C251   C     0.77612   0.38073   0.09788   0.00000  Uiso   1.00
C252   C     0.91321   0.50000   0.16686   0.00000  Uiso   1.00
C253   C     0.89055   0.61927   0.23545   0.00000  Uiso   1.00
C254   C     0.83316   0.50000   0.07306   0.00000  Uiso   1.00
C255   C     0.83351   0.50000   0.26027   0.00000  Uiso   1.00
C256   C     0.83327   0.50000   0.02183   0.00000  Uiso   1.00
C257   C     0.83340   0.50000   0.31150   0.00000  Uiso   1.00
C258   C     0.68796   0.45944   0.16657   0.00000  Uiso   1.00
C259   C     0.97871   0.54056   0.16676   0.00000  Uiso   1.00
C260   C     0.97871   0.45944   0.16678   0.00000  Uiso   1.00
H261   H     0.70404   0.42778   0.16653   0.00000  Uiso   1.00
H262   H     0.78239   0.62838   0.05883   0.00000  Uiso   1.00
H263   H     0.77736   0.41673   0.09944   0.00000  Uiso   1.00
H264   H     0.78239   0.37162   0.05883   0.00000  Uiso   1.00
H265   H     0.74369   0.37157   0.10540   0.00000  Uiso   1.00
H266   H     0.88930   0.58327   0.23390   0.00000  Uiso   1.00
H267   H     0.92298   0.62843   0.22793   0.00000  Uiso   1.00
H268   H     0.88428   0.62838   0.27450   0.00000  Uiso   1.00
H269   H     0.96262   0.57222   0.16680   0.00000  Uiso   1.00
H270   H     0.96262   0.42778   0.16683   0.00000  Uiso   1.00
H271   H     0.70404   0.57222   0.16651   0.00000  Uiso   1.00
H272   H     0.88930   0.41673   0.23390   0.00000  Uiso   1.00
H273   H     0.88428   0.37162   0.27450   0.00000  Uiso   1.00
H274   H     0.92298   0.37157   0.22793   0.00000  Uiso   1.00
H275   H     0.77736   0.58327   0.09944   0.00000  Uiso   1.00
H276   H     0.74369   0.62843   0.10540   0.00000  Uiso   1.00
N277   N     0.83333   0.61907   0.16667   0.00000  Uiso   1.00
N278   N     0.83333   0.38093   0.16667   0.00000  Uiso   1.00
O279   O     0.77226   0.53821   0.16666   0.00000  Uiso   1.00
O280   O     0.89441   0.46179   0.16667   0.00000  Uiso   1.00
O281   O     0.89441   0.53821   0.16667   0.00000  Uiso   1.00
O282   O     0.77226   0.46179   0.16666   0.00000  Uiso   1.00
O283   O     0.83334   0.53821   0.09511   0.00000  Uiso   1.00
O284   O     0.83333   0.46179   0.23822   0.00000  Uiso   1.00
O285   O     0.83333   0.53821   0.23822   0.00000  Uiso   1.00
O286   O     0.83334   0.46179   0.09511   0.00000  Uiso   1.00
Zn287  Zn    0.83333   0.55104   0.16667   0.00000  Uiso   1.00
Zn288  Zn    0.83333   0.44896   0.16667   0.00000  Uiso   1.00
C289   C     0.08679   0.83333   0.16647   0.00000  Uiso   1.00
C290   C     0.02129   0.87389   0.16656   0.00000  Uiso   1.00
C291   C     0.29080   0.83333   0.16685   0.00000  Uiso   1.00
C292   C     0.04253   0.83333   0.16648   0.00000  Uiso   1.00
C293   C     0.19351   0.69054   0.19891   0.00000  Uiso   1.00
C294   C     0.13983   0.97613   0.13443   0.00000  Uiso   1.00
C295   C     0.13983   0.69054   0.13443   0.00000  Uiso   1.00
C296   C     0.19351   0.97613   0.19891   0.00000  Uiso   1.00
C297   C     0.22388   0.71407   0.23545   0.00000  Uiso   1.00
C298   C     0.10945   0.95260   0.09788   0.00000  Uiso   1.00
C299   C     0.10945   0.71407   0.09788   0.00000  Uiso   1.00
C300   C     0.24655   0.83333   0.16686   0.00000  Uiso   1.00
C301   C     0.22388   0.95260   0.23545   0.00000  Uiso   1.00
C302   C     0.16649   0.83333   0.07306   0.00000  Uiso   1.00
C303   C     0.16684   0.83333   0.26027   0.00000  Uiso   1.00
C304   C     0.16660   0.83333   0.02183   0.00000  Uiso   1.00
C305   C     0.16673   0.83333   0.31150   0.00000  Uiso   1.00
C306   C     0.02129   0.79277   0.16657   0.00000  Uiso   1.00
C307   C     0.31204   0.87389   0.16676   0.00000  Uiso   1.00
C308   C     0.31205   0.79277   0.16678   0.00000  Uiso   1.00
H309   H     0.03738   0.76111   0.16653   0.00000  Uiso   1.00
H310   H     0.11572   0.96171   0.05883   0.00000  Uiso   1.00
H311   H     0.11070   0.75007   0.09944   0.00000  Uiso   1.00
H312   H     0.11572   0.70495   0.05883   0.00000  Uiso   1.00
H313   H     0.07702   0.70490   0.10540   0.00000  Uiso   1.00
H314   H     0.22264   0.91660   0.23390   0.00000  Uiso   1.00
H315   H     0.25631   0.96177   0.22793   0.00000  Uiso   1.00
H316   H     0.21761   0.96171   0.27450   0.00000  Uiso   1.00
H317   H     0.29596   0.90555   0.16680   0.00000  Uiso   1.00
H318   H     0.29596   0.76111   0.16683   0.00000  Uiso   1.00
H319   H     0.03738   0.90555   0.16651   0.00000  Uiso   1.00
H320   H     0.22264   0.75007   0.23390   0.00000  Uiso   1.00
H321   H     0.21761   0.70495   0.27450   0.00000  Uiso   1.00
H322   H     0.25631   0.70490   0.22793   0.00000  Uiso   1.00
H323   H     0.11070   0.91660   0.09944   0.00000  Uiso   1.00
H324   H     0.07702   0.96177   0.10540   0.00000  Uiso   1.00
N325   N     0.16667   0.95240   0.16667   0.00000  Uiso   1.00
N326   N     0.16667   0.71427   0.16667   0.00000  Uiso   1.00
O327   O     0.10559   0.87154   0.16666   0.00000  Uiso   1.00
O328   O     0.22774   0.79513   0.16667   0.00000  Uiso   1.00
O329   O     0.22774   0.87154   0.16667   0.00000  Uiso   1.00
O330   O     0.10559   0.79513   0.16666   0.00000  Uiso   1.00
O331   O     0.16667   0.87155   0.09511   0.00000  Uiso   1.00
O332   O     0.16666   0.79512   0.23822   0.00000  Uiso   1.00
O333   O     0.16666   0.87155   0.23822   0.00000  Uiso   1.00
O334   O     0.16667   0.79512   0.09511   0.00000  Uiso   1.00
Zn335  Zn    0.16667   0.88437   0.16667   0.00000  Uiso   1.00
Zn336  Zn    0.16667   0.78229   0.16667   0.00000  Uiso   1.00
C337   C     0.42012   0.83333   0.16647   0.00000  Uiso   1.00
C338   C     0.35462   0.87389   0.16656   0.00000  Uiso   1.00
C339   C     0.62413   0.83333   0.16685   0.00000  Uiso   1.00
C340   C     0.37587   0.83333   0.16648   0.00000  Uiso   1.00
C341   C     0.52684   0.69054   0.19891   0.00000  Uiso   1.00
C342   C     0.47316   0.97613   0.13443   0.00000  Uiso   1.00
C343   C     0.47316   0.69054   0.13443   0.00000  Uiso   1.00
C344   C     0.52684   0.97613   0.19891   0.00000  Uiso   1.00
C345   C     0.55722   0.71407   0.23545   0.00000  Uiso   1.00
C346   C     0.44278   0.95260   0.09788   0.00000  Uiso   1.00
C347   C     0.44278   0.71407   0.09788   0.00000  Uiso   1.00
C348   C     0.57988   0.83333   0.16686   0.00000  Uiso   1.00
C349   C     0.55722   0.95260   0.23545   0.00000  Uiso   1.00
C350   C     0.49982   0.83333   0.07306   0.00000  Uiso   1.00
C351   C     0.50018   0.83333   0.26027   0.00000  Uiso   1.00
C352   C     0.49993   0.83333   0.02183   0.00000  Uiso   1.00
C353   C     0.50007   0.83333   0.31150   0.00000  Uiso   1.00
C354   C     0.35462   0.79277   0.16657   0.00000  Uiso   1.00
C355   C     0.64538   0.87389   0.16676   0.00000  Uiso   1.00
C356   C     0.64538   0.79277   0.16678   0.00000  Uiso   1.00
H357   H     0.37071   0.76111   0.16653   0.00000  Uiso   1.00
H358   H     0.44906   0.96171   0.05883   0.00000  Uiso   1.00
H359   H     0.44403   0.75007   0.09944   0.00000  Uiso   1.00
H360   H     0.44906   0.70495   0.05883   0.00000  Uiso   1.00
H361   H     0.41036   0.70490   0.10540   0.00000  Uiso   1.00
H362   H     0.55597   0.91660   0.23390   0.00000  Uiso   1.00
H363   H     0.58964   0.96177   0.22793   0.00000  Uiso   1.00
H364   H     0.55094   0.96171   0.27450   0.00000  Uiso   1.00
H365   H     0.62929   0.90555   0.16680   0.00000  Uiso   1.00
H366   H     0.62929   0.76111   0.16683   0.00000  Uiso   1.00
H367   H     0.37071   0.90555   0.16651   0.00000  Uiso   1.00
H368   H     0.55597   0.75007   0.23390   0.00000  Uiso   1.00
H369   H     0.55094   0.70495   0.27450   0.00000  Uiso   1.00
H370   H     0.58964   0.70490   0.22793   0.00000  Uiso   1.00
H371   H     0.44403   0.91660   0.09944   0.00000  Uiso   1.00
H372   H     0.41036   0.96177   0.10540   0.00000  Uiso   1.00
N373   N     0.50000   0.95240   0.16667   0.00000  Uiso   1.00
N374   N     0.50000   0.71427   0.16667   0.00000  Uiso   1.00
O375   O     0.43892   0.87154   0.16666   0.00000  Uiso   1.00
O376   O     0.56108   0.79513   0.16667   0.00000  Uiso   1.00
O377   O     0.56108   0.87154   0.16667   0.00000  Uiso   1.00
O378   O     0.43892   0.79513   0.16666   0.00000  Uiso   1.00
O379   O     0.50000   0.87155   0.09511   0.00000  Uiso   1.00
O380   O     0.50000   0.79512   0.23822   0.00000  Uiso   1.00
O381   O     0.50000   0.87155   0.23822   0.00000  Uiso   1.00
O382   O     0.50000   0.79512   0.09511   0.00000  Uiso   1.00
Zn383  Zn    0.50000   0.88437   0.16667   0.00000  Uiso   1.00
Zn384  Zn    0.50000   0.78229   0.16667   0.00000  Uiso   1.00
C385   C     0.75345   0.83333   0.16647   0.00000  Uiso   1.00
C386   C     0.68795   0.87389   0.16656   0.00000  Uiso   1.00
C387   C     0.95747   0.83333   0.16685   0.00000  Uiso   1.00
C388   C     0.70920   0.83333   0.16648   0.00000  Uiso   1.00
C389   C     0.86017   0.69054   0.19891   0.00000  Uiso   1.00
C390   C     0.80649   0.97613   0.13443   0.00000  Uiso   1.00
C391   C     0.80649   0.69054   0.13443   0.00000  Uiso   1.00
C392   C     0.86017   0.97613   0.19891   0.00000  Uiso   1.00
C393   C     0.89055   0.71407   0.23545   0.00000  Uiso   1.00
C394   C     0.77612   0.95260   0.09788   0.00000  Uiso   1.00
C395   C     0.77612   0.71407   0.09788   0.00000  Uiso   1.00
C396   C     0.91321   0.83333   0.16686   0.00000  Uiso   1.00
C397   C     0.89055   0.95260   0.23545   0.00000  Uiso   1.00
C398   C     0.83316   0.83333   0.07306   0.00000  Uiso   1.00
C399   C     0.83351   0.83333   0.26027   0.00000  Uiso   1.00
C400   C     0.83327   0.83333   0.02183   0.00000  Uiso   1.00
C401   C     0.83340   0.83333   0.31150   0.00000  Uiso   1.00
C402   C     0.68796   0.79277   0.16657   0.00000  Uiso   1.00
C403   C     0.97871   0.87389   0.16676   0.00000  Uiso   1.00
C404   C     0.97871   0.79277   0.16678   0.00000  Uiso   1.00
H405   H     0.70404   0.76111   0.16653   0.00000  Uiso   1.00
H406   H     0.78239   0.96171   0.05883   0.00000  Uiso   1.00
H407   H     0.77736   0.75007   0.09944   0.00000  Uiso   1.00
H408   H     0.78239   0.70495   0.05883   0.00000  Uiso   1.00
H409   H     0.74369   0.70490   0.10540   0.00000  Uiso   1.00
H410   H     0.88930   0.91660   0.23390   0.00000  Uiso   1.00
H411   H     0.92298   0.96177   0.22793   0.00000  Uiso   1.00
H412   H     0.88428   0.96171   0.27450   0.00000  Uiso   1.00
H413   H     0.96262   0.90555   0.16680   0.00000  Uiso   1.00
H414   H     0.96262   0.76111   0.16683   0.00000  Uiso   1.00
H415   H     0.70404   0.90555   0.16651   0.00000  Uiso   1.00
H416   H     0.88930   0.75007   0.23390   0.00000  Uiso   1.00
H417   H     0.88428   0.70495   0.27450   0.00000  Uiso   1.00
H418   H     0.92298   0.70490   0.22793   0.00000  Uiso   1.00
H419   H     0.77736   0.91660   0.09944   0.00000  Uiso   1.00
H420   H     0.74369   0.96177   0.10540   0.00000  Uiso   1.00
N421   N     0.83333   0.95240   0.16667   0.00000  Uiso   1.00
N422   N     0.83333   0.71427   0.16667   0.00000  Uiso   1.00
O423   O     0.77226   0.87154   0.16666   0.00000  Uiso   1.00
O424   O     0.89441   0.79513   0.16667   0.00000  Uiso   1.00
O425   O     0.89441   0.87154   0.16667   0.00000  Uiso   1.00
O426   O     0.77226   0.79513   0.16666   0.00000  Uiso   1.00
O427   O     0.83334   0.87155   0.09511   0.00000  Uiso   1.00
O428   O     0.83333   0.79512   0.23822   0.00000  Uiso   1.00
O429   O     0.83333   0.87155   0.23822   0.00000  Uiso   1.00
O430   O     0.83334   0.79512   0.09511   0.00000  Uiso   1.00
Zn431  Zn    0.83333   0.88437   0.16667   0.00000  Uiso   1.00
Zn432  Zn    0.83333   0.78229   0.16667   0.00000  Uiso   1.00
C433   C     0.08679   0.16667   0.49980   0.00000  Uiso   1.00
C434   C     0.02129   0.20723   0.49989   0.00000  Uiso   1.00
C435   C     0.29080   0.16667   0.50019   0.00000  Uiso   1.00
C436   C     0.04253   0.16667   0.49982   0.00000  Uiso   1.00
C437   C     0.19351   0.02387   0.53224   0.00000  Uiso   1.00
C438   C     0.13983   0.30946   0.46776   0.00000  Uiso   1.00
C439   C     0.13983   0.02387   0.46776   0.00000  Uiso   1.00
C440   C     0.19351   0.30946   0.53224   0.00000  Uiso   1.00
C441   C     0.22388   0.04740   0.56878   0.00000  Uiso   1.00
C442   C     0.10945   0.28593   0.43122   0.00000  Uiso   1.00
C443   C     0.10945   0.04740   0.43122   0.00000  Uiso   1.00
C444   C     0.24655   0.16667   0.50020   0.00000  Uiso   1.00
C445   C     0.22388   0.28593   0.56878   0.00000  Uiso   1.00
C446   C     0.16649   0.16667   0.40639   0.00000  Uiso   1.00
C447   C     0.16684   0.16667   0.59361   0.00000  Uiso   1.00
C448   C     0.16660   0.16667   0.35517   0.00000  Uiso   1.00
C449   C     0.16673   0.16667   0.64483   0.00000  Uiso   1.00
C450   C     0.02129   0.12611   0.49991   0.00000  Uiso   1.00
C451   C     0.31204   0.20723   0.50010   0.00000  Uiso   1.00
C452   C     0.31205   0.12611   0.50011   0.00000  Uiso   1.00
H453   H     0.03738   0.09445   0.49987   0.00000  Uiso   1.00
H454   H     0.11572   0.29505   0.39216   0.00000  Uiso   1.00
H455   H     0.11070   0.08340   0.43277   0.00000  Uiso   1.00
H456   H     0.11572   0.03829   0.39216   0.00000  Uiso   1.00
H457   H     0.07702   0.03823   0.43874   0.00000  Uiso   1.00
H458   H     0.22264   0.24993   0.56723   0.00000  Uiso   1.00
H459   H     0.25631   0.29510   0.56126   0.00000  Uiso   1.00
H460   H     0.21761   0.29505   0.60784   0.00000  Uiso   1.00
H461   H     0.29596   0.23889   0.50014   0.00000  Uiso   1.00
H462   H     0.29596   0.09445   0.50016   0.00000  Uiso   1.00
H463   H     0.03738   0.23889   0.49984   0.00000  Uiso   1.00
H464   H     0.22264   0.08340   0.56723   0.00000  Uiso   1.00
H465   H     0.21761   0.03829   0.60784   0.00000  Uiso   1.00
H466   H     0.25631   0.03823   0.56126   0.00000  Uiso   1.00
H467   H     0.11070   0.24993   0.43277   0.00000  Uiso   1.00
H468   H     0.07702   0.29510   0.43874   0.00000  Uiso   1.00
N469   N     0.16667   0.28573   0.50000   0.00000  Uiso   1.00
N470   N     0.16667   0.04760   0.50000   0.00000  Uiso   1.00
O471   O     0.10559   0.20487   0.50000   0.00000  Uiso   1.00
O472   O     0.22774   0.12846   0.50000   0.00000  Uiso   1.00
O473   O     0.22774   0.20487   0.50000   0.00000  Uiso   1.00
O474   O     0.10559   0.12846   0.50000   0.00000  Uiso   1.00
O475   O     0.16667   0.20488   0.42845   0.00000  Uiso   1.00
O476   O     0.16666   0.12845   0.57155   0.00000  Uiso   1.00
O477   O     0.16666   0.20488   0.57155   0.00000  Uiso   1.00
O478   O     0.16667   0.12845   0.42845   0.00000  Uiso   1.00
Zn479  Zn    0.16667   0.21771   0.50000   0.00000  Uiso   1.00
Zn480  Zn    0.16667   0.11563   0.50000   0.00000  Uiso   1.00
C481   C     0.42012   0.16667   0.49980   0.00000  Uiso   1.00
C482   C     0.35462   0.20723   0.49989   0.00000  Uiso   1.00
C483   C     0.62413   0.16667   0.50019   0.00000  Uiso   1.00
C484   C     0.37587   0.16667   0.49982   0.00000  Uiso   1.00
C485   C     0.52684   0.02387   0.53224   0.00000  Uiso   1.00
C486   C     0.47316   0.30946   0.46776   0.00000  Uiso   1.00
C487   C     0.47316   0.02387   0.46776   0.00000  Uiso   1.00
C488   C     0.52684   0.30946   0.53224   0.00000  Uiso   1.00
C489   C     0.55722   0.04740   0.56878   0.00000  Uiso   1.00
C490   C     0.44278   0.28593   0.43122   0.00000  Uiso   1.00
C491   C     0.44278   0.04740   0.43122   0.00000  Uiso   1.00
C492   C     0.57988   0.16667   0.50020   0.00000  Uiso   1.00
C493   C     0.55722   0.28593   0.56878   0.00000  Uiso   1.00
C494   C     0.49982   0.16667   0.40639   0.00000  Uiso   1.00
C495   C     0.50018   0.16667   0.59361   0.00000  Uiso   1.00
C496   C     0.49993   0.16667   0.35517   0.00000  Uiso   1.00
C497   C     0.50007   0.16667   0.64483   0.00000  Uiso   1.00
C498   C     0.35462   0.12611   0.49991   0.00000  Uiso   1.00
C499   C     0.64538   0.20723   0.50010   0.00000  Uiso   1.00
C500   C     0.64538   0.12611   0.50011   0.00000  Uiso   1.00
H501   H     0.37071   0.09445   0.49987   0.00000  Uiso   1.00
H502   H     0.44906   0.29505   0.39216   0.00000  Uiso   1.00
H503   H     0.44403   0.08340   0.43277   0.00000  Uiso   1.00
H504   H     0.44906   0.03829   0.39216   0.00000  Uiso   1.00
H505   H     0.41036   0.03823   0.43874   0.00000  Uiso   1.00
H506   H     0.55597   0.24993   0.56723   0.00000  Uiso   1.00
H507   H     0.58964   0.29510   0.56126   0.00000  Uiso   1.00
H508   H     0.55094   0.29505   0.60784   0.00000  Uiso   1.00
H509   H     0.62929   0.23889   0.50014   0.00000  Uiso   1.00
H510   H     0.62929   0.09445   0.50016   0.00000  Uiso   1.00
H511   H     0.37071   0.23889   0.49984   0.00000  Uiso   1.00
H512   H     0.55597   0.08340   0.56723   0.00000  Uiso   1.00
H513   H     0.55094   0.03829   0.60784   0.00000  Uiso   1.00
H514   H     0.58964   0.03823   0.56126   0.00000  Uiso   1.00
H515   H     0.44403   0.24993   0.43277   0.00000  Uiso   1.00
H516   H     0.41036   0.29510   0.43874   0.00000  Uiso   1.00
N517   N     0.50000   0.28573   0.50000   0.00000  Uiso   1.00
N518   N     0.50000   0.04760   0.50000   0.00000  Uiso   1.00
O519   O     0.43892   0.20487   0.50000   0.00000  Uiso   1.00
O520   O     0.56108   0.12846   0.50000   0.00000  Uiso   1.00
O521   O     0.56108   0.20487   0.50000   0.00000  Uiso   1.00
O522   O     0.43892   0.12846   0.50000   0.00000  Uiso   1.00
O523   O     0.50000   0.20488   0.42845   0.00000  Uiso   1.00
O524   O     0.50000   0.12845   0.57155   0.00000  Uiso   1.00
O525   O     0.50000   0.20488   0.57155   0.00000  Uiso   1.00
O526   O     0.50000   0.12845   0.42845   0.00000  Uiso   1.00
Zn527  Zn    0.50000   0.21771   0.50000   0.00000  Uiso   1.00
Zn528  Zn    0.50000   0.11563   0.50000   0.00000  Uiso   1.00
C529   C     0.75345   0.16667   0.49980   0.00000  Uiso   1.00
C530   C     0.68795   0.20723   0.49989   0.00000  Uiso   1.00
C531   C     0.95747   0.16667   0.50019   0.00000  Uiso   1.00
C532   C     0.70920   0.16667   0.49982   0.00000  Uiso   1.00
C533   C     0.86017   0.02387   0.53224   0.00000  Uiso   1.00
C534   C     0.80649   0.30946   0.46776   0.00000  Uiso   1.00
C535   C     0.80649   0.02387   0.46776   0.00000  Uiso   1.00
C536   C     0.86017   0.30946   0.53224   0.00000  Uiso   1.00
C537   C     0.89055   0.04740   0.56878   0.00000  Uiso   1.00
C538   C     0.77612   0.28593   0.43122   0.00000  Uiso   1.00
C539   C     0.77612   0.04740   0.43122   0.00000  Uiso   1.00
C540   C     0.91321   0.16667   0.50020   0.00000  Uiso   1.00
C541   C     0.89055   0.28593   0.56878   0.00000  Uiso   1.00
C542   C     0.83316   0.16667   0.40639   0.00000  Uiso   1.00
C543   C     0.83351   0.16667   0.59361   0.00000  Uiso   1.00
C544   C     0.83327   0.16667   0.35517   0.00000  Uiso   1.00
C545   C     0.83340   0.16667   0.64483   0.00000  Uiso   1.00
C546   C     0.68796   0.12611   0.49991   0.00000  Uiso   1.00
C547   C     0.97871   0.20723   0.50010   0.00000  Uiso   1.00
C548   C     0.97871   0.12611   0.50011   0.00000  Uiso   1.00
H549   H     0.70404   0.09445   0.49987   0.00000  Uiso   1.00
H550   H     0.78239   0.29505   0.39216   0.00000  Uiso   1.00
H551   H     0.77736   0.08340   0.43277   0.00000  Uiso   1.00
H552   H     0.78239   0.03829   0.39216   0.00000  Uiso   1.00
H553   H     0.74369   0.03823   0.43874   0.00000  Uiso   1.00
H554   H     0.88930   0.24993   0.56723   0.00000  Uiso   1.00
H555   H     0.92298   0.29510   0.56126   0.00000  Uiso   1.00
H556   H     0.88428   0.29505   0.60784   0.00000  Uiso   1.00
H557   H     0.96262   0.23889   0.50014   0.00000  Uiso   1.00
H558   H     0.96262   0.09445   0.50016   0.00000  Uiso   1.00
H559   H     0.70404   0.23889   0.49984   0.00000  Uiso   1.00
H560   H     0.88930   0.08340   0.56723   0.00000  Uiso   1.00
H561   H     0.88428   0.03829   0.60784   0.00000  Uiso   1.00
H562   H     0.92298   0.03823   0.56126   0.00000  Uiso   1.00
H563   H     0.77736   0.24993   0.43277   0.00000  Uiso   1.00
H564   H     0.74369   0.29510   0.43874   0.00000  Uiso   1.00
N565   N     0.83333   0.28573   0.50000   0.00000  Uiso   1.00
N566   N     0.83333   0.04760   0.50000   0.00000  Uiso   1.00
O567   O     0.77226   0.20487   0.50000   0.00000  Uiso   1.00
O568   O     0.89441   0.12846   0.50000   0.00000  Uiso   1.00
O569   O     0.89441   0.20487   0.50000   0.00000  Uiso   1.00
O570   O     0.77226   0.12846   0.50000   0.00000  Uiso   1.00
O571   O     0.83334   0.20488   0.42845   0.00000  Uiso   1.00
O572   O     0.83333   0.12845   0.57155   0.00000  Uiso   1.00
O573   O     0.83333   0.20488   0.57155   0.00000  Uiso   1.00
O574   O     0.83334   0.12845   0.42845   0.00000  Uiso   1.00
Zn575  Zn    0.83333   0.21771   0.50000   0.00000  Uiso   1.00
Zn576  Zn    0.83333   0.11563   0.50000   0.00000  Uiso   1.00
C577   C     0.08679   0.50000   0.49980   0.00000  Uiso   1.00
C578   C     0.02129   0.54056   0.49989   0.00000  Uiso   1.00
C579   C     0.29080   0.50000   0.50019   0.00000  Uiso   1.00
C580   C     0.04253   0.50000   0.49982   0.00000  Uiso   1.00
C581   C     0.19351   0.35721   0.53224   0.00000  Uiso   1.00
C582   C     0.13983   0.64279   0.46776   0.00000  Uiso   1.00
C583   C     0.13983   0.35721   0.46776   0.00000  Uiso   1.00
C584   C     0.19351   0.64279   0.53224   0.00000  Uiso   1.00
C585   C     0.22388   0.38073   0.56878   0.00000  Uiso   1.00
C586   C     0.10945   0.61927   0.43122   0.00000  Uiso   1.00
C587   C     0.10945   0.38073   0.43122   0.00000  Uiso   1.00
C588   C     0.24655   0.50000   0.50020   0.00000  Uiso   1.00
C589   C     0.22388   0.61927   0.56878   0.00000  Uiso   1.00
C590   C     0.16649   0.50000   0.40639   0.00000  Uiso   1.00
C591   C     0.16684   0.50000   0.59361   0.00000  Uiso   1.00
C592   C     0.16660   0.50000   0.35517   0.00000  Uiso   1.00
C593   C     0.16673   0.50000   0.64483   0.00000  Uiso   1.00
C594   C     0.02129   0.45944   0.49991   0.00000  Uiso   1.00
C595   C     0.31204   0.54056   0.50010   0.00000  Uiso   1.00
C596   C     0.31205   0.45944   0.50011   0.00000  Uiso   1.00
H597   H     0.03738   0.42778   0.49987   0.00000  Uiso   1.00
H598   H     0.11572   0.62838   0.39216   0.00000  Uiso   1.00
H599   H     0.11070   0.41673   0.43277   0.00000  Uiso   1.00
H600   H     0.11572   0.37162   0.39216   0.00000  Uiso   1.00
H601   H     0.07702   0.37157   0.43874   0.00000  Uiso   1.00
H602   H     0.22264   0.58327   0.56723   0.00000  Uiso   1.00
H603   H     0.25631   0.62843   0.56126   0.00000  Uiso   1.00
H604   H     0.21761   0.62838   0.60784   0.00000  Uiso   1.00
H605   H     0.29596   0.57222   0.50014   0.00000  Uiso   1.00
H606   H     0.29596   0.42778   0.50016   0.00000  Uiso   1.00
H607   H     0.03738   0.57222   0.49984   0.00000  Uiso   1.00
H608   H     0.22264   0.41673   0.56723   0.00000  Uiso   1.00
H609   H     0.21761   0.37162   0.60784   0.00000  Uiso   1.00
H610   H     0.25631   0.37157   0.56126   0.00000  Uiso   1.00
H611   H     0.11070   0.58327   0.43277   0.00000  Uiso   1.00
H612   H     0.07702   0.62843   0.43874   0.00000  Uiso   1.00
N613   N     0.16667   0.61907   0.50000   0.00000  Uiso   1.00
N614   N     0.16667   0.38093   0.50000   0.00000  Uiso   1.00
O615   O     0.10559   0.53821   0.50000   0.00000  Uiso   1.00
O616   O     0.22774   0.46179   0.50000   0.00000  Uiso   1.00
O617   O     0.22774   0.53821   0.50000   0.00000  Uiso   1.00
O618   O     0.10559   0.46179   0.50000   0.00000  Uiso   1.00
O619   O     0.16667   0.53821   0.42845   0.00000  Uiso   1.00
O620   O     0.16666   0.46179   0.57155   0.00000  Uiso   1.00
O621   O     0.16666   0.53821   0.57155   0.00000  Uiso   1.00
O622   O     0.16667   0.46179   0.42845   0.00000  Uiso   1.00
Zn623  Zn    0.16667   0.55104   0.50000   0.00000  Uiso   1.00
Zn624  Zn    0.16667   0.44896   0.50000   0.00000  Uiso   1.00
C625   C     0.42012   0.50000   0.49980   0.00000  Uiso   1.00
C626   C     0.35462   0.54056   0.49989   0.00000  Uiso   1.00
C627   C     0.62413   0.50000   0.50019   0.00000  Uiso   1.00
C628   C     0.37587   0.50000   0.49982   0.00000  Uiso   1.00
C629   C     0.52684   0.35721   0.53224   0.00000  Uiso   1.00
C630   C     0.47316   0.64279   0.46776   0.00000  Uiso   1.00
C631   C     0.47316   0.35721   0.46776   0.00000  Uiso   1.00
C632   C     0.52684   0.64279   0.53224   0.00000  Uiso   1.00
C633   C     0.55722   0.38073   0.56878   0.00000  Uiso   1.00
C634   C     0.44278   0.61927   0.43122   0.00000  Uiso   1.00
C635   C     0.44278   0.38073   0.43122   0.00000  Uiso   1.00
C636   C     0.57988   0.50000   0.50020   0.00000  Uiso   1.00
C637   C     0.55722   0.61927   0.56878   0.00000  Uiso   1.00
C638   C     0.49982   0.50000   0.40639   0.00000  Uiso   1.00
C639   C     0.50018   0.50000   0.59361   0.00000  Uiso   1.00
C640   C     0.49993   0.50000   0.35517   0.00000  Uiso   1.00
C641   C     0.50007   0.50000   0.64483   0.00000  Uiso   1.00
C642   C     0.35462   0.45944   0.49991   0.00000  Uiso   1.00
C643   C     0.64538   0.54056   0.50010   0.00000  Uiso   1.00
C644   C     0.64538   0.45944   0.50011   0.00000  Uiso   1.00
H645   H     0.37071   0.42778   0.49987   0.00000  Uiso   1.00
H646   H     0.44906   0.62838   0.39216   0.00000  Uiso   1.00
H647   H     0.44403   0.41673   0.43277   0.00000  Uiso   1.00
H648   H     0.44906   0.37162   0.39216   0.00000  Uiso   1.00
H649   H     0.41036   0.37157   0.43874   0.00000  Uiso   1.00
H650   H     0.55597   0.58327   0.56723   0.00000  Uiso   1.00
H651   H     0.58964   0.62843   0.56126   0.00000  Uiso   1.00
H652   H     0.55094   0.62838   0.60784   0.00000  Uiso   1.00
H653   H     0.62929   0.57222   0.50014   0.00000  Uiso   1.00
H654   H     0.62929   0.42778   0.50016   0.00000  Uiso   1.00
H655   H     0.37071   0.57222   0.49984   0.00000  Uiso   1.00
H656   H     0.55597   0.41673   0.56723   0.00000  Uiso   1.00
H657   H     0.55094   0.37162   0.60784   0.00000  Uiso   1.00
H658   H     0.58964   0.37157   0.56126   0.00000  Uiso   1.00
H659   H     0.44403   0.58327   0.43277   0.00000  Uiso   1.00
H660   H     0.41036   0.62843   0.43874   0.00000  Uiso   1.00
N661   N     0.50000   0.61907   0.50000   0.00000  Uiso   1.00
N662   N     0.50000   0.38093   0.50000   0.00000  Uiso   1.00
O663   O     0.43892   0.53821   0.50000   0.00000  Uiso   1.00
O664   O     0.56108   0.46179   0.50000   0.00000  Uiso   1.00
O665   O     0.56108   0.53821   0.50000   0.00000  Uiso   1.00
O666   O     0.43892   0.46179   0.50000   0.00000  Uiso   1.00
O667   O     0.50000   0.53821   0.42845   0.00000  Uiso   1.00
O668   O     0.50000   0.46179   0.57155   0.00000  Uiso   1.00
O669   O     0.50000   0.53821   0.57155   0.00000  Uiso   1.00
O670   O     0.50000   0.46179   0.42845   0.00000  Uiso   1.00
Zn671  Zn    0.50000   0.55104   0.50000   0.00000  Uiso   1.00
Zn672  Zn    0.50000   0.44896   0.50000   0.00000  Uiso   1.00
C673   C     0.75345   0.50000   0.49980   0.00000  Uiso   1.00
C674   C     0.68795   0.54056   0.49989   0.00000  Uiso   1.00
C675   C     0.95747   0.50000   0.50019   0.00000  Uiso   1.00
C676   C     0.70920   0.50000   0.49982   0.00000  Uiso   1.00
C677   C     0.86017   0.35721   0.53224   0.00000  Uiso   1.00
C678   C     0.80649   0.64279   0.46776   0.00000  Uiso   1.00
C679   C     0.80649   0.35721   0.46776   0.00000  Uiso   1.00
C680   C     0.86017   0.64279   0.53224   0.00000  Uiso   1.00
C681   C     0.89055   0.38073   0.56878   0.00000  Uiso   1.00
C682   C     0.77612   0.61927   0.43122   0.00000  Uiso   1.00
C683   C     0.77612   0.38073   0.43122   0.00000  Uiso   1.00
C684   C     0.91321   0.50000   0.50020   0.00000  Uiso   1.00
C685   C     0.89055   0.61927   0.56878   0.00000  Uiso   1.00
C686   C     0.83316   0.50000   0.40639   0.00000  Uiso   1.00
C687   C     0.83351   0.50000   0.59361   0.00000  Uiso   1.00
C688   C     0.83327   0.50000   0.35517   0.00000  Uiso   1.00
C689   C     0.83340   0.50000   0.64483   0.00000  Uiso   1.00
C690   C     0.68796   0.45944   0.49991   0.00000  Uiso   1.00
C691   C     0.97871   0.54056   0.50010   0.00000  Uiso   1.00
C692   C     0.97871   0.45944   0.50011   0.00000  Uiso   1.00
H693   H     0.70404   0.42778   0.49987   0.00000  Uiso   1.00
H694   H     0.78239   0.62838   0.39216   0.00000  Uiso   1.00
H695   H     0.77736   0.41673   0.43277   0.00000  Uiso   1.00
H696   H     0.78239   0.37162   0.39216   0.00000  Uiso   1.00
H697   H     0.74369   0.37157   0.43874   0.00000  Uiso   1.00
H698   H     0.88930   0.58327   0.56723   0.00000  Uiso   1.00
H699   H     0.92298   0.62843   0.56126   0.00000  Uiso   1.00
H700   H     0.88428   0.62838   0.60784   0.00000  Uiso   1.00
H701   H     0.96262   0.57222   0.50014   0.00000  Uiso   1.00
H702   H     0.96262   0.42778   0.50016   0.00000  Uiso   1.00
H703   H     0.70404   0.57222   0.49984   0.00000  Uiso   1.00
H704   H     0.88930   0.41673   0.56723   0.00000  Uiso   1.00
H705   H     0.88428   0.37162   0.60784   0.00000  Uiso   1.00
H706   H     0.92298   0.37157   0.56126   0.00000  Uiso   1.00
H707   H     0.77736   0.58327   0.43277   0.00000  Uiso   1.00
H708   H     0.74369   0.62843   0.43874   0.00000  Uiso   1.00
N709   N     0.83333   0.61907   0.50000   0.00000  Uiso   1.00
N710   N     0.83333   0.38093   0.50000   0.00000  Uiso   1.00
O711   O     0.77226   0.53821   0.50000   0.00000  Uiso   1.00
O712   O     0.89441   0.46179   0.50000   0.00000  Uiso   1.00
O713   O     0.89441   0.53821   0.50000   0.00000  Uiso   1.00
O714   O     0.77226   0.46179   0.50000   0.00000  Uiso   1.00
O715   O     0.83334   0.53821   0.42845   0.00000  Uiso   1.00
O716   O     0.83333   0.46179   0.57155   0.00000  Uiso   1.00
O717   O     0.83333   0.53821   0.57155   0.00000  Uiso   1.00
O718   O     0.83334   0.46179   0.42845   0.00000  Uiso   1.00
Zn719  Zn    0.83333   0.55104   0.50000   0.00000  Uiso   1.00
Zn720  Zn    0.83333   0.44896   0.50000   0.00000  Uiso   1.00
C721   C     0.08679   0.83333   0.49980   0.00000  Uiso   1.00
C722   C     0.02129   0.87389   0.49989   0.00000  Uiso   1.00
C723   C     0.29080   0.83333   0.50019   0.00000  Uiso   1.00
C724   C     0.04253   0.83333   0.49982   0.00000  Uiso   1.00
C725   C     0.19351   0.69054   0.53224   0.00000  Uiso   1.00
C726   C     0.13983   0.97613   0.46776   0.00000  Uiso   1.00
C727   C     0.13983   0.69054   0.46776   0.00000  Uiso   1.00
C728   C     0.19351   0.97613   0.53224   0.00000  Uiso   1.00
C729   C     0.22388   0.71407   0.56878   0.00000  Uiso   1.00
C730   C     0.10945   0.95260   0.43122   0.00000  Uiso   1.00
C731   C     0.10945   0.71407   0.43122   0.00000  Uiso   1.00
C732   C     0.24655   0.83333   0.50020   0.00000  Uiso   1.00
C733   C     0.22388   0.95260   0.56878   0.00000  Uiso   1.00
C734   C     0.16649   0.83333   0.40639   0.00000  Uiso   1.00
C735   C     0.16684   0.83333   0.59361   0.00000  Uiso   1.00
C736   C     0.16660   0.83333   0.35517   0.00000  Uiso   1.00
C737   C     0.16673   0.83333   0.64483   0.00000  Uiso   1.00
C738   C     0.02129   0.79277   0.49991   0.00000  Uiso   1.00
C739   C     0.31204   0.87389   0.50010   0.00000  Uiso   1.00
C740   C     0.31205   0.79277   0.50011   0.00000  Uiso   1.00
H741   H     0.03738   0.76111   0.49987   0.00000  Uiso   1.00
H742   H     0.11572   0.96171   0.39216   0.00000  Uiso   1.00
H743   H     0.11070   0.75007   0.43277   0.00000  Uiso   1.00
H744   H     0.11572   0.70495   0.39216   0.00000  Uiso   1.00
H745   H     0.07702   0.70490   0.43874   0.00000  Uiso   1.00
H746   H     0.22264   0.91660   0.56723   0.00000  Uiso   1.00
H747   H     0.25631   0.96177   0.56126   0.00000  Uiso   1.00
H748   H     0.21761   0.96171   0.60784   0.00000  Uiso   1.00
H749   H     0.29596   0.90555   0.50014   0.00000  Uiso   1.00
H750   H     0.29596   0.76111   0.50016   0.00000  Uiso   1.00
H751   H     0.03738   0.90555   0.49984   0.00000  Uiso   1.00
H752   H     0.22264   0.75007   0.56723   0.00000  Uiso   1.00
H753   H     0.21761   0.70495   0.60784   0.00000  Uiso   1.00
H754   H     0.25631   0.70490   0.56126   0.00000  Uiso   1.00
H755   H     0.11070   0.91660   0.43277   0.00000  Uiso   1.00
H756   H     0.07702   0.96177   0.43874   0.00000  Uiso   1.00
N757   N     0.16667   0.95240   0.50000   0.00000  Uiso   1.00
N758   N     0.16667   0.71427   0.50000   0.00000  Uiso   1.00
O759   O     0.10559   0.87154   0.50000   0.00000  Uiso   1.00
O760   O     0.22774   0.79513   0.50000   0.00000  Uiso   1.00
O761   O     0.22774   0.87154   0.50000   0.00000  Uiso   1.00
O762   O     0.10559   0.79513   0.50000   0.00000  Uiso   1.00
O763   O     0.16667   0.87155   0.42845   0.00000  Uiso   1.00
O764   O     0.16666   0.79512   0.57155   0.00000  Uiso   1.00
O765   O     0.16666   0.87155   0.57155   0.00000  Uiso   1.00
O766   O     0.16667   0.79512   0.42845   0.00000  Uiso   1.00
Zn767  Zn    0.16667   0.88437   0.50000   0.00000  Uiso   1.00
Zn768  Zn    0.16667   0.78229   0.50000   0.00000  Uiso   1.00
C769   C     0.42012   0.83333   0.49980   0.00000  Uiso   1.00
C770   C     0.35462   0.87389   0.49989   0.00000  Uiso   1.00
C771   C     0.62413   0.83333   0.50019   0.00000  Uiso   1.00
C772   C     0.37587   0.83333   0.49982   0.00000  Uiso   1.00
C773   C     0.52684   0.69054   0.53224   0.00000  Uiso   1.00
C774   C     0.47316   0.97613   0.46776   0.00000  Uiso   1.00
C775   C     0.47316   0.69054   0.46776   0.00000  Uiso   1.00
C776   C     0.52684   0.97613   0.53224   0.00000  Uiso   1.00
C777   C     0.55722   0.71407   0.56878   0.00000  Uiso   1.00
C778   C     0.44278   0.95260   0.43122   0.00000  Uiso   1.00
C779   C     0.44278   0.71407   0.43122   0.00000  Uiso   1.00
C780   C     0.57988   0.83333   0.50020   0.00000  Uiso   1.00
C781   C     0.55722   0.95260   0.56878   0.00000  Uiso   1.00
C782   C     0.49982   0.83333   0.40639   0.00000  Uiso   1.00
C783   C     0.50018   0.83333   0.59361   0.00000  Uiso   1.00
C784   C     0.49993   0.83333   0.35517   0.00000  Uiso   1.00
C785   C     0.50007   0.83333   0.64483   0.00000  Uiso   1.00
C786   C     0.35462   0.79277   0.49991   0.00000  Uiso   1.00
C787   C     0.64538   0.87389   0.50010   0.00000  Uiso   1.00
C788   C     0.64538   0.79277   0.50011   0.00000  Uiso   1.00
H789   H     0.37071   0.76111   0.49987   0.00000  Uiso   1.00
H790   H     0.44906   0.96171   0.39216   0.00000  Uiso   1.00
H791   H     0.44403   0.75007   0.43277   0.00000  Uiso   1.00
H792   H     0.44906   0.70495   0.39216   0.00000  Uiso   1.00
H793   H     0.41036   0.70490   0.43874   0.00000  Uiso   1.00
H794   H     0.55597   0.91660   0.56723   0.00000  Uiso   1.00
H795   H     0.58964   0.96177   0.56126   0.00000  Uiso   1.00
H796   H     0.55094   0.96171   0.60784   0.00000  Uiso   1.00
H797   H     0.62929   0.90555   0.50014   0.00000  Uiso   1.00
H798   H     0.62929   0.76111   0.50016   0.00000  Uiso   1.00
H799   H     0.37071   0.90555   0.49984   0.00000  Uiso   1.00
H800   H     0.55597   0.75007   0.56723   0.00000  Uiso   1.00
H801   H     0.55094   0.70495   0.60784   0.00000  Uiso   1.00
H802   H     0.58964   0.70490   0.56126   0.00000  Uiso   1.00
H803   H     0.44403   0.91660   0.43277   0.00000  Uiso   1.00
H804   H     0.41036   0.96177   0.43874   0.00000  Uiso   1.00
N805   N     0.50000   0.95240   0.50000   0.00000  Uiso   1.00
N806   N     0.50000   0.71427   0.50000   0.00000  Uiso   1.00
O807   O     0.43892   0.87154   0.50000   0.00000  Uiso   1.00
O808   O     0.56108   0.79513   0.50000   0.00000  Uiso   1.00
O809   O     0.56108   0.87154   0.50000   0.00000  Uiso   1.00
O810   O     0.43892   0.79513   0.50000   0.00000  Uiso   1.00
O811   O     0.50000   0.87155   0.42845   0.00000  Uiso   1.00
O812   O     0.50000   0.79512   0.57155   0.00000  Uiso   1.00
O813   O     0.50000   0.87155   0.57155   0.00000  Uiso   1.00
O814   O     0.50000   0.79512   0.42845   0.00000  Uiso   1.00
Zn815  Zn    0.50000   0.88437   0.50000   0.00000  Uiso   1.00
Zn816  Zn    0.50000   0.78229   0.50000   0.00000  Uiso   1.00
C817   C     0.75345   0.83333   0.49980   0.00000  Uiso   1.00
C818   C     0.68795   0.87389   0.49989   0.00000  Uiso   1.00
C819   C     0.95747   0.83333   0.50019   0.00000  Uiso   1.00
C820   C     0.70920   0.83333   0.49982   0.00000  Uiso   1.00
C821   C     0.86017   0.69054   0.53224   0.00000  Uiso   1.00
C822   C     0.80649   0.97613   0.46776   0.00000  Uiso   1.00
C823   C     0.80649   0.69054   0.46776   0.00000  Uiso   1.00
C824   C     0.86017   0.97613   0.53224   0.00000  Uiso   1.00
C825   C     0.89055   0.71407   0.56878   0.00000  Uiso   1.00
C826   C     0.77612   0.95260   0.43122   0.00000  Uiso   1.00
C827   C     0.77612   0.71407   0.43122   0.00000  Uiso   1.00
C828   C     0.91321   0.83333   0.50020   0.00000  Uiso   1.00
C829   C     0.89055   0.95260   0.56878   0.00000  Uiso   1.00
C830   C     0.83316   0.83333   0.40639   0.00000  Uiso   1.00
C831   C     0.83351   0.83333   0.59361   0.00000  Uiso   1.00
C832   C     0.83327   0.83333   0.35517   0.00000  Uiso   1.00
C833   C     0.83340   0.83333   0.64483   0.00000  Uiso   1.00
C834   C     0.68796   0.79277   0.49991   0.00000  Uiso   1.00
C835   C     0.97871   0.87389   0.50010   0.00000  Uiso   1.00
C836   C     0.97871   0.79277   0.50011   0.00000  Uiso   1.00
H837   H     0.70404   0.76111   0.49987   0.00000  Uiso   1.00
H838   H     0.78239   0.96171   0.39216   0.00000  Uiso   1.00
H839   H     0.77736   0.75007   0.43277   0.00000  Uiso   1.00
H840   H     0.78239   0.70495   0.39216   0.00000  Uiso   1.00
H841   H     0.74369   0.70490   0.43874   0.00000  Uiso   1.00
H842   H     0.88930   0.91660   0.56723   0.00000  Uiso   1.00
H843   H     0.92298   0.96177   0.56126   0.00000  Uiso   1.00
H844   H     0.88428   0.96171   0.60784   0.00000  Uiso   1.00
H845   H     0.96262   0.90555   0.50014   0.00000  Uiso   1.00
H846   H     0.96262   0.76111   0.50016   0.00000  Uiso   1.00
H847   H     0.70404   0.90555   0.49984   0.00000  Uiso   1.00
H848   H     0.88930   0.75007   0.56723   0.00000  Uiso   1.00
H849   H     0.88428   0.70495   0.60784   0.00000  Uiso   1.00
H850   H     0.92298   0.70490   0.56126   0.00000  Uiso   1.00
H851   H     0.77736   0.91660   0.43277   0.00000  Uiso   1.00
H852   H     0.74369   0.96177   0.43874   0.00000  Uiso   1.00
N853   N     0.83333   0.95240   0.50000   0.00000  Uiso   1.00
N854   N     0.83333   0.71427   0.50000   0.00000  Uiso   1.00
O855   O     0.77226   0.87154   0.50000   0.00000  Uiso   1.00
O856   O     0.89441   0.79513   0.50000   0.00000  Uiso   1.00
O857   O     0.89441   0.87154   0.50000   0.00000  Uiso   1.00
O858   O     0.77226   0.79513   0.50000   0.00000  Uiso   1.00
O859   O     0.83334   0.87155   0.42845   0.00000  Uiso   1.00
O860   O     0.83333   0.79512   0.57155   0.00000  Uiso   1.00
O861   O     0.83333   0.87155   0.57155   0.00000  Uiso   1.00
O862   O     0.83334   0.79512   0.42845   0.00000  Uiso   1.00
Zn863  Zn    0.83333   0.88437   0.50000   0.00000  Uiso   1.00
Zn864  Zn    0.83333   0.78229   0.50000   0.00000  Uiso   1.00
C865   C     0.08679   0.16667   0.83314   0.00000  Uiso   1.00
C866   C     0.02129   0.20723   0.83323   0.00000  Uiso   1.00
C867   C     0.29080   0.16667   0.83352   0.00000  Uiso   1.00
C868   C     0.04253   0.16667   0.83315   0.00000  Uiso   1.00
C869   C     0.19351   0.02387   0.86557   0.00000  Uiso   1.00
C870   C     0.13983   0.30946   0.80110   0.00000  Uiso   1.00
C871   C     0.13983   0.02387   0.80110   0.00000  Uiso   1.00
C872   C     0.19351   0.30946   0.86557   0.00000  Uiso   1.00
C873   C     0.22388   0.04740   0.90212   0.00000  Uiso   1.00
C874   C     0.10945   0.28593   0.76455   0.00000  Uiso   1.00
C875   C     0.10945   0.04740   0.76455   0.00000  Uiso   1.00
C876   C     0.24655   0.16667   0.83353   0.00000  Uiso   1.00
C877   C     0.22388   0.28593   0.90212   0.00000  Uiso   1.00
C878   C     0.16649   0.16667   0.73973   0.00000  Uiso   1.00
C879   C     0.16684   0.16667   0.92694   0.00000  Uiso   1.00
C880   C     0.16660   0.16667   0.68850   0.00000  Uiso   1.00
C881   C     0.16673   0.16667   0.97817   0.00000  Uiso   1.00
C882   C     0.02129   0.12611   0.83324   0.00000  Uiso   1.00
C883   C     0.31204   0.20723   0.83343   0.00000  Uiso   1.00
C884   C     0.31205   0.12611   0.83344   0.00000  Uiso   1.00
H885   H     0.03738   0.09445   0.83320   0.00000  Uiso   1.00
H886   H     0.11572   0.29505   0.72550   0.00000  Uiso   1.00
H887   H     0.11070   0.08340   0.76611   0.00000  Uiso   1.00
H888   H     0.11572   0.03829   0.72550   0.00000  Uiso   1.00
H889   H     0.07702   0.03823   0.77207   0.00000  Uiso   1.00
H890   H     0.22264   0.24993   0.90056   0.00000  Uiso   1.00
H891   H     0.25631   0.29510   0.89460   0.00000  Uiso   1.00
H892   H     0.21761   0.29505   0.94117   0.00000  Uiso   1.00
H893   H     0.29596   0.23889   0.83347   0.00000  Uiso   1.00
H894   H     0.29596   0.09445   0.83349   0.00000  Uiso   1.00
H895   H     0.03738   0.23889   0.83318   0.00000  Uiso   1.00
H896   H     0.22264   0.08340   0.90056   0.00000  Uiso   1.00
H897   H     0.21761   0.03829   0.94117   0.00000  Uiso   1.00
H898   H     0.25631   0.03823   0.89460   0.00000  Uiso   1.00
H899   H     0.11070   0.24993   0.76611   0.00000  Uiso   1.00
H900   H     0.07702   0.29510   0.77207   0.00000  Uiso   1.00
N901   N     0.16667   0.28573   0.83333   0.00000  Uiso   1.00
N902   N     0.16667   0.04760   0.83333   0.00000  Uiso   1.00
O903   O     0.10559   0.20487   0.83333   0.00000  Uiso   1.00
O904   O     0.22774   0.12846   0.83334   0.00000  Uiso   1.00
O905   O     0.22774   0.20487   0.83334   0.00000  Uiso   1.00
O906   O     0.10559   0.12846   0.83333   0.00000  Uiso   1.00
O907   O     0.16667   0.20488   0.76178   0.00000  Uiso   1.00
O908   O     0.16666   0.12845   0.90489   0.00000  Uiso   1.00
O909   O     0.16666   0.20488   0.90489   0.00000  Uiso   1.00
O910   O     0.16667   0.12845   0.76178   0.00000  Uiso   1.00
Zn911  Zn    0.16667   0.21771   0.83333   0.00000  Uiso   1.00
Zn912  Zn    0.16667   0.11563   0.83333   0.00000  Uiso   1.00
C913   C     0.42012   0.16667   0.83314   0.00000  Uiso   1.00
C914   C     0.35462   0.20723   0.83323   0.00000  Uiso   1.00
C915   C     0.62413   0.16667   0.83352   0.00000  Uiso   1.00
C916   C     0.37587   0.16667   0.83315   0.00000  Uiso   1.00
C917   C     0.52684   0.02387   0.86557   0.00000  Uiso   1.00
C918   C     0.47316   0.30946   0.80110   0.00000  Uiso   1.00
C919   C     0.47316   0.02387   0.80110   0.00000  Uiso   1.00
C920   C     0.52684   0.30946   0.86557   0.00000  Uiso   1.00
C921   C     0.55722   0.04740   0.90212   0.00000  Uiso   1.00
C922   C     0.44278   0.28593   0.76455   0.00000  Uiso   1.00
C923   C     0.44278   0.04740   0.76455   0.00000  Uiso   1.00
C924   C     0.57988   0.16667   0.83353   0.00000  Uiso   1.00
C925   C     0.55722   0.28593   0.90212   0.00000  Uiso   1.00
C926   C     0.49982   0.16667   0.73973   0.00000  Uiso   1.00
C927   C     0.50018   0.16667   0.92694   0.00000  Uiso   1.00
C928   C     0.49993   0.16667   0.68850   0.00000  Uiso   1.00
C929   C     0.50007   0.16667   0.97817   0.00000  Uiso   1.00
C930   C     0.35462   0.12611   0.83324   0.00000  Uiso   1.00
C931   C     0.64538   0.20723   0.83343   0.00000  Uiso   1.00
C932   C     0.64538   0.12611   0.83344   0.00000  Uiso   1.00
H933   H     0.37071   0.09445   0.83320   0.00000  Uiso   1.00
H934   H     0.44906   0.29505   0.72550   0.00000  Uiso   1.00
H935   H     0.44403   0.08340   0.76611   0.00000  Uiso   1.00
H936   H     0.44906   0.03829   0.72550   0.00000  Uiso   1.00
H937   H     0.41036   0.03823   0.77207   0.00000  Uiso   1.00
H938   H     0.55597   0.24993   0.90056   0.00000  Uiso   1.00
H939   H     0.58964   0.29510   0.89460   0.00000  Uiso   1.00
H940   H     0.55094   0.29505   0.94117   0.00000  Uiso   1.00
H941   H     0.62929   0.23889   0.83347   0.00000  Uiso   1.00
H942   H     0.62929   0.09445   0.83349   0.00000  Uiso   1.00
H943   H     0.37071   0.23889   0.83318   0.00000  Uiso   1.00
H944   H     0.55597   0.08340   0.90056   0.00000  Uiso   1.00
H945   H     0.55094   0.03829   0.94117   0.00000  Uiso   1.00
H946   H     0.58964   0.03823   0.89460   0.00000  Uiso   1.00
H947   H     0.44403   0.24993   0.76611   0.00000  Uiso   1.00
H948   H     0.41036   0.29510   0.77207   0.00000  Uiso   1.00
N949   N     0.50000   0.28573   0.83333   0.00000  Uiso   1.00
N950   N     0.50000   0.04760   0.83333   0.00000  Uiso   1.00
O951   O     0.43892   0.20487   0.83333   0.00000  Uiso   1.00
O952   O     0.56108   0.12846   0.83334   0.00000  Uiso   1.00
O953   O     0.56108   0.20487   0.83334   0.00000  Uiso   1.00
O954   O     0.43892   0.12846   0.83333   0.00000  Uiso   1.00
O955   O     0.50000   0.20488   0.76178   0.00000  Uiso   1.00
O956   O     0.50000   0.12845   0.90489   0.00000  Uiso   1.00
O957   O     0.50000   0.20488   0.90489   0.00000  Uiso   1.00
O958   O     0.50000   0.12845   0.76178   0.00000  Uiso   1.00
Zn959  Zn    0.50000   0.21771   0.83333   0.00000  Uiso   1.00
Zn960  Zn    0.50000   0.11563   0.83333   0.00000  Uiso   1.00
C961   C     0.75345   0.16667   0.83314   0.00000  Uiso   1.00
C962   C     0.68795   0.20723   0.83323   0.00000  Uiso   1.00
C963   C     0.95747   0.16667   0.83352   0.00000  Uiso   1.00
C964   C     0.70920   0.16667   0.83315   0.00000  Uiso   1.00
C965   C     0.86017   0.02387   0.86557   0.00000  Uiso   1.00
C966   C     0.80649   0.30946   0.80110   0.00000  Uiso   1.00
C967   C     0.80649   0.02387   0.80110   0.00000  Uiso   1.00
C968   C     0.86017   0.30946   0.86557   0.00000  Uiso   1.00
C969   C     0.89055   0.04740   0.90212   0.00000  Uiso   1.00
C970   C     0.77612   0.28593   0.76455   0.00000  Uiso   1.00
C971   C     0.77612   0.04740   0.76455   0.00000  Uiso   1.00
C972   C     0.91321   0.16667   0.83353   0.00000  Uiso   1.00
C973   C     0.89055   0.28593   0.90212   0.00000  Uiso   1.00
C974   C     0.83316   0.16667   0.73973   0.00000  Uiso   1.00
C975   C     0.83351   0.16667   0.92694   0.00000  Uiso   1.00
C976   C     0.83327   0.16667   0.68850   0.00000  Uiso   1.00
C977   C     0.83340   0.16667   0.97817   0.00000  Uiso   1.00
C978   C     0.68796   0.12611   0.83324   0.00000  Uiso   1.00
C979   C     0.97871   0.20723   0.83343   0.00000  Uiso   1.00
C980   C     0.97871   0.12611   0.83344   0.00000  Uiso   1.00
H981   H     0.70404   0.09445   0.83320   0.00000  Uiso   1.00
H982   H     0.78239   0.29505   0.72550   0.00000  Uiso   1.00
H983   H     0.77736   0.08340   0.76611   0.00000  Uiso   1.00
H984   H     0.78239   0.03829   0.72550   0.00000  Uiso   1.00
H985   H     0.74369   0.03823   0.77207   0.00000  Uiso   1.00
H986   H     0.88930   0.24993   0.90056   0.00000  Uiso   1.00
H987   H     0.92298   0.29510   0.89460   0.00000  Uiso   1.00
H988   H     0.88428   0.29505   0.94117   0.00000  Uiso   1.00
H989   H     0.96262   0.23889   0.83347   0.00000  Uiso   1.00
H990   H     0.96262   0.09445   0.83349   0.00000  Uiso   1.00
H991   H     0.70404   0.23889   0.83318   0.00000  Uiso   1.00
H992   H     0.88930   0.08340   0.90056   0.00000  Uiso   1.00
H993   H     0.88428   0.03829   0.94117   0.00000  Uiso   1.00
H994   H     0.92298   0.03823   0.89460   0.00000  Uiso   1.00
H995   H     0.77736   0.24993   0.76611   0.00000  Uiso   1.00
H996   H     0.74369   0.29510   0.77207   0.00000  Uiso   1.00
N997   N     0.83333   0.28573   0.83333   0.00000  Uiso   1.00
N998   N     0.83333   0.04760   0.83333   0.00000  Uiso   1.00
O999   O     0.77226   0.20487   0.83333   0.00000  Uiso   1.00
O1000  O     0.89441   0.12846   0.83334   0.00000  Uiso   1.00
O1001  O     0.89441   0.20487   0.83334   0.00000  Uiso   1.00
O1002  O     0.77226   0.12846   0.83333   0.00000  Uiso   1.00
O1003  O     0.83334   0.20488   0.76178   0.00000  Uiso   1.00
O1004  O     0.83333   0.12845   0.90489   0.00000  Uiso   1.00
O1005  O     0.83333   0.20488   0.90489   0.00000  Uiso   1.00
O1006  O     0.83334   0.12845   0.76178   0.00000  Uiso   1.00
Zn1007 Zn    0.83333   0.21771   0.83333   0.00000  Uiso   1.00
Zn1008 Zn    0.83333   0.11563   0.83333   0.00000  Uiso   1.00
C1009  C     0.08679   0.50000   0.83314   0.00000  Uiso   1.00
C1010  C     0.02129   0.54056   0.83323   0.00000  Uiso   1.00
C1011  C     0.29080   0.50000   0.83352   0.00000  Uiso   1.00
C1012  C     0.04253   0.50000   0.83315   0.00000  Uiso   1.00
C1013  C     0.19351   0.35721   0.86557   0.00000  Uiso   1.00
C1014  C     0.13983   0.64279   0.80110   0.00000  Uiso   1.00
C1015  C     0.13983   0.35721   0.80110   0.00000  Uiso   1.00
C1016  C     0.19351   0.64279   0.86557   0.00000  Uiso   1.00
C1017  C     0.22388   0.38073   0.90212   0.00000  Uiso   1.00
C1018  C     0.10945   0.61927   0.76455   0.00000  Uiso   1.00
C1019  C     0.10945   0.38073   0.76455   0.00000  Uiso   1.00
C1020  C     0.24655   0.50000   0.83353   0.00000  Uiso   1.00
C1021  C     0.22388   0.61927   0.90212   0.00000  Uiso   1.00
C1022  C     0.16649   0.50000   0.73973   0.00000  Uiso   1.00
C1023  C     0.16684   0.50000   0.92694   0.00000  Uiso   1.00
C1024  C     0.16660   0.50000   0.68850   0.00000  Uiso   1.00
C1025  C     0.16673   0.50000   0.97817   0.00000  Uiso   1.00
C1026  C     0.02129   0.45944   0.83324   0.00000  Uiso   1.00
C1027  C     0.31204   0.54056   0.83343   0.00000  Uiso   1.00
C1028  C     0.31205   0.45944   0.83344   0.00000  Uiso   1.00
H1029  H     0.03738   0.42778   0.83320   0.00000  Uiso   1.00
H1030  H     0.11572   0.62838   0.72550   0.00000  Uiso   1.00
H1031  H     0.11070   0.41673   0.76611   0.00000  Uiso   1.00
H1032  H     0.11572   0.37162   0.72550   0.00000  Uiso   1.00
H1033  H     0.07702   0.37157   0.77207   0.00000  Uiso   1.00
H1034  H     0.22264   0.58327   0.90056   0.00000  Uiso   1.00
H1035  H     0.25631   0.62843   0.89460   0.00000  Uiso   1.00
H1036  H     0.21761   0.62838   0.94117   0.00000  Uiso   1.00
H1037  H     0.29596   0.57222   0.83347   0.00000  Uiso   1.00
H1038  H     0.29596   0.42778   0.83349   0.00000  Uiso   1.00
H1039  H     0.03738   0.57222   0.83318   0.00000  Uiso   1.00
H1040  H     0.22264   0.41673   0.90056   0.00000  Uiso   1.00
H1041  H     0.21761   0.37162   0.94117   0.00000  Uiso   1.00
H1042  H     0.25631   0.37157   0.89460   0.00000  Uiso   1.00
H1043  H     0.11070   0.58327   0.76611   0.00000  Uiso   1.00
H1044  H     0.07702   0.62843   0.77207   0.00000  Uiso   1.00
N1045  N     0.16667   0.61907   0.83333   0.00000  Uiso   1.00
N1046  N     0.16667   0.38093   0.83333   0.00000  Uiso   1.00
O1047  O     0.10559   0.53821   0.83333   0.00000  Uiso   1.00
O1048  O     0.22774   0.46179   0.83334   0.00000  Uiso   1.00
O1049  O     0.22774   0.53821   0.83334   0.00000  Uiso   1.00
O1050  O     0.10559   0.46179   0.83333   0.00000  Uiso   1.00
O1051  O     0.16667   0.53821   0.76178   0.00000  Uiso   1.00
O1052  O     0.16666   0.46179   0.90489   0.00000  Uiso   1.00
O1053  O     0.16666   0.53821   0.90489   0.00000  Uiso   1.00
O1054  O     0.16667   0.46179   0.76178   0.00000  Uiso   1.00
Zn1055 Zn    0.16667   0.55104   0.83333   0.00000  Uiso   1.00
Zn1056 Zn    0.16667   0.44896   0.83333   0.00000  Uiso   1.00
C1057  C     0.42012   0.50000   0.83314   0.00000  Uiso   1.00
C1058  C     0.35462   0.54056   0.83323   0.00000  Uiso   1.00
C1059  C     0.62413   0.50000   0.83352   0.00000  Uiso   1.00
C1060  C     0.37587   0.50000   0.83315   0.00000  Uiso   1.00
C1061  C     0.52684   0.35721   0.86557   0.00000  Uiso   1.00
C1062  C     0.47316   0.64279   0.80110   0.00000  Uiso   1.00
C1063  C     0.47316   0.35721   0.80110   0.00000  Uiso   1.00
C1064  C     0.52684   0.64279   0.86557   0.00000  Uiso   1.00
C1065  C     0.55722   0.38073   0.90212   0.00000  Uiso   1.00
C1066  C     0.44278   0.61927   0.76455   0.00000  Uiso   1.00
C1067  C     0.44278   0.38073   0.76455   0.00000  Uiso   1.00
C1068  C     0.57988   0.50000   0.83353   0.00000  Uiso   1.00
C1069  C     0.55722   0.61927   0.90212   0.00000  Uiso   1.00
C1070  C     0.49982   0.50000   0.73973   0.00000  Uiso   1.00
C1071  C     0.50018   0.50000   0.92694   0.00000  Uiso   1.00
C1072  C     0.49993   0.50000   0.68850   0.00000  Uiso   1.00
C1073  C     0.50007   0.50000   0.97817   0.00000  Uiso   1.00
C1074  C     0.35462   0.45944   0.83324   0.00000  Uiso   1.00
C1075  C     0.64538   0.54056   0.83343   0.00000  Uiso   1.00
C1076  C     0.64538   0.45944   0.83344   0.00000  Uiso   1.00
H1077  H     0.37071   0.42778   0.83320   0.00000  Uiso   1.00
H1078  H     0.44906   0.62838   0.72550   0.00000  Uiso   1.00
H1079  H     0.44403   0.41673   0.76611   0.00000  Uiso   1.00
H1080  H     0.44906   0.37162   0.72550   0.00000  Uiso   1.00
H1081  H     0.41036   0.37157   0.77207   0.00000  Uiso   1.00
H1082  H     0.55597   0.58327   0.90056   0.00000  Uiso   1.00
H1083  H     0.58964   0.62843   0.89460   0.00000  Uiso   1.00
H1084  H     0.55094   0.62838   0.94117   0.00000  Uiso   1.00
H1085  H     0.62929   0.57222   0.83347   0.00000  Uiso   1.00
H1086  H     0.62929   0.42778   0.83349   0.00000  Uiso   1.00
H1087  H     0.37071   0.57222   0.83318   0.00000  Uiso   1.00
H1088  H     0.55597   0.41673   0.90056   0.00000  Uiso   1.00
H1089  H     0.55094   0.37162   0.94117   0.00000  Uiso   1.00
H1090  H     0.58964   0.37157   0.89460   0.00000  Uiso   1.00
H1091  H     0.44403   0.58327   0.76611   0.00000  Uiso   1.00
H1092  H     0.41036   0.62843   0.77207   0.00000  Uiso   1.00
N1093  N     0.50000   0.61907   0.83333   0.00000  Uiso   1.00
N1094  N     0.50000   0.38093   0.83333   0.00000  Uiso   1.00
O1095  O     0.43892   0.53821   0.83333   0.00000  Uiso   1.00
O1096  O     0.56108   0.46179   0.83334   0.00000  Uiso   1.00
O1097  O     0.56108   0.53821   0.83334   0.00000  Uiso   1.00
O1098  O     0.43892   0.46179   0.83333   0.00000  Uiso   1.00
O1099  O     0.50000   0.53821   0.76178   0.00000  Uiso   1.00
O1100  O     0.50000   0.46179   0.90489   0.00000  Uiso   1.00
O1101  O     0.50000   0.53821   0.90489   0.00000  Uiso   1.00
O1102  O     0.50000   0.46179   0.76178   0.00000  Uiso   1.00
Zn1103 Zn    0.50000   0.55104   0.83333   0.00000  Uiso   1.00
Zn1104 Zn    0.50000   0.44896   0.83333   0.00000  Uiso   1.00
C1105  C     0.75345   0.50000   0.83314   0.00000  Uiso   1.00
C1106  C     0.68795   0.54056   0.83323   0.00000  Uiso   1.00
C1107  C     0.95747   0.50000   0.83352   0.00000  Uiso   1.00
C1108  C     0.70920   0.50000   0.83315   0.00000  Uiso   1.00
C1109  C     0.86017   0.35721   0.86557   0.00000  Uiso   1.00
C1110  C     0.80649   0.64279   0.80110   0.00000  Uiso   1.00
C1111  C     0.80649   0.35721   0.80110   0.00000  Uiso   1.00
C1112  C     0.86017   0.64279   0.86557   0.00000  Uiso   1.00
C1113  C     0.89055   0.38073   0.90212   0.00000  Uiso   1.00
C1114  C     0.77612   0.61927   0.76455   0.00000  Uiso   1.00
C1115  C     0.77612   0.38073   0.76455   0.00000  Uiso   1.00
C1116  C     0.91321   0.50000   0.83353   0.00000  Uiso   1.00
C1117  C     0.89055   0.61927   0.90212   0.00000  Uiso   1.00
C1118  C     0.83316   0.50000   0.73973   0.00000  Uiso   1.00
C1119  C     0.83351   0.50000   0.92694   0.00000  Uiso   1.00
C1120  C     0.83327   0.50000   0.68850   0.00000  Uiso   1.00
C1121  C     0.83340   0.50000   0.97817   0.00000  Uiso   1.00
C1122  C     0.68796   0.45944   0.83324   0.00000  Uiso   1.00
C1123  C     0.97871   0.54056   0.83343   0.00000  Uiso   1.00
C1124  C     0.97871   0.45944   0.83344   0.00000  Uiso   1.00
H1125  H     0.70404   0.42778   0.83320   0.00000  Uiso   1.00
H1126  H     0.78239   0.62838   0.72550   0.00000  Uiso   1.00
H1127  H     0.77736   0.41673   0.76611   0.00000  Uiso   1.00
H1128  H     0.78239   0.37162   0.72550   0.00000  Uiso   1.00
H1129  H     0.74369   0.37157   0.77207   0.00000  Uiso   1.00
H1130  H     0.88930   0.58327   0.90056   0.00000  Uiso   1.00
H1131  H     0.92298   0.62843   0.89460   0.00000  Uiso   1.00
H1132  H     0.88428   0.62838   0.94117   0.00000  Uiso   1.00
H1133  H     0.96262   0.57222   0.83347   0.00000  Uiso   1.00
H1134  H     0.96262   0.42778   0.83349   0.00000  Uiso   1.00
H1135  H     0.70404   0.57222   0.83318   0.00000  Uiso   1.00
H1136  H     0.88930   0.41673   0.90056   0.00000  Uiso   1.00
H1137  H     0.88428   0.37162   0.94117   0.00000  Uiso   1.00
H1138  H     0.92298   0.37157   0.89460   0.00000  Uiso   1.00
H1139  H     0.77736   0.58327   0.76611   0.00000  Uiso   1.00
H1140  H     0.74369   0.62843   0.77207   0.00000  Uiso   1.00
N1141  N     0.83333   0.61907   0.83333   0.00000  Uiso   1.00
N1142  N     0.83333   0.38093   0.83333   0.00000  Uiso   1.00
O1143  O     0.77226   0.53821   0.83333   0.00000  Uiso   1.00
O1144  O     0.89441   0.46179   0.83334   0.00000  Uiso   1.00
O1145  O     0.89441   0.53821   0.83334   0.00000  Uiso   1.00
O1146  O     0.77226   0.46179   0.83333   0.00000  Uiso   1.00
O1147  O     0.83334   0.53821   0.76178   0.00000  Uiso   1.00
O1148  O     0.83333   0.46179   0.90489   0.00000  Uiso   1.00
O1149  O     0.83333   0.53821   0.90489   0.00000  Uiso   1.00
O1150  O     0.83334   0.46179   0.76178   0.00000  Uiso   1.00
Zn1151 Zn    0.83333   0.55104   0.83333   0.00000  Uiso   1.00
Zn1152 Zn    0.83333   0.44896   0.83333   0.00000  Uiso   1.00
C1153  C     0.08679   0.83333   0.83314   0.00000  Uiso   1.00
C1154  C     0.02129   0.87389   0.83323   0.00000  Uiso   1.00
C1155  C     0.29080   0.83333   0.83352   0.00000  Uiso   1.00
C1156  C     0.04253   0.83333   0.83315   0.00000  Uiso   1.00
C1157  C     0.19351   0.69054   0.86557   0.00000  Uiso   1.00
C1158  C     0.13983   0.97613   0.80110   0.00000  Uiso   1.00
C1159  C     0.13983   0.69054   0.80110   0.00000  Uiso   1.00
C1160  C     0.19351   0.97613   0.86557   0.00000  Uiso   1.00
C1161  C     0.22388   0.71407   0.90212   0.00000  Uiso   1.00
C1162  C     0.10945   0.95260   0.76455   0.00000  Uiso   1.00
C1163  C     0.10945   0.71407   0.76455   0.00000  Uiso   1.00
C1164  C     0.24655   0.83333   0.83353   0.00000  Uiso   1.00
C1165  C     0.22388   0.95260   0.90212   0.00000  Uiso   1.00
C1166  C     0.16649   0.83333   0.73973   0.00000  Uiso   1.00
C1167  C     0.16684   0.83333   0.92694   0.00000  Uiso   1.00
C1168  C     0.16660   0.83333   0.68850   0.00000  Uiso   1.00
C1169  C     0.16673   0.83333   0.97817   0.00000  Uiso   1.00
C1170  C     0.02129   0.79277   0.83324   0.00000  Uiso   1.00
C1171  C     0.31204   0.87389   0.83343   0.00000  Uiso   1.00
C1172  C     0.31205   0.79277   0.83344   0.00000  Uiso   1.00
H1173  H     0.03738   0.76111   0.83320   0.00000  Uiso   1.00
H1174  H     0.11572   0.96171   0.72550   0.00000  Uiso   1.00
H1175  H     0.11070   0.75007   0.76611   0.00000  Uiso   1.00
H1176  H     0.11572   0.70495   0.72550   0.00000  Uiso   1.00
H1177  H     0.07702   0.70490   0.77207   0.00000  Uiso   1.00
H1178  H     0.22264   0.91660   0.90056   0.00000  Uiso   1.00
H1179  H     0.25631   0.96177   0.89460   0.00000  Uiso   1.00
H1180  H     0.21761   0.96171   0.94117   0.00000  Uiso   1.00
H1181  H     0.29596   0.90555   0.83347   0.00000  Uiso   1.00
H1182  H     0.29596   0.76111   0.83349   0.00000  Uiso   1.00
H1183  H     0.03738   0.90555   0.83318   0.00000  Uiso   1.00
H1184  H     0.22264   0.75007   0.90056   0.00000  Uiso   1.00
H1185  H     0.21761   0.70495   0.94117   0.00000  Uiso   1.00
H1186  H     0.25631   0.70490   0.89460   0.00000  Uiso   1.00
H1187  H     0.11070   0.91660   0.76611   0.00000  Uiso   1.00
H1188  H     0.07702   0.96177   0.77207   0.00000  Uiso   1.00
N1189  N     0.16667   0.95240   0.83333   0.00000  Uiso   1.00
N1190  N     0.16667   0.71427   0.83333   0.00000  Uiso   1.00
O1191  O     0.10559   0.87154   0.83333   0.00000  Uiso   1.00
O1192  O     0.22774   0.79513   0.83334   0.00000  Uiso   1.00
O1193  O     0.22774   0.87154   0.83334   0.00000  Uiso   1.00
O1194  O     0.10559   0.79513   0.83333   0.00000  Uiso   1.00
O1195  O     0.16667   0.87155   0.76178   0.00000  Uiso   1.00
O1196  O     0.16666   0.79512   0.90489   0.00000  Uiso   1.00
O1197  O     0.16666   0.87155   0.90489   0.00000  Uiso   1.00
O1198  O     0.16667   0.79512   0.76178   0.00000  Uiso   1.00
Zn1199 Zn    0.16667   0.88437   0.83333   0.00000  Uiso   1.00
Zn1200 Zn    0.16667   0.78229   0.83333   0.00000  Uiso   1.00
C1201  C     0.42012   0.83333   0.83314   0.00000  Uiso   1.00
C1202  C     0.35462   0.87389   0.83323   0.00000  Uiso   1.00
C1203  C     0.62413   0.83333   0.83352   0.00000  Uiso   1.00
C1204  C     0.37587   0.83333   0.83315   0.00000  Uiso   1.00
C1205  C     0.52684   0.69054   0.86557   0.00000  Uiso   1.00
C1206  C     0.47316   0.97613   0.80110   0.00000  Uiso   1.00
C1207  C     0.47316   0.69054   0.80110   0.00000  Uiso   1.00
C1208  C     0.52684   0.97613   0.86557   0.00000  Uiso   1.00
C1209  C     0.55722   0.71407   0.90212   0.00000  Uiso   1.00
C1210  C     0.44278   0.95260   0.76455   0.00000  Uiso   1.00
C1211  C     0.44278   0.71407   0.76455   0.00000  Uiso   1.00
C1212  C     0.57988   0.83333   0.83353   0.00000  Uiso   1.00
C1213  C     0.55722   0.95260   0.90212   0.00000  Uiso   1.00
C1214  C     0.49982   0.83333   0.73973   0.00000  Uiso   1.00
C1215  C     0.50018   0.83333   0.92694   0.00000  Uiso   1.00
C1216  C     0.49993   0.83333   0.68850   0.00000  Uiso   1.00
C1217  C     0.50007   0.83333   0.97817   0.00000  Uiso   1.00
C1218  C     0.35462   0.79277   0.83324   0.00000  Uiso   1.00
C1219  C     0.64538   0.87389   0.83343   0.00000  Uiso   1.00
C1220  C     0.64538   0.79277   0.83344   0.00000  Uiso   1.00
H1221  H     0.37071   0.76111   0.83320   0.00000  Uiso   1.00
H1222  H     0.44906   0.96171   0.72550   0.00000  Uiso   1.00
H1223  H     0.44403   0.75007   0.76611   0.00000  Uiso   1.00
H1224  H     0.44906   0.70495   0.72550   0.00000  Uiso   1.00
H1225  H     0.41036   0.70490   0.77207   0.00000  Uiso   1.00
H1226  H     0.55597   0.91660   0.90056   0.00000  Uiso   1.00
H1227  H     0.58964   0.96177   0.89460   0.00000  Uiso   1.00
H1228  H     0.55094   0.96171   0.94117   0.00000  Uiso   1.00
H1229  H     0.62929   0.90555   0.83347   0.00000  Uiso   1.00
H1230  H     0.62929   0.76111   0.83349   0.00000  Uiso   1.00
H1231  H     0.37071   0.90555   0.83318   0.00000  Uiso   1.00
H1232  H     0.55597   0.75007   0.90056   0.00000  Uiso   1.00
H1233  H     0.55094   0.70495   0.94117   0.00000  Uiso   1.00
H1234  H     0.58964   0.70490   0.89460   0.00000  Uiso   1.00
H1235  H     0.44403   0.91660   0.76611   0.00000  Uiso   1.00
H1236  H     0.41036   0.96177   0.77207   0.00000  Uiso   1.00
N1237  N     0.50000   0.95240   0.83333   0.00000  Uiso   1.00
N1238  N     0.50000   0.71427   0.83333   0.00000  Uiso   1.00
O1239  O     0.43892   0.87154   0.83333   0.00000  Uiso   1.00
O1240  O     0.56108   0.79513   0.83334   0.00000  Uiso   1.00
O1241  O     0.56108   0.87154   0.83334   0.00000  Uiso   1.00
O1242  O     0.43892   0.79513   0.83333   0.00000  Uiso   1.00
O1243  O     0.50000   0.87155   0.76178   0.00000  Uiso   1.00
O1244  O     0.50000   0.79512   0.90489   0.00000  Uiso   1.00
O1245  O     0.50000   0.87155   0.90489   0.00000  Uiso   1.00
O1246  O     0.50000   0.79512   0.76178   0.00000  Uiso   1.00
Zn1247 Zn    0.50000   0.88437   0.83333   0.00000  Uiso   1.00
Zn1248 Zn    0.50000   0.78229   0.83333   0.00000  Uiso   1.00
C1249  C     0.75345   0.83333   0.83314   0.00000  Uiso   1.00
C1250  C     0.68795   0.87389   0.83323   0.00000  Uiso   1.00
C1251  C     0.95747   0.83333   0.83352   0.00000  Uiso   1.00
C1252  C     0.70920   0.83333   0.83315   0.00000  Uiso   1.00
C1253  C     0.86017   0.69054   0.86557   0.00000  Uiso   1.00
C1254  C     0.80649   0.97613   0.80110   0.00000  Uiso   1.00
C1255  C     0.80649   0.69054   0.80110   0.00000  Uiso   1.00
C1256  C     0.86017   0.97613   0.86557   0.00000  Uiso   1.00
C1257  C     0.89055   0.71407   0.90212   0.00000  Uiso   1.00
C1258  C     0.77612   0.95260   0.76455   0.00000  Uiso   1.00
C1259  C     0.77612   0.71407   0.76455   0.00000  Uiso   1.00
C1260  C     0.91321   0.83333   0.83353   0.00000  Uiso   1.00
C1261  C     0.89055   0.95260   0.90212   0.00000  Uiso   1.00
C1262  C     0.83316   0.83333   0.73973   0.00000  Uiso   1.00
C1263  C     0.83351   0.83333   0.92694   0.00000  Uiso   1.00
C1264  C     0.83327   0.83333   0.68850   0.00000  Uiso   1.00
C1265  C     0.83340   0.83333   0.97817   0.00000  Uiso   1.00
C1266  C     0.68796   0.79277   0.83324   0.00000  Uiso   1.00
C1267  C     0.97871   0.87389   0.83343   0.00000  Uiso   1.00
C1268  C     0.97871   0.79277   0.83344   0.00000  Uiso   1.00
H1269  H     0.70404   0.76111   0.83320   0.00000  Uiso   1.00
H1270  H     0.78239   0.96171   0.72550   0.00000  Uiso   1.00
H1271  H     0.77736   0.75007   0.76611   0.00000  Uiso   1.00
H1272  H     0.78239   0.70495   0.72550   0.00000  Uiso   1.00
H1273  H     0.74369   0.70490   0.77207   0.00000  Uiso   1.00
H1274  H     0.88930   0.91660   0.90056   0.00000  Uiso   1.00
H1275  H     0.92298   0.96177   0.89460   0.00000  Uiso   1.00
H1276  H     0.88428   0.96171   0.94117   0.00000  Uiso   1.00
H1277  H     0.96262   0.90555   0.83347   0.00000  Uiso   1.00
H1278  H     0.96262   0.76111   0.83349   0.00000  Uiso   1.00
H1279  H     0.70404   0.90555   0.83318   0.00000  Uiso   1.00
H1280  H     0.88930   0.75007   0.90056   0.00000  Uiso   1.00
H1281  H     0.88428   0.70495   0.94117   0.00000  Uiso   1.00
H1282  H     0.92298   0.70490   0.89460   0.00000  Uiso   1.00
H1283  H     0.77736   0.91660   0.76611   0.00000  Uiso   1.00
H1284  H     0.74369   0.96177   0.77207   0.00000  Uiso   1.00
N1285  N     0.83333   0.95240   0.83333   0.00000  Uiso   1.00
N1286  N     0.83333   0.71427   0.83333   0.00000  Uiso   1.00
O1287  O     0.77226   0.87154   0.83333   0.00000  Uiso   1.00
O1288  O     0.89441   0.79513   0.83334   0.00000  Uiso   1.00
O1289  O     0.89441   0.87154   0.83334   0.00000  Uiso   1.00
O1290  O     0.77226   0.79513   0.83333   0.00000  Uiso   1.00
O1291  O     0.83334   0.87155   0.76178   0.00000  Uiso   1.00
O1292  O     0.83333   0.79512   0.90489   0.00000  Uiso   1.00
O1293  O     0.83333   0.87155   0.90489   0.00000  Uiso   1.00
O1294  O     0.83334   0.79512   0.76178   0.00000  Uiso   1.00
Zn1295 Zn    0.83333   0.88437   0.83333   0.00000  Uiso   1.00
Zn1296 Zn    0.83333   0.78229   0.83333   0.00000  Uiso   1.00
loop_
_geom_bond_atom_site_label_1
_geom_bond_atom_site_label_2
_geom_bond_distance
_geom_bond_site_symmetry_2
_ccdc_geom_bond_type
C1     C4      1.424   .     S
C1     O39     1.298   .     A
C1     O42     1.298   .     A
C2     C4      1.398   .     A
C2     H31     1.083   .     S
C2     C115    1.370   1_455 S
C3     C20     1.398   .     A
C3     C19     1.398   .     A
C3     C12     1.424   .     S
C4     C18     1.398   .     A
C5     C9      1.513   .     S
C5     N38     1.380   .     A
C5     C296    1.435   1_545 S
C6     C10     1.513   .     S
C6     N37     1.380   .     A
C6     C151    1.435   .     S
C7     N38     1.380   .     A
C7     C11     1.513   .     S
C7     C294    1.435   1_545 S
C8     C13     1.513   .     S
C8     N37     1.380   .     A
C8     C149    1.435   .     S
C9     H33     1.110   .     S
C9     H34     1.109   .     S
C9     H32     1.084   .     S
C10    H22     1.110   .     S
C10    H36     1.109   .     S
C10    H35     1.084   .     S
C11    H24     1.110   .     S
C11    H23     1.084   .     S
C11    H25     1.109   .     S
C12    O41     1.298   .     A
C12    O40     1.298   .     A
C13    H28     1.110   .     S
C13    H26     1.084   .     S
C13    H27     1.109   .     S
C14    O43     1.291   .     A
C14    O46     1.291   .     A
C14    C16     1.369   .     S
C15    O44     1.291   .     A
C15    C17     1.369   .     S
C15    O45     1.291   .     A
C16    C881    1.167   1_554 S
C17    C448    1.167   .     S
C18    H21     1.083   .     S
C18    C116    1.370   1_455 S
C19    H29     1.083   .     S
C19    C50     1.370   .     S
C20    H30     1.083   .     S
C20    C66     1.370   .     S
N37    Zn47    2.045   .     S
N38    Zn48    2.045   .     S
O39    Zn47    2.003   .     S
O40    Zn48    2.003   .     S
O41    Zn47    2.003   .     S
O42    Zn48    2.003   .     S
O43    Zn47    1.950   .     S
O44    Zn48    1.950   .     S
O45    Zn47    1.950   .     S
O46    Zn48    1.950   .     S
C49    C52     1.424   .     S
C49    O87     1.298   .     A
C49    O90     1.298   .     A
C50    C52     1.398   .     A
C50    H79     1.083   .     S
C51    C68     1.398   .     A
C51    C67     1.398   .     A
C51    C60     1.424   .     S
C52    C66     1.398   .     A
C53    C57     1.513   .     S
C53    N86     1.380   .     A
C53    C344    1.435   1_545 S
C54    C58     1.513   .     S
C54    N85     1.380   .     A
C54    C199    1.435   .     S
C55    N86     1.380   .     A
C55    C59     1.513   .     S
C55    C342    1.435   1_545 S
C56    C61     1.513   .     S
C56    N85     1.380   .     A
C56    C197    1.435   .     S
C57    H81     1.110   .     S
C57    H82     1.109   .     S
C57    H80     1.084   .     S
C58    H70     1.110   .     S
C58    H84     1.109   .     S
C58    H83     1.084   .     S
C59    H72     1.110   .     S
C59    H71     1.084   .     S
C59    H73     1.109   .     S
C60    O89     1.298   .     A
C60    O88     1.298   .     A
C61    H76     1.110   .     S
C61    H74     1.084   .     S
C61    H75     1.109   .     S
C62    O91     1.291   .     A
C62    O94     1.291   .     A
C62    C64     1.369   .     S
C63    O92     1.291   .     A
C63    C65     1.369   .     S
C63    O93     1.291   .     A
C64    C929    1.167   1_554 S
C65    C496    1.167   .     S
C66    H69     1.083   .     S
C67    H77     1.083   .     S
C67    C98     1.370   .     S
C68    H78     1.083   .     S
C68    C114    1.370   .     S
N85    Zn95    2.045   .     S
N86    Zn96    2.045   .     S
O87    Zn95    2.003   .     S
O88    Zn96    2.003   .     S
O89    Zn95    2.003   .     S
O90    Zn96    2.003   .     S
O91    Zn95    1.950   .     S
O92    Zn96    1.950   .     S
O93    Zn95    1.950   .     S
O94    Zn96    1.950   .     S
C97    C100    1.424   .     S
C97    O135    1.298   .     A
C97    O138    1.298   .     A
C98    C100    1.398   .     A
C98    H127    1.083   .     S
C99    C116    1.398   .     A
C99    C115    1.398   .     A
C99    C108    1.424   .     S
C100   C114    1.398   .     A
C101   C105    1.513   .     S
C101   N134    1.380   .     A
C101   C392    1.435   1_545 S
C102   C106    1.513   .     S
C102   N133    1.380   .     A
C102   C247    1.435   .     S
C103   N134    1.380   .     A
C103   C107    1.513   .     S
C103   C390    1.435   1_545 S
C104   C109    1.513   .     S
C104   N133    1.380   .     A
C104   C245    1.435   .     S
C105   H129    1.110   .     S
C105   H130    1.109   .     S
C105   H128    1.084   .     S
C106   H118    1.110   .     S
C106   H132    1.109   .     S
C106   H131    1.084   .     S
C107   H120    1.110   .     S
C107   H119    1.084   .     S
C107   H121    1.109   .     S
C108   O137    1.298   .     A
C108   O136    1.298   .     A
C109   H124    1.110   .     S
C109   H122    1.084   .     S
C109   H123    1.109   .     S
C110   O139    1.291   .     A
C110   O142    1.291   .     A
C110   C112    1.369   .     S
C111   O140    1.291   .     A
C111   C113    1.369   .     S
C111   O141    1.291   .     A
C112   C977    1.167   1_554 S
C113   C544    1.167   .     S
C114   H117    1.083   .     S
C115   H125    1.083   .     S
C115   C2      1.370   1_655 S
C116   H126    1.083   .     S
C116   C18     1.370   1_655 S
N133   Zn143   2.045   .     S
N134   Zn144   2.045   .     S
O135   Zn143   2.003   .     S
O136   Zn144   2.003   .     S
O137   Zn143   2.003   .     S
O138   Zn144   2.003   .     S
O139   Zn143   1.950   .     S
O140   Zn144   1.950   .     S
O141   Zn143   1.950   .     S
O142   Zn144   1.950   .     S
C145   C148    1.424   .     S
C145   O183    1.298   .     A
C145   O186    1.298   .     A
C146   C148    1.398   .     A
C146   H175    1.083   .     S
C146   C259    1.370   1_455 S
C147   C164    1.398   .     A
C147   C163    1.398   .     A
C147   C156    1.424   .     S
C148   C162    1.398   .     A
C149   C153    1.513   .     S
C149   N182    1.380   .     A
C150   C154    1.513   .     S
C150   N181    1.380   .     A
C150   C295    1.435   .     S
C151   N182    1.380   .     A
C151   C155    1.513   .     S
C152   C157    1.513   .     S
C152   N181    1.380   .     A
C152   C293    1.435   .     S
C153   H177    1.110   .     S
C153   H178    1.109   .     S
C153   H176    1.084   .     S
C154   H166    1.110   .     S
C154   H180    1.109   .     S
C154   H179    1.084   .     S
C155   H168    1.110   .     S
C155   H167    1.084   .     S
C155   H169    1.109   .     S
C156   O185    1.298   .     A
C156   O184    1.298   .     A
C157   H172    1.110   .     S
C157   H170    1.084   .     S
C157   H171    1.109   .     S
C158   O187    1.291   .     A
C158   O190    1.291   .     A
C158   C160    1.369   .     S
C159   O188    1.291   .     A
C159   C161    1.369   .     S
C159   O189    1.291   .     A
C160   C1025   1.167   1_554 S
C161   C592    1.167   .     S
C162   H165    1.083   .     S
C162   C260    1.370   1_455 S
C163   H173    1.083   .     S
C163   C194    1.370   .     S
C164   H174    1.083   .     S
C164   C210    1.370   .     S
N181   Zn191   2.045   .     S
N182   Zn192   2.045   .     S
O183   Zn191   2.003   .     S
O184   Zn192   2.003   .     S
O185   Zn191   2.003   .     S
O186   Zn192   2.003   .     S
O187   Zn191   1.950   .     S
O188   Zn192   1.950   .     S
O189   Zn191   1.950   .     S
O190   Zn192   1.950   .     S
C193   C196    1.424   .     S
C193   O231    1.298   .     A
C193   O234    1.298   .     A
C194   C196    1.398   .     A
C194   H223    1.083   .     S
C195   C212    1.398   .     A
C195   C211    1.398   .     A
C195   C204    1.424   .     S
C196   C210    1.398   .     A
C197   C201    1.513   .     S
C197   N230    1.380   .     A
C198   C202    1.513   .     S
C198   N229    1.380   .     A
C198   C343    1.435   .     S
C199   N230    1.380   .     A
C199   C203    1.513   .     S
C200   C205    1.513   .     S
C200   N229    1.380   .     A
C200   C341    1.435   .     S
C201   H225    1.110   .     S
C201   H226    1.109   .     S
C201   H224    1.084   .     S
C202   H214    1.110   .     S
C202   H228    1.109   .     S
C202   H227    1.084   .     S
C203   H216    1.110   .     S
C203   H215    1.084   .     S
C203   H217    1.109   .     S
C204   O233    1.298   .     A
C204   O232    1.298   .     A
C205   H220    1.110   .     S
C205   H218    1.084   .     S
C205   H219    1.109   .     S
C206   O235    1.291   .     A
C206   O238    1.291   .     A
C206   C208    1.369   .     S
C207   O236    1.291   .     A
C207   C209    1.369   .     S
C207   O237    1.291   .     A
C208   C1073   1.167   1_554 S
C209   C640    1.167   .     S
C210   H213    1.083   .     S
C211   H221    1.083   .     S
C211   C242    1.370   .     S
C212   H222    1.083   .     S
C212   C258    1.370   .     S
N229   Zn239   2.045   .     S
N230   Zn240   2.045   .     S
O231   Zn239   2.003   .     S
O232   Zn240   2.003   .     S
O233   Zn239   2.003   .     S
O234   Zn240   2.003   .     S
O235   Zn239   1.950   .     S
O236   Zn240   1.950   .     S
O237   Zn239   1.950   .     S
O238   Zn240   1.950   .     S
C241   C244    1.424   .     S
C241   O279    1.298   .     A
C241   O282    1.298   .     A
C242   C244    1.398   .     A
C242   H271    1.083   .     S
C243   C260    1.398   .     A
C243   C259    1.398   .     A
C243   C252    1.424   .     S
C244   C258    1.398   .     A
C245   C249    1.513   .     S
C245   N278    1.380   .     A
C246   C250    1.513   .     S
C246   N277    1.380   .     A
C246   C391    1.435   .     S
C247   N278    1.380   .     A
C247   C251    1.513   .     S
C248   C253    1.513   .     S
C248   N277    1.380   .     A
C248   C389    1.435   .     S
C249   H273    1.110   .     S
C249   H274    1.109   .     S
C249   H272    1.084   .     S
C250   H262    1.110   .     S
C250   H276    1.109   .     S
C250   H275    1.084   .     S
C251   H264    1.110   .     S
C251   H263    1.084   .     S
C251   H265    1.109   .     S
C252   O281    1.298   .     A
C252   O280    1.298   .     A
C253   H268    1.110   .     S
C253   H266    1.084   .     S
C253   H267    1.109   .     S
C254   O283    1.291   .     A
C254   O286    1.291   .     A
C254   C256    1.369   .     S
C255   O284    1.291   .     A
C255   C257    1.369   .     S
C255   O285    1.291   .     A
C256   C1121   1.167   1_554 S
C257   C688    1.167   .     S
C258   H261    1.083   .     S
C259   H269    1.083   .     S
C259   C146    1.370   1_655 S
C260   H270    1.083   .     S
C260   C162    1.370   1_655 S
N277   Zn287   2.045   .     S
N278   Zn288   2.045   .     S
O279   Zn287   2.003   .     S
O280   Zn288   2.003   .     S
O281   Zn287   2.003   .     S
O282   Zn288   2.003   .     S
O283   Zn287   1.950   .     S
O284   Zn288   1.950   .     S
O285   Zn287   1.950   .     S
O286   Zn288   1.950   .     S
C289   C292    1.424   .     S
C289   O327    1.298   .     A
C289   O330    1.298   .     A
C290   C292    1.398   .     A
C290   H319    1.083   .     S
C290   C403    1.370   1_455 S
C291   C308    1.398   .     A
C291   C307    1.398   .     A
C291   C300    1.424   .     S
C292   C306    1.398   .     A
C293   C297    1.513   .     S
C293   N326    1.380   .     A
C294   C298    1.513   .     S
C294   N325    1.380   .     A
C294   C7      1.435   1_565 S
C295   N326    1.380   .     A
C295   C299    1.513   .     S
C296   C301    1.513   .     S
C296   N325    1.380   .     A
C296   C5      1.435   1_565 S
C297   H321    1.110   .     S
C297   H322    1.109   .     S
C297   H320    1.084   .     S
C298   H310    1.110   .     S
C298   H324    1.109   .     S
C298   H323    1.084   .     S
C299   H312    1.110   .     S
C299   H311    1.084   .     S
C299   H313    1.109   .     S
C300   O329    1.298   .     A
C300   O328    1.298   .     A
C301   H316    1.110   .     S
C301   H314    1.084   .     S
C301   H315    1.109   .     S
C302   O331    1.291   .     A
C302   O334    1.291   .     A
C302   C304    1.369   .     S
C303   O332    1.291   .     A
C303   C305    1.369   .     S
C303   O333    1.291   .     A
C304   C1169   1.167   1_554 S
C305   C736    1.167   .     S
C306   H309    1.083   .     S
C306   C404    1.370   1_455 S
C307   H317    1.083   .     S
C307   C338    1.370   .     S
C308   H318    1.083   .     S
C308   C354    1.370   .     S
N325   Zn335   2.045   .     S
N326   Zn336   2.045   .     S
O327   Zn335   2.003   .     S
O328   Zn336   2.003   .     S
O329   Zn335   2.003   .     S
O330   Zn336   2.003   .     S
O331   Zn335   1.950   .     S
O332   Zn336   1.950   .     S
O333   Zn335   1.950   .     S
O334   Zn336   1.950   .     S
C337   C340    1.424   .     S
C337   O375    1.298   .     A
C337   O378    1.298   .     A
C338   C340    1.398   .     A
C338   H367    1.083   .     S
C339   C356    1.398   .     A
C339   C355    1.398   .     A
C339   C348    1.424   .     S
C340   C354    1.398   .     A
C341   C345    1.513   .     S
C341   N374    1.380   .     A
C342   C346    1.513   .     S
C342   N373    1.380   .     A
C342   C55     1.435   1_565 S
C343   N374    1.380   .     A
C343   C347    1.513   .     S
C344   C349    1.513   .     S
C344   N373    1.380   .     A
C344   C53     1.435   1_565 S
C345   H369    1.110   .     S
C345   H370    1.109   .     S
C345   H368    1.084   .     S
C346   H358    1.110   .     S
C346   H372    1.109   .     S
C346   H371    1.084   .     S
C347   H360    1.110   .     S
C347   H359    1.084   .     S
C347   H361    1.109   .     S
C348   O377    1.298   .     A
C348   O376    1.298   .     A
C349   H364    1.110   .     S
C349   H362    1.084   .     S
C349   H363    1.109   .     S
C350   O379    1.291   .     A
C350   O382    1.291   .     A
C350   C352    1.369   .     S
C351   O380    1.291   .     A
C351   C353    1.369   .     S
C351   O381    1.291   .     A
C352   C1217   1.167   1_554 S
C353   C784    1.167   .     S
C354   H357    1.083   .     S
C355   H365    1.083   .     S
C355   C386    1.370   .     S
C356   H366    1.083   .     S
C356   C402    1.370   .     S
N373   Zn383   2.045   .     S
N374   Zn384   2.045   .     S
O375   Zn383   2.003   .     S
O376   Zn384   2.003   .     S
O377   Zn383   2.003   .     S
O378   Zn384   2.003   .     S
O379   Zn383   1.950   .     S
O380   Zn384   1.950   .     S
O381   Zn383   1.950   .     S
O382   Zn384   1.950   .     S
C385   C388    1.424   .     S
C385   O423    1.298   .     A
C385   O426    1.298   .     A
C386   C388    1.398   .     A
C386   H415    1.083   .     S
C387   C404    1.398   .     A
C387   C403    1.398   .     A
C387   C396    1.424   .     S
C388   C402    1.398   .     A
C389   C393    1.513   .     S
C389   N422    1.380   .     A
C390   C394    1.513   .     S
C390   N421    1.380   .     A
C390   C103    1.435   1_565 S
C391   N422    1.380   .     A
C391   C395    1.513   .     S
C392   C397    1.513   .     S
C392   N421    1.380   .     A
C392   C101    1.435   1_565 S
C393   H417    1.110   .     S
C393   H418    1.109   .     S
C393   H416    1.084   .     S
C394   H406    1.110   .     S
C394   H420    1.109   .     S
C394   H419    1.084   .     S
C395   H408    1.110   .     S
C395   H407    1.084   .     S
C395   H409    1.109   .     S
C396   O425    1.298   .     A
C396   O424    1.298   .     A
C397   H412    1.110   .     S
C397   H410    1.084   .     S
C397   H411    1.109   .     S
C398   O427    1.291   .     A
C398   O430    1.291   .     A
C398   C400    1.369   .     S
C399   O428    1.291   .     A
C399   C401    1.369   .     S
C399   O429    1.291   .     A
C400   C1265   1.167   1_554 S
C401   C832    1.167   .     S
C402   H405    1.083   .     S
C403   H413    1.083   .     S
C403   C290    1.370   1_655 S
C404   H414    1.083   .     S
C404   C306    1.370   1_655 S
N421   Zn431   2.045   .     S
N422   Zn432   2.045   .     S
O423   Zn431   2.003   .     S
O424   Zn432   2.003   .     S
O425   Zn431   2.003   .     S
O426   Zn432   2.003   .     S
O427   Zn431   1.950   .     S
O428   Zn432   1.950   .     S
O429   Zn431   1.950   .     S
O430   Zn432   1.950   .     S
C433   C436    1.424   .     S
C433   O471    1.298   .     A
C433   O474    1.298   .     A
C434   C436    1.398   .     A
C434   H463    1.083   .     S
C434   C547    1.370   1_455 S
C435   C452    1.398   .     A
C435   C451    1.398   .     A
C435   C444    1.424   .     S
C436   C450    1.398   .     A
C437   C441    1.513   .     S
C437   N470    1.380   .     A
C437   C728    1.435   1_545 S
C438   C442    1.513   .     S
C438   N469    1.380   .     A
C438   C583    1.435   .     S
C439   N470    1.380   .     A
C439   C443    1.513   .     S
C439   C726    1.435   1_545 S
C440   C445    1.513   .     S
C440   N469    1.380   .     A
C440   C581    1.435   .     S
C441   H465    1.110   .     S
C441   H466    1.109   .     S
C441   H464    1.084   .     S
C442   H454    1.110   .     S
C442   H468    1.109   .     S
C442   H467    1.084   .     S
C443   H456    1.110   .     S
C443   H455    1.084   .     S
C443   H457    1.109   .     S
C444   O473    1.298   .     A
C444   O472    1.298   .     A
C445   H460    1.110   .     S
C445   H458    1.084   .     S
C445   H459    1.109   .     S
C446   O475    1.291   .     A
C446   O478    1.291   .     A
C446   C448    1.369   .     S
C447   O476    1.291   .     A
C447   C449    1.369   .     S
C447   O477    1.291   .     A
C449   C880    1.167   .     S
C450   H453    1.083   .     S
C450   C548    1.370   1_455 S
C451   H461    1.083   .     S
C451   C482    1.370   .     S
C452   H462    1.083   .     S
C452   C498    1.370   .     S
N469   Zn479   2.045   .     S
N470   Zn480   2.045   .     S
O471   Zn479   2.003   .     S
O472   Zn480   2.003   .     S
O473   Zn479   2.003   .     S
O474   Zn480   2.003   .     S
O475   Zn479   1.950   .     S
O476   Zn480   1.950   .     S
O477   Zn479   1.950   .     S
O478   Zn480   1.950   .     S
C481   C484    1.424   .     S
C481   O519    1.298   .     A
C481   O522    1.298   .     A
C482   C484    1.398   .     A
C482   H511    1.083   .     S
C483   C500    1.398   .     A
C483   C499    1.398   .     A
C483   C492    1.424   .     S
C484   C498    1.398   .     A
C485   C489    1.513   .     S
C485   N518    1.380   .     A
C485   C776    1.435   1_545 S
C486   C490    1.513   .     S
C486   N517    1.380   .     A
C486   C631    1.435   .     S
C487   N518    1.380   .     A
C487   C491    1.513   .     S
C487   C774    1.435   1_545 S
C488   C493    1.513   .     S
C488   N517    1.380   .     A
C488   C629    1.435   .     S
C489   H513    1.110   .     S
C489   H514    1.109   .     S
C489   H512    1.084   .     S
C490   H502    1.110   .     S
C490   H516    1.109   .     S
C490   H515    1.084   .     S
C491   H504    1.110   .     S
C491   H503    1.084   .     S
C491   H505    1.109   .     S
C492   O521    1.298   .     A
C492   O520    1.298   .     A
C493   H508    1.110   .     S
C493   H506    1.084   .     S
C493   H507    1.109   .     S
C494   O523    1.291   .     A
C494   O526    1.291   .     A
C494   C496    1.369   .     S
C495   O524    1.291   .     A
C495   C497    1.369   .     S
C495   O525    1.291   .     A
C497   C928    1.167   .     S
C498   H501    1.083   .     S
C499   H509    1.083   .     S
C499   C530    1.370   .     S
C500   H510    1.083   .     S
C500   C546    1.370   .     S
N517   Zn527   2.045   .     S
N518   Zn528   2.045   .     S
O519   Zn527   2.003   .     S
O520   Zn528   2.003   .     S
O521   Zn527   2.003   .     S
O522   Zn528   2.003   .     S
O523   Zn527   1.950   .     S
O524   Zn528   1.950   .     S
O525   Zn527   1.950   .     S
O526   Zn528   1.950   .     S
C529   C532    1.424   .     S
C529   O567    1.298   .     A
C529   O570    1.298   .     A
C530   C532    1.398   .     A
C530   H559    1.083   .     S
C531   C548    1.398   .     A
C531   C547    1.398   .     A
C531   C540    1.424   .     S
C532   C546    1.398   .     A
C533   C537    1.513   .     S
C533   N566    1.380   .     A
C533   C824    1.435   1_545 S
C534   C538    1.513   .     S
C534   N565    1.380   .     A
C534   C679    1.435   .     S
C535   N566    1.380   .     A
C535   C539    1.513   .     S
C535   C822    1.435   1_545 S
C536   C541    1.513   .     S
C536   N565    1.380   .     A
C536   C677    1.435   .     S
C537   H561    1.110   .     S
C537   H562    1.109   .     S
C537   H560    1.084   .     S
C538   H550    1.110   .     S
C538   H564    1.109   .     S
C538   H563    1.084   .     S
C539   H552    1.110   .     S
C539   H551    1.084   .     S
C539   H553    1.109   .     S
C540   O569    1.298   .     A
C540   O568    1.298   .     A
C541   H556    1.110   .     S
C541   H554    1.084   .     S
C541   H555    1.109   .     S
C542   O571    1.291   .     A
C542   O574    1.291   .     A
C542   C544    1.369   .     S
C543   O572    1.291   .     A
C543   C545    1.369   .     S
C543   O573    1.291   .     A
C545   C976    1.167   .     S
C546   H549    1.083   .     S
C547   H557    1.083   .     S
C547   C434    1.370   1_655 S
C548   H558    1.083   .     S
C548   C450    1.370   1_655 S
N565   Zn575   2.045   .     S
N566   Zn576   2.045   .     S
O567   Zn575   2.003   .     S
O568   Zn576   2.003   .     S
O569   Zn575   2.003   .     S
O570   Zn576   2.003   .     S
O571   Zn575   1.950   .     S
O572   Zn576   1.950   .     S
O573   Zn575   1.950   .     S
O574   Zn576   1.950   .     S
C577   C580    1.424   .     S
C577   O615    1.298   .     A
C577   O618    1.298   .     A
C578   C580    1.398   .     A
C578   H607    1.083   .     S
C578   C691    1.370   1_455 S
C579   C596    1.398   .     A
C579   C595    1.398   .     A
C579   C588    1.424   .     S
C580   C594    1.398   .     A
C581   C585    1.513   .     S
C581   N614    1.380   .     A
C582   C586    1.513   .     S
C582   N613    1.380   .     A
C582   C727    1.435   .     S
C583   N614    1.380   .     A
C583   C587    1.513   .     S
C584   C589    1.513   .     S
C584   N613    1.380   .     A
C584   C725    1.435   .     S
C585   H609    1.110   .     S
C585   H610    1.109   .     S
C585   H608    1.084   .     S
C586   H598    1.110   .     S
C586   H612    1.109   .     S
C586   H611    1.084   .     S
C587   H600    1.110   .     S
C587   H599    1.084   .     S
C587   H601    1.109   .     S
C588   O617    1.298   .     A
C588   O616    1.298   .     A
C589   H604    1.110   .     S
C589   H602    1.084   .     S
C589   H603    1.109   .     S
C590   O619    1.291   .     A
C590   O622    1.291   .     A
C590   C592    1.369   .     S
C591   O620    1.291   .     A
C591   C593    1.369   .     S
C591   O621    1.291   .     A
C593   C1024   1.167   .     S
C594   H597    1.083   .     S
C594   C692    1.370   1_455 S
C595   H605    1.083   .     S
C595   C626    1.370   .     S
C596   H606    1.083   .     S
C596   C642    1.370   .     S
N613   Zn623   2.045   .     S
N614   Zn624   2.045   .     S
O615   Zn623   2.003   .     S
O616   Zn624   2.003   .     S
O617   Zn623   2.003   .     S
O618   Zn624   2.003   .     S
O619   Zn623   1.950   .     S
O620   Zn624   1.950   .     S
O621   Zn623   1.950   .     S
O622   Zn624   1.950   .     S
C625   C628    1.424   .     S
C625   O663    1.298   .     A
C625   O666    1.298   .     A
C626   C628    1.398   .     A
C626   H655    1.083   .     S
C627   C644    1.398   .     A
C627   C643    1.398   .     A
C627   C636    1.424   .     S
C628   C642    1.398   .     A
C629   C633    1.513   .     S
C629   N662    1.380   .     A
C630   C634    1.513   .     S
C630   N661    1.380   .     A
C630   C775    1.435   .     S
C631   N662    1.380   .     A
C631   C635    1.513   .     S
C632   C637    1.513   .     S
C632   N661    1.380   .     A
C632   C773    1.435   .     S
C633   H657    1.110   .     S
C633   H658    1.109   .     S
C633   H656    1.084   .     S
C634   H646    1.110   .     S
C634   H660    1.109   .     S
C634   H659    1.084   .     S
C635   H648    1.110   .     S
C635   H647    1.084   .     S
C635   H649    1.109   .     S
C636   O665    1.298   .     A
C636   O664    1.298   .     A
C637   H652    1.110   .     S
C637   H650    1.084   .     S
C637   H651    1.109   .     S
C638   O667    1.291   .     A
C638   O670    1.291   .     A
C638   C640    1.369   .     S
C639   O668    1.291   .     A
C639   C641    1.369   .     S
C639   O669    1.291   .     A
C641   C1072   1.167   .     S
C642   H645    1.083   .     S
C643   H653    1.083   .     S
C643   C674    1.370   .     S
C644   H654    1.083   .     S
C644   C690    1.370   .     S
N661   Zn671   2.045   .     S
N662   Zn672   2.045   .     S
O663   Zn671   2.003   .     S
O664   Zn672   2.003   .     S
O665   Zn671   2.003   .     S
O666   Zn672   2.003   .     S
O667   Zn671   1.950   .     S
O668   Zn672   1.950   .     S
O669   Zn671   1.950   .     S
O670   Zn672   1.950   .     S
C673   C676    1.424   .     S
C673   O711    1.298   .     A
C673   O714    1.298   .     A
C674   C676    1.398   .     A
C674   H703    1.083   .     S
C675   C692    1.398   .     A
C675   C691    1.398   .     A
C675   C684    1.424   .     S
C676   C690    1.398   .     A
C677   C681    1.513   .     S
C677   N710    1.380   .     A
C678   C682    1.513   .     S
C678   N709    1.380   .     A
C678   C823    1.435   .     S
C679   N710    1.380   .     A
C679   C683    1.513   .     S
C680   C685    1.513   .     S
C680   N709    1.380   .     A
C680   C821    1.435   .     S
C681   H705    1.110   .     S
C681   H706    1.109   .     S
C681   H704    1.084   .     S
C682   H694    1.110   .     S
C682   H708    1.109   .     S
C682   H707    1.084   .     S
C683   H696    1.110   .     S
C683   H695    1.084   .     S
C683   H697    1.109   .     S
C684   O713    1.298   .     A
C684   O712    1.298   .     A
C685   H700    1.110   .     S
C685   H698    1.084   .     S
C685   H699    1.109   .     S
C686   O715    1.291   .     A
C686   O718    1.291   .     A
C686   C688    1.369   .     S
C687   O716    1.291   .     A
C687   C689    1.369   .     S
C687   O717    1.291   .     A
C689   C1120   1.167   .     S
C690   H693    1.083   .     S
C691   H701    1.083   .     S
C691   C578    1.370   1_655 S
C692   H702    1.083   .     S
C692   C594    1.370   1_655 S
N709   Zn719   2.045   .     S
N710   Zn720   2.045   .     S
O711   Zn719   2.003   .     S
O712   Zn720   2.003   .     S
O713   Zn719   2.003   .     S
O714   Zn720   2.003   .     S
O715   Zn719   1.950   .     S
O716   Zn720   1.950   .     S
O717   Zn719   1.950   .     S
O718   Zn720   1.950   .     S
C721   C724    1.424   .     S
C721   O759    1.298   .     A
C721   O762    1.298   .     A
C722   C724    1.398   .     A
C722   H751    1.083   .     S
C722   C835    1.370   1_455 S
C723   C740    1.398   .     A
C723   C739    1.398   .     A
C723   C732    1.424   .     S
C724   C738    1.398   .     A
C725   C729    1.513   .     S
C725   N758    1.380   .     A
C726   C730    1.513   .     S
C726   N757    1.380   .     A
C726   C439    1.435   1_565 S
C727   N758    1.380   .     A
C727   C731    1.513   .     S
C728   C733    1.513   .     S
C728   N757    1.380   .     A
C728   C437    1.435   1_565 S
C729   H753    1.110   .     S
C729   H754    1.109   .     S
C729   H752    1.084   .     S
C730   H742    1.110   .     S
C730   H756    1.109   .     S
C730   H755    1.084   .     S
C731   H744    1.110   .     S
C731   H743    1.084   .     S
C731   H745    1.109   .     S
C732   O761    1.298   .     A
C732   O760    1.298   .     A
C733   H748    1.110   .     S
C733   H746    1.084   .     S
C733   H747    1.109   .     S
C734   O763    1.291   .     A
C734   O766    1.291   .     A
C734   C736    1.369   .     S
C735   O764    1.291   .     A
C735   C737    1.369   .     S
C735   O765    1.291   .     A
C737   C1168   1.167   .     S
C738   H741    1.083   .     S
C738   C836    1.370   1_455 S
C739   H749    1.083   .     S
C739   C770    1.370   .     S
C740   H750    1.083   .     S
C740   C786    1.370   .     S
N757   Zn767   2.045   .     S
N758   Zn768   2.045   .     S
O759   Zn767   2.003   .     S
O760   Zn768   2.003   .     S
O761   Zn767   2.003   .     S
O762   Zn768   2.003   .     S
O763   Zn767   1.950   .     S
O764   Zn768   1.950   .     S
O765   Zn767   1.950   .     S
O766   Zn768   1.950   .     S
C769   C772    1.424   .     S
C769   O807    1.298   .     A
C769   O810    1.298   .     A
C770   C772    1.398   .     A
C770   H799    1.083   .     S
C771   C788    1.398   .     A
C771   C787    1.398   .     A
C771   C780    1.424   .     S
C772   C786    1.398   .     A
C773   C777    1.513   .     S
C773   N806    1.380   .     A
C774   C778    1.513   .     S
C774   N805    1.380   .     A
C774   C487    1.435   1_565 S
C775   N806    1.380   .     A
C775   C779    1.513   .     S
C776   C781    1.513   .     S
C776   N805    1.380   .     A
C776   C485    1.435   1_565 S
C777   H801    1.110   .     S
C777   H802    1.109   .     S
C777   H800    1.084   .     S
C778   H790    1.110   .     S
C778   H804    1.109   .     S
C778   H803    1.084   .     S
C779   H792    1.110   .     S
C779   H791    1.084   .     S
C779   H793    1.109   .     S
C780   O809    1.298   .     A
C780   O808    1.298   .     A
C781   H796    1.110   .     S
C781   H794    1.084   .     S
C781   H795    1.109   .     S
C782   O811    1.291   .     A
C782   O814    1.291   .     A
C782   C784    1.369   .     S
C783   O812    1.291   .     A
C783   C785    1.369   .     S
C783   O813    1.291   .     A
C785   C1216   1.167   .     S
C786   H789    1.083   .     S
C787   H797    1.083   .     S
C787   C818    1.370   .     S
C788   H798    1.083   .     S
C788   C834    1.370   .     S
N805   Zn815   2.045   .     S
N806   Zn816   2.045   .     S
O807   Zn815   2.003   .     S
O808   Zn816   2.003   .     S
O809   Zn815   2.003   .     S
O810   Zn816   2.003   .     S
O811   Zn815   1.950   .     S
O812   Zn816   1.950   .     S
O813   Zn815   1.950   .     S
O814   Zn816   1.950   .     S
C817   C820    1.424   .     S
C817   O855    1.298   .     A
C817   O858    1.298   .     A
C818   C820    1.398   .     A
C818   H847    1.083   .     S
C819   C836    1.398   .     A
C819   C835    1.398   .     A
C819   C828    1.424   .     S
C820   C834    1.398   .     A
C821   C825    1.513   .     S
C821   N854    1.380   .     A
C822   C826    1.513   .     S
C822   N853    1.380   .     A
C822   C535    1.435   1_565 S
C823   N854    1.380   .     A
C823   C827    1.513   .     S
C824   C829    1.513   .     S
C824   N853    1.380   .     A
C824   C533    1.435   1_565 S
C825   H849    1.110   .     S
C825   H850    1.109   .     S
C825   H848    1.084   .     S
C826   H838    1.110   .     S
C826   H852    1.109   .     S
C826   H851    1.084   .     S
C827   H840    1.110   .     S
C827   H839    1.084   .     S
C827   H841    1.109   .     S
C828   O857    1.298   .     A
C828   O856    1.298   .     A
C829   H844    1.110   .     S
C829   H842    1.084   .     S
C829   H843    1.109   .     S
C830   O859    1.291   .     A
C830   O862    1.291   .     A
C830   C832    1.369   .     S
C831   O860    1.291   .     A
C831   C833    1.369   .     S
C831   O861    1.291   .     A
C833   C1264   1.167   .     S
C834   H837    1.083   .     S
C835   H845    1.083   .     S
C835   C722    1.370   1_655 S
C836   H846    1.083   .     S
C836   C738    1.370   1_655 S
N853   Zn863   2.045   .     S
N854   Zn864   2.045   .     S
O855   Zn863   2.003   .     S
O856   Zn864   2.003   .     S
O857   Zn863   2.003   .     S
O858   Zn864   2.003   .     S
O859   Zn863   1.950   .     S
O860   Zn864   1.950   .     S
O861   Zn863   1.950   .     S
O862   Zn864   1.950   .     S
C865   C868    1.424   .     S
C865   O903    1.298   .     A
C865   O906    1.298   .     A
C866   C868    1.398   .     A
C866   H895    1.083   .     S
C866   C979    1.370   1_455 S
C867   C884    1.398   .     A
C867   C883    1.398   .     A
C867   C876    1.424   .     S
C868   C882    1.398   .     A
C869   C873    1.513   .     S
C869   N902    1.380   .     A
C869   C1160   1.435   1_545 S
C870   C874    1.513   .     S
C870   N901    1.380   .     A
C870   C1015   1.435   .     S
C871   N902    1.380   .     A
C871   C875    1.513   .     S
C871   C1158   1.435   1_545 S
C872   C877    1.513   .     S
C872   N901    1.380   .     A
C872   C1013   1.435   .     S
C873   H897    1.110   .     S
C873   H898    1.109   .     S
C873   H896    1.084   .     S
C874   H886    1.110   .     S
C874   H900    1.109   .     S
C874   H899    1.084   .     S
C875   H888    1.110   .     S
C875   H887    1.084   .     S
C875   H889    1.109   .     S
C876   O905    1.298   .     A
C876   O904    1.298   .     A
C877   H892    1.110   .     S
C877   H890    1.084   .     S
C877   H891    1.109   .     S
C878   O907    1.291   .     A
C878   O910    1.291   .     A
C878   C880    1.369   .     S
C879   O908    1.291   .     A
C879   C881    1.369   .     S
C879   O909    1.291   .     A
C881   C16     1.167   1_556 S
C882   H885    1.083   .     S
C882   C980    1.370   1_455 S
C883   H893    1.083   .     S
C883   C914    1.370   .     S
C884   H894    1.083   .     S
C884   C930    1.370   .     S
N901   Zn911   2.045   .     S
N902   Zn912   2.045   .     S
O903   Zn911   2.003   .     S
O904   Zn912   2.003   .     S
O905   Zn911   2.003   .     S
O906   Zn912   2.003   .     S
O907   Zn911   1.950   .     S
O908   Zn912   1.950   .     S
O909   Zn911   1.950   .     S
O910   Zn912   1.950   .     S
C913   C916    1.424   .     S
C913   O951    1.298   .     A
C913   O954    1.298   .     A
C914   C916    1.398   .     A
C914   H943    1.083   .     S
C915   C932    1.398   .     A
C915   C931    1.398   .     A
C915   C924    1.424   .     S
C916   C930    1.398   .     A
C917   C921    1.513   .     S
C917   N950    1.380   .     A
C917   C1208   1.435   1_545 S
C918   C922    1.513   .     S
C918   N949    1.380   .     A
C918   C1063   1.435   .     S
C919   N950    1.380   .     A
C919   C923    1.513   .     S
C919   C1206   1.435   1_545 S
C920   C925    1.513   .     S
C920   N949    1.380   .     A
C920   C1061   1.435   .     S
C921   H945    1.110   .     S
C921   H946    1.109   .     S
C921   H944    1.084   .     S
C922   H934    1.110   .     S
C922   H948    1.109   .     S
C922   H947    1.084   .     S
C923   H936    1.110   .     S
C923   H935    1.084   .     S
C923   H937    1.109   .     S
C924   O953    1.298   .     A
C924   O952    1.298   .     A
C925   H940    1.110   .     S
C925   H938    1.084   .     S
C925   H939    1.109   .     S
C926   O955    1.291   .     A
C926   O958    1.291   .     A
C926   C928    1.369   .     S
C927   O956    1.291   .     A
C927   C929    1.369   .     S
C927   O957    1.291   .     A
C929   C64     1.167   1_556 S
C930   H933    1.083   .     S
C931   H941    1.083   .     S
C931   C962    1.370   .     S
C932   H942    1.083   .     S
C932   C978    1.370   .     S
N949   Zn959   2.045   .     S
N950   Zn960   2.045   .     S
O951   Zn959   2.003   .     S
O952   Zn960   2.003   .     S
O953   Zn959   2.003   .     S
O954   Zn960   2.003   .     S
O955   Zn959   1.950   .     S
O956   Zn960   1.950   .     S
O957   Zn959   1.950   .     S
O958   Zn960   1.950   .     S
C961   C964    1.424   .     S
C961   O999    1.298   .     A
C961   O1002   1.298   .     A
C962   C964    1.398   .     A
C962   H991    1.083   .     S
C963   C980    1.398   .     A
C963   C979    1.398   .     A
C963   C972    1.424   .     S
C964   C978    1.398   .     A
C965   C969    1.513   .     S
C965   N998    1.380   .     A
C965   C1256   1.435   1_545 S
C966   C970    1.513   .     S
C966   N997    1.380   .     A
C966   C1111   1.435   .     S
C967   N998    1.380   .     A
C967   C971    1.513   .     S
C967   C1254   1.435   1_545 S
C968   C973    1.513   .     S
C968   N997    1.380   .     A
C968   C1109   1.435   .     S
C969   H993    1.110   .     S
C969   H994    1.109   .     S
C969   H992    1.084   .     S
C970   H982    1.110   .     S
C970   H996    1.109   .     S
C970   H995    1.084   .     S
C971   H984    1.110   .     S
C971   H983    1.084   .     S
C971   H985    1.109   .     S
C972   O1001   1.298   .     A
C972   O1000   1.298   .     A
C973   H988    1.110   .     S
C973   H986    1.084   .     S
C973   H987    1.109   .     S
C974   O1003   1.291   .     A
C974   O1006   1.291   .     A
C974   C976    1.369   .     S
C975   O1004   1.291   .     A
C975   C977    1.369   .     S
C975   O1005   1.291   .     A
C977   C112    1.167   1_556 S
C978   H981    1.083   .     S
C979   H989    1.083   .     S
C979   C866    1.370   1_655 S
C980   H990    1.083   .     S
C980   C882    1.370   1_655 S
N997   Zn1007  2.045   .     S
N998   Zn1008  2.045   .     S
O999   Zn1007  2.003   .     S
O1000  Zn1008  2.003   .     S
O1001  Zn1007  2.003   .     S
O1002  Zn1008  2.003   .     S
O1003  Zn1007  1.950   .     S
O1004  Zn1008  1.950   .     S
O1005  Zn1007  1.950   .     S
O1006  Zn1008  1.950   .     S
C1009  C1012   1.424   .     S
C1009  O1047   1.298   .     A
C1009  O1050   1.298   .     A
C1010  C1012   1.398   .     A
C1010  H1039   1.083   .     S
C1010  C1123   1.370   1_455 S
C1011  C1028   1.398   .     A
C1011  C1027   1.398   .     A
C1011  C1020   1.424   .     S
C1012  C1026   1.398   .     A
C1013  C1017   1.513   .     S
C1013  N1046   1.380   .     A
C1014  C1018   1.513   .     S
C1014  N1045   1.380   .     A
C1014  C1159   1.435   .     S
C1015  N1046   1.380   .     A
C1015  C1019   1.513   .     S
C1016  C1021   1.513   .     S
C1016  N1045   1.380   .     A
C1016  C1157   1.435   .     S
C1017  H1041   1.110   .     S
C1017  H1042   1.109   .     S
C1017  H1040   1.084   .     S
C1018  H1030   1.110   .     S
C1018  H1044   1.109   .     S
C1018  H1043   1.084   .     S
C1019  H1032   1.110   .     S
C1019  H1031   1.084   .     S
C1019  H1033   1.109   .     S
C1020  O1049   1.298   .     A
C1020  O1048   1.298   .     A
C1021  H1036   1.110   .     S
C1021  H1034   1.084   .     S
C1021  H1035   1.109   .     S
C1022  O1051   1.291   .     A
C1022  O1054   1.291   .     A
C1022  C1024   1.369   .     S
C1023  O1052   1.291   .     A
C1023  C1025   1.369   .     S
C1023  O1053   1.291   .     A
C1025  C160    1.167   1_556 S
C1026  H1029   1.083   .     S
C1026  C1124   1.370   1_455 S
C1027  H1037   1.083   .     S
C1027  C1058   1.370   .     S
C1028  H1038   1.083   .     S
C1028  C1074   1.370   .     S
N1045  Zn1055  2.045   .     S
N1046  Zn1056  2.045   .     S
O1047  Zn1055  2.003   .     S
O1048  Zn1056  2.003   .     S
O1049  Zn1055  2.003   .     S
O1050  Zn1056  2.003   .     S
O1051  Zn1055  1.950   .     S
O1052  Zn1056  1.950   .     S
O1053  Zn1055  1.950   .     S
O1054  Zn1056  1.950   .     S
C1057  C1060   1.424   .     S
C1057  O1095   1.298   .     A
C1057  O1098   1.298   .     A
C1058  C1060   1.398   .     A
C1058  H1087   1.083   .     S
C1059  C1076   1.398   .     A
C1059  C1075   1.398   .     A
C1059  C1068   1.424   .     S
C1060  C1074   1.398   .     A
C1061  C1065   1.513   .     S
C1061  N1094   1.380   .     A
C1062  C1066   1.513   .     S
C1062  N1093   1.380   .     A
C1062  C1207   1.435   .     S
C1063  N1094   1.380   .     A
C1063  C1067   1.513   .     S
C1064  C1069   1.513   .     S
C1064  N1093   1.380   .     A
C1064  C1205   1.435   .     S
C1065  H1089   1.110   .     S
C1065  H1090   1.109   .     S
C1065  H1088   1.084   .     S
C1066  H1078   1.110   .     S
C1066  H1092   1.109   .     S
C1066  H1091   1.084   .     S
C1067  H1080   1.110   .     S
C1067  H1079   1.084   .     S
C1067  H1081   1.109   .     S
C1068  O1097   1.298   .     A
C1068  O1096   1.298   .     A
C1069  H1084   1.110   .     S
C1069  H1082   1.084   .     S
C1069  H1083   1.109   .     S
C1070  O1099   1.291   .     A
C1070  O1102   1.291   .     A
C1070  C1072   1.369   .     S
C1071  O1100   1.291   .     A
C1071  C1073   1.369   .     S
C1071  O1101   1.291   .     A
C1073  C208    1.167   1_556 S
C1074  H1077   1.083   .     S
C1075  H1085   1.083   .     S
C1075  C1106   1.370   .     S
C1076  H1086   1.083   .     S
C1076  C1122   1.370   .     S
N1093  Zn1103  2.045   .     S
N1094  Zn1104  2.045   .     S
O1095  Zn1103  2.003   .     S
O1096  Zn1104  2.003   .     S
O1097  Zn1103  2.003   .     S
O1098  Zn1104  2.003   .     S
O1099  Zn1103  1.950   .     S
O1100  Zn1104  1.950   .     S
O1101  Zn1103  1.950   .     S
O1102  Zn1104  1.950   .     S
C1105  C1108   1.424   .     S
C1105  O1143   1.298   .     A
C1105  O1146   1.298   .     A
C1106  C1108   1.398   .     A
C1106  H1135   1.083   .     S
C1107  C1124   1.398   .     A
C1107  C1123   1.398   .     A
C1107  C1116   1.424   .     S
C1108  C1122   1.398   .     A
C1109  C1113   1.513   .     S
C1109  N1142   1.380   .     A
C1110  C1114   1.513   .     S
C1110  N1141   1.380   .     A
C1110  C1255   1.435   .     S
C1111  N1142   1.380   .     A
C1111  C1115   1.513   .     S
C1112  C1117   1.513   .     S
C1112  N1141   1.380   .     A
C1112  C1253   1.435   .     S
C1113  H1137   1.110   .     S
C1113  H1138   1.109   .     S
C1113  H1136   1.084   .     S
C1114  H1126   1.110   .     S
C1114  H1140   1.109   .     S
C1114  H1139   1.084   .     S
C1115  H1128   1.110   .     S
C1115  H1127   1.084   .     S
C1115  H1129   1.109   .     S
C1116  O1145   1.298   .     A
C1116  O1144   1.298   .     A
C1117  H1132   1.110   .     S
C1117  H1130   1.084   .     S
C1117  H1131   1.109   .     S
C1118  O1147   1.291   .     A
C1118  O1150   1.291   .     A
C1118  C1120   1.369   .     S
C1119  O1148   1.291   .     A
C1119  C1121   1.369   .     S
C1119  O1149   1.291   .     A
C1121  C256    1.167   1_556 S
C1122  H1125   1.083   .     S
C1123  H1133   1.083   .     S
C1123  C1010   1.370   1_655 S
C1124  H1134   1.083   .     S
C1124  C1026   1.370   1_655 S
N1141  Zn1151  2.045   .     S
N1142  Zn1152  2.045   .     S
O1143  Zn1151  2.003   .     S
O1144  Zn1152  2.003   .     S
O1145  Zn1151  2.003   .     S
O1146  Zn1152  2.003   .     S
O1147  Zn1151  1.950   .     S
O1148  Zn1152  1.950   .     S
O1149  Zn1151  1.950   .     S
O1150  Zn1152  1.950   .     S
C1153  C1156   1.424   .     S
C1153  O1191   1.298   .     A
C1153  O1194   1.298   .     A
C1154  C1156   1.398   .     A
C1154  H1183   1.083   .     S
C1154  C1267   1.370   1_455 S
C1155  C1172   1.398   .     A
C1155  C1171   1.398   .     A
C1155  C1164   1.424   .     S
C1156  C1170   1.398   .     A
C1157  C1161   1.513   .     S
C1157  N1190   1.380   .     A
C1158  C1162   1.513   .     S
C1158  N1189   1.380   .     A
C1158  C871    1.435   1_565 S
C1159  N1190   1.380   .     A
C1159  C1163   1.513   .     S
C1160  C1165   1.513   .     S
C1160  N1189   1.380   .     A
C1160  C869    1.435   1_565 S
C1161  H1185   1.110   .     S
C1161  H1186   1.109   .     S
C1161  H1184   1.084   .     S
C1162  H1174   1.110   .     S
C1162  H1188   1.109   .     S
C1162  H1187   1.084   .     S
C1163  H1176   1.110   .     S
C1163  H1175   1.084   .     S
C1163  H1177   1.109   .     S
C1164  O1193   1.298   .     A
C1164  O1192   1.298   .     A
C1165  H1180   1.110   .     S
C1165  H1178   1.084   .     S
C1165  H1179   1.109   .     S
C1166  O1195   1.291   .     A
C1166  O1198   1.291   .     A
C1166  C1168   1.369   .     S
C1167  O1196   1.291   .     A
C1167  C1169   1.369   .     S
C1167  O1197   1.291   .     A
C1169  C304    1.167   1_556 S
C1170  H1173   1.083   .     S
C1170  C1268   1.370   1_455 S
C1171  H1181   1.083   .     S
C1171  C1202   1.370   .     S
C1172  H1182   1.083   .     S
C1172  C1218   1.370   .     S
N1189  Zn1199  2.045   .     S
N1190  Zn1200  2.045   .     S
O1191  Zn1199  2.003   .     S
O1192  Zn1200  2.003   .     S
O1193  Zn1199  2.003   .     S
O1194  Zn1200  2.003   .     S
O1195  Zn1199  1.950   .     S
O1196  Zn1200  1.950   .     S
O1197  Zn1199  1.950   .     S
O1198  Zn1200  1.950   .     S
C1201  C1204   1.424   .     S
C1201  O1239   1.298   .     A
C1201  O1242   1.298   .     A
C1202  C1204   1.398   .     A
C1202  H1231   1.083   .     S
C1203  C1220   1.398   .     A
C1203  C1219   1.398   .     A
C1203  C1212   1.424   .     S
C1204  C1218   1.398   .     A
C1205  C1209   1.513   .     S
C1205  N1238   1.380   .     A
C1206  C1210   1.513   .     S
C1206  N1237   1.380   .     A
C1206  C919    1.435   1_565 S
C1207  N1238   1.380   .     A
C1207  C1211   1.513   .     S
C1208  C1213   1.513   .     S
C1208  N1237   1.380   .     A
C1208  C917    1.435   1_565 S
C1209  H1233   1.110   .     S
C1209  H1234   1.109   .     S
C1209  H1232   1.084   .     S
C1210  H1222   1.110   .     S
C1210  H1236   1.109   .     S
C1210  H1235   1.084   .     S
C1211  H1224   1.110   .     S
C1211  H1223   1.084   .     S
C1211  H1225   1.109   .     S
C1212  O1241   1.298   .     A
C1212  O1240   1.298   .     A
C1213  H1228   1.110   .     S
C1213  H1226   1.084   .     S
C1213  H1227   1.109   .     S
C1214  O1243   1.291   .     A
C1214  O1246   1.291   .     A
C1214  C1216   1.369   .     S
C1215  O1244   1.291   .     A
C1215  C1217   1.369   .     S
C1215  O1245   1.291   .     A
C1217  C352    1.167   1_556 S
C1218  H1221   1.083   .     S
C1219  H1229   1.083   .     S
C1219  C1250   1.370   .     S
C1220  H1230   1.083   .     S
C1220  C1266   1.370   .     S
N1237  Zn1247  2.045   .     S
N1238  Zn1248  2.045   .     S
O1239  Zn1247  2.003   .     S
O1240  Zn1248  2.003   .     S
O1241  Zn1247  2.003   .     S
O1242  Zn1248  2.003   .     S
O1243  Zn1247  1.950   .     S
O1244  Zn1248  1.950   .     S
O1245  Zn1247  1.950   .     S
O1246  Zn1248  1.950   .     S
C1249  C1252   1.424   .     S
C1249  O1287   1.298   .     A
C1249  O1290   1.298   .     A
C1250  C1252   1.398   .     A
C1250  H1279   1.083   .     S
C1251  C1268   1.398   .     A
C1251  C1267   1.398   .     A
C1251  C1260   1.424   .     S
C1252  C1266   1.398   .     A
C1253  C1257   1.513   .     S
C1253  N1286   1.380   .     A
C1254  C1258   1.513   .     S
C1254  N1285   1.380   .     A
C1254  C967    1.435   1_565 S
C1255  N1286   1.380   .     A
C1255  C1259   1.513   .     S
C1256  C1261   1.513   .     S
C1256  N1285   1.380   .     A
C1256  C965    1.435   1_565 S
C1257  H1281   1.110   .     S
C1257  H1282   1.109   .     S
C1257  H1280   1.084   .     S
C1258  H1270   1.110   .     S
C1258  H1284   1.109   .     S
C1258  H1283   1.084   .     S
C1259  H1272   1.110   .     S
C1259  H1271   1.084   .     S
C1259  H1273   1.109   .     S
C1260  O1289   1.298   .     A
C1260  O1288   1.298   .     A
C1261  H1276   1.110   .     S
C1261  H1274   1.084   .     S
C1261  H1275   1.109   .     S
C1262  O1291   1.291   .     A
C1262  O1294   1.291   .     A
C1262  C1264   1.369   .     S
C1263  O1292   1.291   .     A
C1263  C1265   1.369   .     S
C1263  O1293   1.291   .     A
C1265  C400    1.167   1_556 S
C1266  H1269   1.083   .     S
C1267  H1277   1.083   .     S
C1267  C1154   1.370   1_655 S
C1268  H1278   1.083   .     S
C1268  C1170   1.370   1_655 S
N1285  Zn1295  2.045   .     S
N1286  Zn1296  2.045   .     S
O1287  Zn1295  2.003   .     S
O1288  Zn1296  2.003   .     S
O1289  Zn1295  2.003   .     S
O1290  Zn1296  2.003   .     S
O1291  Zn1295  1.950   .     S
O1292  Zn1296  1.950   .     S
O1293  Zn1295  1.950   .     S
O1294  Zn1296  1.950   .     S
