data_str_m2_o10_o17_pcu_sym.215
_audit_creation_date              2020-01-03
_audit_creation_method            'Materials Studio'
_symmetry_space_group_name_H-M    'P1'
_symmetry_Int_Tables_number       1
_symmetry_cell_setting            triclinic
loop_
_symmetry_equiv_pos_as_xyz
  x,y,z
_cell_length_a                    29.8925
_cell_length_b                    25.9667
_cell_length_c                    22.4815
_cell_angle_alpha                 103.5473
_cell_angle_beta                  93.8745
_cell_angle_gamma                 92.4745
loop_
_atom_site_label
_atom_site_type_symbol
_atom_site_fract_x
_atom_site_fract_y
_atom_site_fract_z
_atom_site_U_iso_or_equiv
_atom_site_adp_type
_atom_site_occupancy
C1     C     0.24848   0.06655   0.15095   0.00000  Uiso   1.00
C2     C     0.25126   0.26677   0.18239   0.00000  Uiso   1.00
C3     C     0.01972   0.06997   0.13461   0.00000  Uiso   1.00
C4     C     0.48055   0.26312   0.19862   0.00000  Uiso   1.00
C5     C     0.24759   0.01036   0.14230   0.00000  Uiso   1.00
C6     C     0.25177   0.32294   0.19103   0.00000  Uiso   1.00
C7     C     0.16473   0.16731   0.16781   0.00000  Uiso   1.00
C8     C     0.33529   0.16606   0.16554   0.00000  Uiso   1.00
C9     C     0.40851   0.21327   0.18043   0.00000  Uiso   1.00
C10    C     0.09156   0.12002   0.15184   0.00000  Uiso   1.00
C11    C     0.38328   0.16524   0.16288   0.00000  Uiso   1.00
C12    C     0.11678   0.16798   0.17044   0.00000  Uiso   1.00
C13    C     0.40321   0.11713   0.14240   0.00000  Uiso   1.00
C14    C     0.09681   0.21582   0.19216   0.00000  Uiso   1.00
C15    C     0.45062   0.11704   0.14472   0.00000  Uiso   1.00
C16    C     0.04943   0.21590   0.18878   0.00000  Uiso   1.00
C17    C     0.47643   0.16613   0.16440   0.00000  Uiso   1.00
C18    C     0.02360   0.16693   0.16830   0.00000  Uiso   1.00
C19    C     0.45508   0.21446   0.18080   0.00000  Uiso   1.00
C20    C     0.04501   0.11870   0.15181   0.00000  Uiso   1.00
C21    C     0.47284   0.06941   0.13149   0.00000  Uiso   1.00
C22    C     0.02736   0.26352   0.20216   0.00000  Uiso   1.00
Cu23   Cu    0.25500   0.17246   0.22813   0.00000  Uiso   1.00
Cu24   Cu    0.24499   0.16087   0.10521   0.00000  Uiso   1.00
H25    H     0.39142   0.24966   0.19441   0.00000  Uiso   1.00
H26    H     0.10868   0.08378   0.13713   0.00000  Uiso   1.00
H27    H     0.45453   0.03120   0.12087   0.00000  Uiso   1.00
H28    H     0.04584   0.30169   0.21378   0.00000  Uiso   1.00
H29    H     0.24359   0.31936   0.09556   0.00000  Uiso   1.00
H30    H     0.25571   0.01394   0.23777   0.00000  Uiso   1.00
N31    N     0.23744   0.15214   0.01284   0.00000  Uiso   1.00
N32    N     0.26255   0.18119   0.32049   0.00000  Uiso   1.00
O33    O     0.25325   0.09538   0.20659   0.00000  Uiso   1.00
O34    O     0.24674   0.23796   0.12674   0.00000  Uiso   1.00
O35    O     0.24480   0.08559   0.10279   0.00000  Uiso   1.00
O36    O     0.25520   0.24774   0.23055   0.00000  Uiso   1.00
O37    O     0.18935   0.17155   0.21857   0.00000  Uiso   1.00
O38    O     0.31064   0.16179   0.11476   0.00000  Uiso   1.00
O39    O     0.18090   0.16176   0.11477   0.00000  Uiso   1.00
O40    O     0.31910   0.17157   0.21857   0.00000  Uiso   1.00
O41    O     0.37541   0.07148   0.12281   0.00000  Uiso   1.00
H42    H     0.38901   0.04702   0.08926   0.00000  Uiso   1.00
O43    O     0.12449   0.26125   0.21435   0.00000  Uiso   1.00
H44    H     0.11051   0.28439   0.24866   0.00000  Uiso   1.00
O45    O     0.04110   0.02285   0.12784   0.00000  Uiso   1.00
C46    C     0.03901   0.33034   0.06504   0.00000  Uiso   1.00
H47    H     0.05076   0.02443   0.03704   0.00000  Uiso   1.00
H48    H     0.00397   0.31471   0.04898   0.00000  Uiso   1.00
C49    C     0.06865   0.28295   0.05510   0.00000  Uiso   1.00
H50    H     0.05702   0.25444   0.08142   0.00000  Uiso   1.00
H51    H     0.06512   0.26220   0.00566   0.00000  Uiso   1.00
C52    C     0.11815   0.29976   0.07409   0.00000  Uiso   1.00
H53    H     0.13046   0.32778   0.04745   0.00000  Uiso   1.00
H54    H     0.13835   0.26424   0.06494   0.00000  Uiso   1.00
H55    H     0.12299   0.31903   0.12385   0.00000  Uiso   1.00
O56    O     0.45968   0.31065   0.20731   0.00000  Uiso   1.00
C57    C     0.45928   0.33283   0.27087   0.00000  Uiso   1.00
H58    H     0.49418   0.00844   0.29200   0.00000  Uiso   1.00
H59    H     0.44187   0.30449   0.29334   0.00000  Uiso   1.00
C60    C     0.43401   0.05075   0.28194   0.00000  Uiso   1.00
H61    H     0.41098   0.05103   0.24107   0.00000  Uiso   1.00
H62    H     0.41301   0.05242   0.32121   0.00000  Uiso   1.00
C63    C     0.46596   0.10044   0.29694   0.00000  Uiso   1.00
H64    H     0.48500   0.10422   0.00876   0.00000  Uiso   1.00
H65    H     0.44645   0.13618   0.29914   0.00000  Uiso   1.00
H66    H     0.49017   0.09847   0.26134   0.00000  Uiso   1.00
O67    O     0.20692   0.11862   0.30844   0.00000  Uiso   1.00
H68    H     0.19105   0.10009   0.00207   0.00000  Uiso   1.00
O69    O     0.29306   0.21474   0.02491   0.00000  Uiso   1.00
H70    H     0.30893   0.23327   0.33127   0.00000  Uiso   1.00
C71    C     0.74848   0.06655   0.15095   0.00000  Uiso   1.00
C72    C     0.75126   0.26677   0.18239   0.00000  Uiso   1.00
C73    C     0.51972   0.06997   0.13461   0.00000  Uiso   1.00
C74    C     0.98055   0.26312   0.19862   0.00000  Uiso   1.00
C75    C     0.74759   0.01036   0.14230   0.00000  Uiso   1.00
C76    C     0.75177   0.32294   0.19103   0.00000  Uiso   1.00
C77    C     0.66473   0.16731   0.16781   0.00000  Uiso   1.00
C78    C     0.83529   0.16606   0.16554   0.00000  Uiso   1.00
C79    C     0.90851   0.21327   0.18043   0.00000  Uiso   1.00
C80    C     0.59156   0.12002   0.15184   0.00000  Uiso   1.00
C81    C     0.88328   0.16524   0.16288   0.00000  Uiso   1.00
C82    C     0.61678   0.16798   0.17044   0.00000  Uiso   1.00
C83    C     0.90321   0.11713   0.14240   0.00000  Uiso   1.00
C84    C     0.59681   0.21582   0.19216   0.00000  Uiso   1.00
C85    C     0.95062   0.11704   0.14472   0.00000  Uiso   1.00
C86    C     0.54943   0.21590   0.18878   0.00000  Uiso   1.00
C87    C     0.97643   0.16613   0.16440   0.00000  Uiso   1.00
C88    C     0.52360   0.16693   0.16830   0.00000  Uiso   1.00
C89    C     0.95508   0.21446   0.18080   0.00000  Uiso   1.00
C90    C     0.54501   0.11870   0.15181   0.00000  Uiso   1.00
C91    C     0.97284   0.06941   0.13149   0.00000  Uiso   1.00
C92    C     0.52736   0.26352   0.20216   0.00000  Uiso   1.00
Cu93   Cu    0.75500   0.17246   0.22813   0.00000  Uiso   1.00
Cu94   Cu    0.74499   0.16087   0.10521   0.00000  Uiso   1.00
H95    H     0.89142   0.24966   0.19441   0.00000  Uiso   1.00
H96    H     0.60868   0.08378   0.13713   0.00000  Uiso   1.00
H97    H     0.95453   0.03120   0.12087   0.00000  Uiso   1.00
H98    H     0.54584   0.30169   0.21378   0.00000  Uiso   1.00
H99    H     0.74359   0.31936   0.09556   0.00000  Uiso   1.00
H100   H     0.75571   0.01394   0.23777   0.00000  Uiso   1.00
N101   N     0.73744   0.15214   0.01284   0.00000  Uiso   1.00
N102   N     0.76255   0.18119   0.32049   0.00000  Uiso   1.00
O103   O     0.75325   0.09538   0.20659   0.00000  Uiso   1.00
O104   O     0.74674   0.23796   0.12674   0.00000  Uiso   1.00
O105   O     0.74480   0.08559   0.10279   0.00000  Uiso   1.00
O106   O     0.75520   0.24774   0.23055   0.00000  Uiso   1.00
O107   O     0.68935   0.17155   0.21857   0.00000  Uiso   1.00
O108   O     0.81064   0.16179   0.11476   0.00000  Uiso   1.00
O109   O     0.68090   0.16176   0.11477   0.00000  Uiso   1.00
O110   O     0.81910   0.17157   0.21857   0.00000  Uiso   1.00
O111   O     0.87541   0.07148   0.12281   0.00000  Uiso   1.00
H112   H     0.88901   0.04702   0.08926   0.00000  Uiso   1.00
O113   O     0.62449   0.26125   0.21435   0.00000  Uiso   1.00
H114   H     0.61051   0.28439   0.24866   0.00000  Uiso   1.00
O115   O     0.54110   0.02285   0.12784   0.00000  Uiso   1.00
C116   C     0.53901   0.33034   0.06504   0.00000  Uiso   1.00
H117   H     0.55076   0.02443   0.03704   0.00000  Uiso   1.00
H118   H     0.50397   0.31471   0.04898   0.00000  Uiso   1.00
C119   C     0.56865   0.28295   0.05510   0.00000  Uiso   1.00
H120   H     0.55702   0.25444   0.08142   0.00000  Uiso   1.00
H121   H     0.56512   0.26220   0.00566   0.00000  Uiso   1.00
C122   C     0.61815   0.29976   0.07409   0.00000  Uiso   1.00
H123   H     0.63046   0.32778   0.04745   0.00000  Uiso   1.00
H124   H     0.63835   0.26424   0.06494   0.00000  Uiso   1.00
H125   H     0.62299   0.31903   0.12385   0.00000  Uiso   1.00
O126   O     0.95968   0.31065   0.20731   0.00000  Uiso   1.00
C127   C     0.95928   0.33283   0.27087   0.00000  Uiso   1.00
H128   H     0.99418   0.00844   0.29200   0.00000  Uiso   1.00
H129   H     0.94187   0.30449   0.29334   0.00000  Uiso   1.00
C130   C     0.93401   0.05075   0.28194   0.00000  Uiso   1.00
H131   H     0.91098   0.05103   0.24107   0.00000  Uiso   1.00
H132   H     0.91301   0.05242   0.32121   0.00000  Uiso   1.00
C133   C     0.96596   0.10044   0.29694   0.00000  Uiso   1.00
H134   H     0.98500   0.10422   0.00876   0.00000  Uiso   1.00
H135   H     0.94645   0.13618   0.29914   0.00000  Uiso   1.00
H136   H     0.99017   0.09847   0.26134   0.00000  Uiso   1.00
O137   O     0.70692   0.11862   0.30844   0.00000  Uiso   1.00
H138   H     0.69105   0.10009   0.00207   0.00000  Uiso   1.00
O139   O     0.79306   0.21474   0.02491   0.00000  Uiso   1.00
H140   H     0.80893   0.23327   0.33127   0.00000  Uiso   1.00
C141   C     0.24848   0.39988   0.15095   0.00000  Uiso   1.00
C142   C     0.25126   0.60010   0.18239   0.00000  Uiso   1.00
C143   C     0.01972   0.40330   0.13461   0.00000  Uiso   1.00
C144   C     0.48055   0.59646   0.19862   0.00000  Uiso   1.00
C145   C     0.24759   0.34369   0.14230   0.00000  Uiso   1.00
C146   C     0.25177   0.65627   0.19103   0.00000  Uiso   1.00
C147   C     0.16473   0.50064   0.16781   0.00000  Uiso   1.00
C148   C     0.33529   0.49939   0.16554   0.00000  Uiso   1.00
C149   C     0.40851   0.54660   0.18043   0.00000  Uiso   1.00
C150   C     0.09156   0.45335   0.15184   0.00000  Uiso   1.00
C151   C     0.38328   0.49857   0.16288   0.00000  Uiso   1.00
C152   C     0.11678   0.50132   0.17044   0.00000  Uiso   1.00
C153   C     0.40321   0.45046   0.14240   0.00000  Uiso   1.00
C154   C     0.09681   0.54915   0.19216   0.00000  Uiso   1.00
C155   C     0.45062   0.45037   0.14472   0.00000  Uiso   1.00
C156   C     0.04943   0.54924   0.18878   0.00000  Uiso   1.00
C157   C     0.47643   0.49946   0.16440   0.00000  Uiso   1.00
C158   C     0.02360   0.50027   0.16830   0.00000  Uiso   1.00
C159   C     0.45508   0.54779   0.18080   0.00000  Uiso   1.00
C160   C     0.04501   0.45204   0.15181   0.00000  Uiso   1.00
C161   C     0.47284   0.40275   0.13149   0.00000  Uiso   1.00
C162   C     0.02736   0.59685   0.20216   0.00000  Uiso   1.00
Cu163  Cu    0.25500   0.50579   0.22813   0.00000  Uiso   1.00
Cu164  Cu    0.24499   0.49421   0.10521   0.00000  Uiso   1.00
H165   H     0.39142   0.58300   0.19441   0.00000  Uiso   1.00
H166   H     0.10868   0.41712   0.13713   0.00000  Uiso   1.00
H167   H     0.45453   0.36453   0.12087   0.00000  Uiso   1.00
H168   H     0.04584   0.63502   0.21378   0.00000  Uiso   1.00
H169   H     0.24359   0.65269   0.09556   0.00000  Uiso   1.00
H170   H     0.25571   0.34727   0.23777   0.00000  Uiso   1.00
N171   N     0.23744   0.48547   0.01284   0.00000  Uiso   1.00
N172   N     0.26255   0.51453   0.32049   0.00000  Uiso   1.00
O173   O     0.25325   0.42871   0.20659   0.00000  Uiso   1.00
O174   O     0.24674   0.57129   0.12674   0.00000  Uiso   1.00
O175   O     0.24480   0.41892   0.10279   0.00000  Uiso   1.00
O176   O     0.25520   0.58108   0.23055   0.00000  Uiso   1.00
O177   O     0.18935   0.50488   0.21857   0.00000  Uiso   1.00
O178   O     0.31064   0.49512   0.11476   0.00000  Uiso   1.00
O179   O     0.18090   0.49510   0.11477   0.00000  Uiso   1.00
O180   O     0.31910   0.50490   0.21857   0.00000  Uiso   1.00
O181   O     0.37541   0.40482   0.12281   0.00000  Uiso   1.00
H182   H     0.38901   0.38035   0.08926   0.00000  Uiso   1.00
O183   O     0.12449   0.59458   0.21435   0.00000  Uiso   1.00
H184   H     0.11051   0.61773   0.24866   0.00000  Uiso   1.00
O185   O     0.04110   0.35619   0.12784   0.00000  Uiso   1.00
C186   C     0.03901   0.66367   0.06504   0.00000  Uiso   1.00
H187   H     0.05076   0.35776   0.03704   0.00000  Uiso   1.00
H188   H     0.00397   0.64805   0.04898   0.00000  Uiso   1.00
C189   C     0.06865   0.61629   0.05510   0.00000  Uiso   1.00
H190   H     0.05702   0.58777   0.08142   0.00000  Uiso   1.00
H191   H     0.06512   0.59553   0.00566   0.00000  Uiso   1.00
C192   C     0.11815   0.63309   0.07409   0.00000  Uiso   1.00
H193   H     0.13046   0.66112   0.04745   0.00000  Uiso   1.00
H194   H     0.13835   0.59758   0.06494   0.00000  Uiso   1.00
H195   H     0.12299   0.65236   0.12385   0.00000  Uiso   1.00
O196   O     0.45968   0.64399   0.20731   0.00000  Uiso   1.00
C197   C     0.45928   0.66616   0.27087   0.00000  Uiso   1.00
H198   H     0.49418   0.34177   0.29200   0.00000  Uiso   1.00
H199   H     0.44187   0.63783   0.29334   0.00000  Uiso   1.00
C200   C     0.43401   0.38409   0.28194   0.00000  Uiso   1.00
H201   H     0.41098   0.38436   0.24107   0.00000  Uiso   1.00
H202   H     0.41301   0.38576   0.32121   0.00000  Uiso   1.00
C203   C     0.46596   0.43377   0.29694   0.00000  Uiso   1.00
H204   H     0.48500   0.43755   0.00876   0.00000  Uiso   1.00
H205   H     0.44645   0.46951   0.29914   0.00000  Uiso   1.00
H206   H     0.49017   0.43180   0.26134   0.00000  Uiso   1.00
O207   O     0.20692   0.45195   0.30844   0.00000  Uiso   1.00
H208   H     0.19105   0.43342   0.00207   0.00000  Uiso   1.00
O209   O     0.29306   0.54807   0.02491   0.00000  Uiso   1.00
H210   H     0.30893   0.56660   0.33127   0.00000  Uiso   1.00
C211   C     0.74848   0.39988   0.15095   0.00000  Uiso   1.00
C212   C     0.75126   0.60010   0.18239   0.00000  Uiso   1.00
C213   C     0.51972   0.40330   0.13461   0.00000  Uiso   1.00
C214   C     0.98055   0.59646   0.19862   0.00000  Uiso   1.00
C215   C     0.74759   0.34369   0.14230   0.00000  Uiso   1.00
C216   C     0.75177   0.65627   0.19103   0.00000  Uiso   1.00
C217   C     0.66473   0.50064   0.16781   0.00000  Uiso   1.00
C218   C     0.83529   0.49939   0.16554   0.00000  Uiso   1.00
C219   C     0.90851   0.54660   0.18043   0.00000  Uiso   1.00
C220   C     0.59156   0.45335   0.15184   0.00000  Uiso   1.00
C221   C     0.88328   0.49857   0.16288   0.00000  Uiso   1.00
C222   C     0.61678   0.50132   0.17044   0.00000  Uiso   1.00
C223   C     0.90321   0.45046   0.14240   0.00000  Uiso   1.00
C224   C     0.59681   0.54915   0.19216   0.00000  Uiso   1.00
C225   C     0.95062   0.45037   0.14472   0.00000  Uiso   1.00
C226   C     0.54943   0.54924   0.18878   0.00000  Uiso   1.00
C227   C     0.97643   0.49946   0.16440   0.00000  Uiso   1.00
C228   C     0.52360   0.50027   0.16830   0.00000  Uiso   1.00
C229   C     0.95508   0.54779   0.18080   0.00000  Uiso   1.00
C230   C     0.54501   0.45204   0.15181   0.00000  Uiso   1.00
C231   C     0.97284   0.40275   0.13149   0.00000  Uiso   1.00
C232   C     0.52736   0.59685   0.20216   0.00000  Uiso   1.00
Cu233  Cu    0.75500   0.50579   0.22813   0.00000  Uiso   1.00
Cu234  Cu    0.74499   0.49421   0.10521   0.00000  Uiso   1.00
H235   H     0.89142   0.58300   0.19441   0.00000  Uiso   1.00
H236   H     0.60868   0.41712   0.13713   0.00000  Uiso   1.00
H237   H     0.95453   0.36453   0.12087   0.00000  Uiso   1.00
H238   H     0.54584   0.63502   0.21378   0.00000  Uiso   1.00
H239   H     0.74359   0.65269   0.09556   0.00000  Uiso   1.00
H240   H     0.75571   0.34727   0.23777   0.00000  Uiso   1.00
N241   N     0.73744   0.48547   0.01284   0.00000  Uiso   1.00
N242   N     0.76255   0.51453   0.32049   0.00000  Uiso   1.00
O243   O     0.75325   0.42871   0.20659   0.00000  Uiso   1.00
O244   O     0.74674   0.57129   0.12674   0.00000  Uiso   1.00
O245   O     0.74480   0.41892   0.10279   0.00000  Uiso   1.00
O246   O     0.75520   0.58108   0.23055   0.00000  Uiso   1.00
O247   O     0.68935   0.50488   0.21857   0.00000  Uiso   1.00
O248   O     0.81064   0.49512   0.11476   0.00000  Uiso   1.00
O249   O     0.68090   0.49510   0.11477   0.00000  Uiso   1.00
O250   O     0.81910   0.50490   0.21857   0.00000  Uiso   1.00
O251   O     0.87541   0.40482   0.12281   0.00000  Uiso   1.00
H252   H     0.88901   0.38035   0.08926   0.00000  Uiso   1.00
O253   O     0.62449   0.59458   0.21435   0.00000  Uiso   1.00
H254   H     0.61051   0.61773   0.24866   0.00000  Uiso   1.00
O255   O     0.54110   0.35619   0.12784   0.00000  Uiso   1.00
C256   C     0.53901   0.66367   0.06504   0.00000  Uiso   1.00
H257   H     0.55076   0.35776   0.03704   0.00000  Uiso   1.00
H258   H     0.50397   0.64805   0.04898   0.00000  Uiso   1.00
C259   C     0.56865   0.61629   0.05510   0.00000  Uiso   1.00
H260   H     0.55702   0.58777   0.08142   0.00000  Uiso   1.00
H261   H     0.56512   0.59553   0.00566   0.00000  Uiso   1.00
C262   C     0.61815   0.63309   0.07409   0.00000  Uiso   1.00
H263   H     0.63046   0.66112   0.04745   0.00000  Uiso   1.00
H264   H     0.63835   0.59758   0.06494   0.00000  Uiso   1.00
H265   H     0.62299   0.65236   0.12385   0.00000  Uiso   1.00
O266   O     0.95968   0.64399   0.20731   0.00000  Uiso   1.00
C267   C     0.95928   0.66616   0.27087   0.00000  Uiso   1.00
H268   H     0.99418   0.34177   0.29200   0.00000  Uiso   1.00
H269   H     0.94187   0.63783   0.29334   0.00000  Uiso   1.00
C270   C     0.93401   0.38409   0.28194   0.00000  Uiso   1.00
H271   H     0.91098   0.38436   0.24107   0.00000  Uiso   1.00
H272   H     0.91301   0.38576   0.32121   0.00000  Uiso   1.00
C273   C     0.96596   0.43377   0.29694   0.00000  Uiso   1.00
H274   H     0.98500   0.43755   0.00876   0.00000  Uiso   1.00
H275   H     0.94645   0.46951   0.29914   0.00000  Uiso   1.00
H276   H     0.99017   0.43180   0.26134   0.00000  Uiso   1.00
O277   O     0.70692   0.45195   0.30844   0.00000  Uiso   1.00
H278   H     0.69105   0.43342   0.00207   0.00000  Uiso   1.00
O279   O     0.79306   0.54807   0.02491   0.00000  Uiso   1.00
H280   H     0.80893   0.56660   0.33127   0.00000  Uiso   1.00
C281   C     0.24848   0.73322   0.15095   0.00000  Uiso   1.00
C282   C     0.25126   0.93344   0.18239   0.00000  Uiso   1.00
C283   C     0.01972   0.73664   0.13461   0.00000  Uiso   1.00
C284   C     0.48055   0.92979   0.19862   0.00000  Uiso   1.00
C285   C     0.24759   0.67703   0.14230   0.00000  Uiso   1.00
C286   C     0.25177   0.98961   0.19103   0.00000  Uiso   1.00
C287   C     0.16473   0.83397   0.16781   0.00000  Uiso   1.00
C288   C     0.33529   0.83273   0.16554   0.00000  Uiso   1.00
C289   C     0.40851   0.87994   0.18043   0.00000  Uiso   1.00
C290   C     0.09156   0.78669   0.15184   0.00000  Uiso   1.00
C291   C     0.38328   0.83191   0.16288   0.00000  Uiso   1.00
C292   C     0.11678   0.83465   0.17044   0.00000  Uiso   1.00
C293   C     0.40321   0.78380   0.14240   0.00000  Uiso   1.00
C294   C     0.09681   0.88248   0.19216   0.00000  Uiso   1.00
C295   C     0.45062   0.78371   0.14472   0.00000  Uiso   1.00
C296   C     0.04943   0.88257   0.18878   0.00000  Uiso   1.00
C297   C     0.47643   0.83279   0.16440   0.00000  Uiso   1.00
C298   C     0.02360   0.83360   0.16830   0.00000  Uiso   1.00
C299   C     0.45508   0.88112   0.18080   0.00000  Uiso   1.00
C300   C     0.04501   0.78537   0.15181   0.00000  Uiso   1.00
C301   C     0.47284   0.73608   0.13149   0.00000  Uiso   1.00
C302   C     0.02736   0.93019   0.20216   0.00000  Uiso   1.00
Cu303  Cu    0.25500   0.83913   0.22813   0.00000  Uiso   1.00
Cu304  Cu    0.24499   0.82754   0.10521   0.00000  Uiso   1.00
H305   H     0.39142   0.91633   0.19441   0.00000  Uiso   1.00
H306   H     0.10868   0.75045   0.13713   0.00000  Uiso   1.00
H307   H     0.45453   0.69786   0.12087   0.00000  Uiso   1.00
H308   H     0.04584   0.96836   0.21378   0.00000  Uiso   1.00
H309   H     0.24359   0.98603   0.09556   0.00000  Uiso   1.00
H310   H     0.25571   0.68061   0.23777   0.00000  Uiso   1.00
N311   N     0.23744   0.81881   0.01284   0.00000  Uiso   1.00
N312   N     0.26255   0.84786   0.32049   0.00000  Uiso   1.00
O313   O     0.25325   0.76204   0.20659   0.00000  Uiso   1.00
O314   O     0.24674   0.90462   0.12674   0.00000  Uiso   1.00
O315   O     0.24480   0.75226   0.10279   0.00000  Uiso   1.00
O316   O     0.25520   0.91441   0.23055   0.00000  Uiso   1.00
O317   O     0.18935   0.83821   0.21857   0.00000  Uiso   1.00
O318   O     0.31064   0.82845   0.11476   0.00000  Uiso   1.00
O319   O     0.18090   0.82843   0.11477   0.00000  Uiso   1.00
O320   O     0.31910   0.83824   0.21857   0.00000  Uiso   1.00
O321   O     0.37541   0.73815   0.12281   0.00000  Uiso   1.00
H322   H     0.38901   0.71369   0.08926   0.00000  Uiso   1.00
O323   O     0.12449   0.92791   0.21435   0.00000  Uiso   1.00
H324   H     0.11051   0.95106   0.24866   0.00000  Uiso   1.00
O325   O     0.04110   0.68952   0.12784   0.00000  Uiso   1.00
C326   C     0.03901   0.99700   0.06504   0.00000  Uiso   1.00
H327   H     0.05076   0.69109   0.03704   0.00000  Uiso   1.00
H328   H     0.00397   0.98138   0.04898   0.00000  Uiso   1.00
C329   C     0.06865   0.94962   0.05510   0.00000  Uiso   1.00
H330   H     0.05702   0.92110   0.08142   0.00000  Uiso   1.00
H331   H     0.06512   0.92886   0.00566   0.00000  Uiso   1.00
C332   C     0.11815   0.96643   0.07409   0.00000  Uiso   1.00
H333   H     0.13046   0.99445   0.04745   0.00000  Uiso   1.00
H334   H     0.13835   0.93091   0.06494   0.00000  Uiso   1.00
H335   H     0.12299   0.98569   0.12385   0.00000  Uiso   1.00
O336   O     0.45968   0.97732   0.20731   0.00000  Uiso   1.00
C337   C     0.45928   0.99950   0.27087   0.00000  Uiso   1.00
H338   H     0.49418   0.67510   0.29200   0.00000  Uiso   1.00
H339   H     0.44187   0.97116   0.29334   0.00000  Uiso   1.00
C340   C     0.43401   0.71742   0.28194   0.00000  Uiso   1.00
H341   H     0.41098   0.71770   0.24107   0.00000  Uiso   1.00
H342   H     0.41301   0.71909   0.32121   0.00000  Uiso   1.00
C343   C     0.46596   0.76711   0.29694   0.00000  Uiso   1.00
H344   H     0.48500   0.77089   0.00876   0.00000  Uiso   1.00
H345   H     0.44645   0.80285   0.29914   0.00000  Uiso   1.00
H346   H     0.49017   0.76514   0.26134   0.00000  Uiso   1.00
O347   O     0.20692   0.78528   0.30844   0.00000  Uiso   1.00
H348   H     0.19105   0.76676   0.00207   0.00000  Uiso   1.00
O349   O     0.29306   0.88140   0.02491   0.00000  Uiso   1.00
H350   H     0.30893   0.89993   0.33127   0.00000  Uiso   1.00
C351   C     0.74848   0.73322   0.15095   0.00000  Uiso   1.00
C352   C     0.75126   0.93344   0.18239   0.00000  Uiso   1.00
C353   C     0.51972   0.73664   0.13461   0.00000  Uiso   1.00
C354   C     0.98055   0.92979   0.19862   0.00000  Uiso   1.00
C355   C     0.74759   0.67703   0.14230   0.00000  Uiso   1.00
C356   C     0.75177   0.98961   0.19103   0.00000  Uiso   1.00
C357   C     0.66473   0.83397   0.16781   0.00000  Uiso   1.00
C358   C     0.83529   0.83273   0.16554   0.00000  Uiso   1.00
C359   C     0.90851   0.87994   0.18043   0.00000  Uiso   1.00
C360   C     0.59156   0.78669   0.15184   0.00000  Uiso   1.00
C361   C     0.88328   0.83191   0.16288   0.00000  Uiso   1.00
C362   C     0.61678   0.83465   0.17044   0.00000  Uiso   1.00
C363   C     0.90321   0.78380   0.14240   0.00000  Uiso   1.00
C364   C     0.59681   0.88248   0.19216   0.00000  Uiso   1.00
C365   C     0.95062   0.78371   0.14472   0.00000  Uiso   1.00
C366   C     0.54943   0.88257   0.18878   0.00000  Uiso   1.00
C367   C     0.97643   0.83279   0.16440   0.00000  Uiso   1.00
C368   C     0.52360   0.83360   0.16830   0.00000  Uiso   1.00
C369   C     0.95508   0.88112   0.18080   0.00000  Uiso   1.00
C370   C     0.54501   0.78537   0.15181   0.00000  Uiso   1.00
C371   C     0.97284   0.73608   0.13149   0.00000  Uiso   1.00
C372   C     0.52736   0.93019   0.20216   0.00000  Uiso   1.00
Cu373  Cu    0.75500   0.83913   0.22813   0.00000  Uiso   1.00
Cu374  Cu    0.74499   0.82754   0.10521   0.00000  Uiso   1.00
H375   H     0.89142   0.91633   0.19441   0.00000  Uiso   1.00
H376   H     0.60868   0.75045   0.13713   0.00000  Uiso   1.00
H377   H     0.95453   0.69786   0.12087   0.00000  Uiso   1.00
H378   H     0.54584   0.96836   0.21378   0.00000  Uiso   1.00
H379   H     0.74359   0.98603   0.09556   0.00000  Uiso   1.00
H380   H     0.75571   0.68061   0.23777   0.00000  Uiso   1.00
N381   N     0.73744   0.81881   0.01284   0.00000  Uiso   1.00
N382   N     0.76255   0.84786   0.32049   0.00000  Uiso   1.00
O383   O     0.75325   0.76204   0.20659   0.00000  Uiso   1.00
O384   O     0.74674   0.90462   0.12674   0.00000  Uiso   1.00
O385   O     0.74480   0.75226   0.10279   0.00000  Uiso   1.00
O386   O     0.75520   0.91441   0.23055   0.00000  Uiso   1.00
O387   O     0.68935   0.83821   0.21857   0.00000  Uiso   1.00
O388   O     0.81064   0.82845   0.11476   0.00000  Uiso   1.00
O389   O     0.68090   0.82843   0.11477   0.00000  Uiso   1.00
O390   O     0.81910   0.83824   0.21857   0.00000  Uiso   1.00
O391   O     0.87541   0.73815   0.12281   0.00000  Uiso   1.00
H392   H     0.88901   0.71369   0.08926   0.00000  Uiso   1.00
O393   O     0.62449   0.92791   0.21435   0.00000  Uiso   1.00
H394   H     0.61051   0.95106   0.24866   0.00000  Uiso   1.00
O395   O     0.54110   0.68952   0.12784   0.00000  Uiso   1.00
C396   C     0.53901   0.99700   0.06504   0.00000  Uiso   1.00
H397   H     0.55076   0.69109   0.03704   0.00000  Uiso   1.00
H398   H     0.50397   0.98138   0.04898   0.00000  Uiso   1.00
C399   C     0.56865   0.94962   0.05510   0.00000  Uiso   1.00
H400   H     0.55702   0.92110   0.08142   0.00000  Uiso   1.00
H401   H     0.56512   0.92886   0.00566   0.00000  Uiso   1.00
C402   C     0.61815   0.96643   0.07409   0.00000  Uiso   1.00
H403   H     0.63046   0.99445   0.04745   0.00000  Uiso   1.00
H404   H     0.63835   0.93091   0.06494   0.00000  Uiso   1.00
H405   H     0.62299   0.98569   0.12385   0.00000  Uiso   1.00
O406   O     0.95968   0.97732   0.20731   0.00000  Uiso   1.00
C407   C     0.95928   0.99950   0.27087   0.00000  Uiso   1.00
H408   H     0.99418   0.67510   0.29200   0.00000  Uiso   1.00
H409   H     0.94187   0.97116   0.29334   0.00000  Uiso   1.00
C410   C     0.93401   0.71742   0.28194   0.00000  Uiso   1.00
H411   H     0.91098   0.71770   0.24107   0.00000  Uiso   1.00
H412   H     0.91301   0.71909   0.32121   0.00000  Uiso   1.00
C413   C     0.96596   0.76711   0.29694   0.00000  Uiso   1.00
H414   H     0.98500   0.77089   0.00876   0.00000  Uiso   1.00
H415   H     0.94645   0.80285   0.29914   0.00000  Uiso   1.00
H416   H     0.99017   0.76514   0.26134   0.00000  Uiso   1.00
O417   O     0.70692   0.78528   0.30844   0.00000  Uiso   1.00
H418   H     0.69105   0.76676   0.00207   0.00000  Uiso   1.00
O419   O     0.79306   0.88140   0.02491   0.00000  Uiso   1.00
H420   H     0.80893   0.89993   0.33127   0.00000  Uiso   1.00
C421   C     0.24848   0.06655   0.48428   0.00000  Uiso   1.00
C422   C     0.25126   0.26677   0.51572   0.00000  Uiso   1.00
C423   C     0.01972   0.06997   0.46795   0.00000  Uiso   1.00
C424   C     0.48055   0.26312   0.53195   0.00000  Uiso   1.00
C425   C     0.24759   0.01036   0.47563   0.00000  Uiso   1.00
C426   C     0.25177   0.32294   0.52437   0.00000  Uiso   1.00
C427   C     0.16473   0.16731   0.50114   0.00000  Uiso   1.00
C428   C     0.33529   0.16606   0.49887   0.00000  Uiso   1.00
C429   C     0.40851   0.21327   0.51377   0.00000  Uiso   1.00
C430   C     0.09156   0.12002   0.48517   0.00000  Uiso   1.00
C431   C     0.38328   0.16524   0.49622   0.00000  Uiso   1.00
C432   C     0.11678   0.16798   0.50377   0.00000  Uiso   1.00
C433   C     0.40321   0.11713   0.47573   0.00000  Uiso   1.00
C434   C     0.09681   0.21582   0.52549   0.00000  Uiso   1.00
C435   C     0.45062   0.11704   0.47806   0.00000  Uiso   1.00
C436   C     0.04943   0.21590   0.52211   0.00000  Uiso   1.00
C437   C     0.47643   0.16613   0.49773   0.00000  Uiso   1.00
C438   C     0.02360   0.16693   0.50163   0.00000  Uiso   1.00
C439   C     0.45508   0.21446   0.51413   0.00000  Uiso   1.00
C440   C     0.04501   0.11870   0.48514   0.00000  Uiso   1.00
C441   C     0.47284   0.06941   0.46483   0.00000  Uiso   1.00
C442   C     0.02736   0.26352   0.53550   0.00000  Uiso   1.00
Cu443  Cu    0.25500   0.17246   0.56146   0.00000  Uiso   1.00
Cu444  Cu    0.24499   0.16087   0.43854   0.00000  Uiso   1.00
H445   H     0.39142   0.24966   0.52774   0.00000  Uiso   1.00
H446   H     0.10868   0.08378   0.47047   0.00000  Uiso   1.00
H447   H     0.45453   0.03120   0.45420   0.00000  Uiso   1.00
H448   H     0.04584   0.30169   0.54711   0.00000  Uiso   1.00
H449   H     0.24359   0.31936   0.42889   0.00000  Uiso   1.00
H450   H     0.25571   0.01394   0.57110   0.00000  Uiso   1.00
N451   N     0.23744   0.15214   0.34617   0.00000  Uiso   1.00
N452   N     0.26255   0.18119   0.65383   0.00000  Uiso   1.00
O453   O     0.25325   0.09538   0.53992   0.00000  Uiso   1.00
O454   O     0.24674   0.23796   0.46008   0.00000  Uiso   1.00
O455   O     0.24480   0.08559   0.43612   0.00000  Uiso   1.00
O456   O     0.25520   0.24774   0.56388   0.00000  Uiso   1.00
O457   O     0.18935   0.17155   0.55191   0.00000  Uiso   1.00
O458   O     0.31064   0.16179   0.44809   0.00000  Uiso   1.00
O459   O     0.18090   0.16176   0.44810   0.00000  Uiso   1.00
O460   O     0.31910   0.17157   0.55190   0.00000  Uiso   1.00
O461   O     0.37541   0.07148   0.45615   0.00000  Uiso   1.00
H462   H     0.38901   0.04702   0.42259   0.00000  Uiso   1.00
O463   O     0.12449   0.26125   0.54769   0.00000  Uiso   1.00
H464   H     0.11051   0.28439   0.58199   0.00000  Uiso   1.00
O465   O     0.04110   0.02285   0.46118   0.00000  Uiso   1.00
C466   C     0.03901   0.33034   0.39838   0.00000  Uiso   1.00
H467   H     0.05076   0.02443   0.37038   0.00000  Uiso   1.00
H468   H     0.00397   0.31471   0.38231   0.00000  Uiso   1.00
C469   C     0.06865   0.28295   0.38844   0.00000  Uiso   1.00
H470   H     0.05702   0.25444   0.41475   0.00000  Uiso   1.00
H471   H     0.06512   0.26220   0.33899   0.00000  Uiso   1.00
C472   C     0.11815   0.29976   0.40742   0.00000  Uiso   1.00
H473   H     0.13046   0.32778   0.38078   0.00000  Uiso   1.00
H474   H     0.13835   0.26424   0.39828   0.00000  Uiso   1.00
H475   H     0.12299   0.31903   0.45718   0.00000  Uiso   1.00
O476   O     0.45968   0.31065   0.54065   0.00000  Uiso   1.00
C477   C     0.45928   0.33283   0.60420   0.00000  Uiso   1.00
H478   H     0.49418   0.00844   0.62533   0.00000  Uiso   1.00
H479   H     0.44187   0.30449   0.62667   0.00000  Uiso   1.00
C480   C     0.43401   0.05075   0.61527   0.00000  Uiso   1.00
H481   H     0.41098   0.05103   0.57441   0.00000  Uiso   1.00
H482   H     0.41301   0.05242   0.65454   0.00000  Uiso   1.00
C483   C     0.46596   0.10044   0.63027   0.00000  Uiso   1.00
H484   H     0.48500   0.10422   0.34209   0.00000  Uiso   1.00
H485   H     0.44645   0.13618   0.63247   0.00000  Uiso   1.00
H486   H     0.49017   0.09847   0.59467   0.00000  Uiso   1.00
O487   O     0.20692   0.11862   0.64177   0.00000  Uiso   1.00
H488   H     0.19105   0.10009   0.33541   0.00000  Uiso   1.00
O489   O     0.29306   0.21474   0.35824   0.00000  Uiso   1.00
H490   H     0.30893   0.23327   0.66461   0.00000  Uiso   1.00
C491   C     0.74848   0.06655   0.48428   0.00000  Uiso   1.00
C492   C     0.75126   0.26677   0.51572   0.00000  Uiso   1.00
C493   C     0.51972   0.06997   0.46795   0.00000  Uiso   1.00
C494   C     0.98055   0.26312   0.53195   0.00000  Uiso   1.00
C495   C     0.74759   0.01036   0.47563   0.00000  Uiso   1.00
C496   C     0.75177   0.32294   0.52437   0.00000  Uiso   1.00
C497   C     0.66473   0.16731   0.50114   0.00000  Uiso   1.00
C498   C     0.83529   0.16606   0.49887   0.00000  Uiso   1.00
C499   C     0.90851   0.21327   0.51377   0.00000  Uiso   1.00
C500   C     0.59156   0.12002   0.48517   0.00000  Uiso   1.00
C501   C     0.88328   0.16524   0.49622   0.00000  Uiso   1.00
C502   C     0.61678   0.16798   0.50377   0.00000  Uiso   1.00
C503   C     0.90321   0.11713   0.47573   0.00000  Uiso   1.00
C504   C     0.59681   0.21582   0.52549   0.00000  Uiso   1.00
C505   C     0.95062   0.11704   0.47806   0.00000  Uiso   1.00
C506   C     0.54943   0.21590   0.52211   0.00000  Uiso   1.00
C507   C     0.97643   0.16613   0.49773   0.00000  Uiso   1.00
C508   C     0.52360   0.16693   0.50163   0.00000  Uiso   1.00
C509   C     0.95508   0.21446   0.51413   0.00000  Uiso   1.00
C510   C     0.54501   0.11870   0.48514   0.00000  Uiso   1.00
C511   C     0.97284   0.06941   0.46483   0.00000  Uiso   1.00
C512   C     0.52736   0.26352   0.53550   0.00000  Uiso   1.00
Cu513  Cu    0.75500   0.17246   0.56146   0.00000  Uiso   1.00
Cu514  Cu    0.74499   0.16087   0.43854   0.00000  Uiso   1.00
H515   H     0.89142   0.24966   0.52774   0.00000  Uiso   1.00
H516   H     0.60868   0.08378   0.47047   0.00000  Uiso   1.00
H517   H     0.95453   0.03120   0.45420   0.00000  Uiso   1.00
H518   H     0.54584   0.30169   0.54711   0.00000  Uiso   1.00
H519   H     0.74359   0.31936   0.42889   0.00000  Uiso   1.00
H520   H     0.75571   0.01394   0.57110   0.00000  Uiso   1.00
N521   N     0.73744   0.15214   0.34617   0.00000  Uiso   1.00
N522   N     0.76255   0.18119   0.65383   0.00000  Uiso   1.00
O523   O     0.75325   0.09538   0.53992   0.00000  Uiso   1.00
O524   O     0.74674   0.23796   0.46008   0.00000  Uiso   1.00
O525   O     0.74480   0.08559   0.43612   0.00000  Uiso   1.00
O526   O     0.75520   0.24774   0.56388   0.00000  Uiso   1.00
O527   O     0.68935   0.17155   0.55191   0.00000  Uiso   1.00
O528   O     0.81064   0.16179   0.44809   0.00000  Uiso   1.00
O529   O     0.68090   0.16176   0.44810   0.00000  Uiso   1.00
O530   O     0.81910   0.17157   0.55190   0.00000  Uiso   1.00
O531   O     0.87541   0.07148   0.45615   0.00000  Uiso   1.00
H532   H     0.88901   0.04702   0.42259   0.00000  Uiso   1.00
O533   O     0.62449   0.26125   0.54769   0.00000  Uiso   1.00
H534   H     0.61051   0.28439   0.58199   0.00000  Uiso   1.00
O535   O     0.54110   0.02285   0.46118   0.00000  Uiso   1.00
C536   C     0.53901   0.33034   0.39838   0.00000  Uiso   1.00
H537   H     0.55076   0.02443   0.37038   0.00000  Uiso   1.00
H538   H     0.50397   0.31471   0.38231   0.00000  Uiso   1.00
C539   C     0.56865   0.28295   0.38844   0.00000  Uiso   1.00
H540   H     0.55702   0.25444   0.41475   0.00000  Uiso   1.00
H541   H     0.56512   0.26220   0.33899   0.00000  Uiso   1.00
C542   C     0.61815   0.29976   0.40742   0.00000  Uiso   1.00
H543   H     0.63046   0.32778   0.38078   0.00000  Uiso   1.00
H544   H     0.63835   0.26424   0.39828   0.00000  Uiso   1.00
H545   H     0.62299   0.31903   0.45718   0.00000  Uiso   1.00
O546   O     0.95968   0.31065   0.54065   0.00000  Uiso   1.00
C547   C     0.95928   0.33283   0.60420   0.00000  Uiso   1.00
H548   H     0.99418   0.00844   0.62533   0.00000  Uiso   1.00
H549   H     0.94187   0.30449   0.62667   0.00000  Uiso   1.00
C550   C     0.93401   0.05075   0.61527   0.00000  Uiso   1.00
H551   H     0.91098   0.05103   0.57441   0.00000  Uiso   1.00
H552   H     0.91301   0.05242   0.65454   0.00000  Uiso   1.00
C553   C     0.96596   0.10044   0.63027   0.00000  Uiso   1.00
H554   H     0.98500   0.10422   0.34209   0.00000  Uiso   1.00
H555   H     0.94645   0.13618   0.63247   0.00000  Uiso   1.00
H556   H     0.99017   0.09847   0.59467   0.00000  Uiso   1.00
O557   O     0.70692   0.11862   0.64177   0.00000  Uiso   1.00
H558   H     0.69105   0.10009   0.33541   0.00000  Uiso   1.00
O559   O     0.79306   0.21474   0.35824   0.00000  Uiso   1.00
H560   H     0.80893   0.23327   0.66461   0.00000  Uiso   1.00
C561   C     0.24848   0.39988   0.48428   0.00000  Uiso   1.00
C562   C     0.25126   0.60010   0.51572   0.00000  Uiso   1.00
C563   C     0.01972   0.40330   0.46795   0.00000  Uiso   1.00
C564   C     0.48055   0.59646   0.53195   0.00000  Uiso   1.00
C565   C     0.24759   0.34369   0.47563   0.00000  Uiso   1.00
C566   C     0.25177   0.65627   0.52437   0.00000  Uiso   1.00
C567   C     0.16473   0.50064   0.50114   0.00000  Uiso   1.00
C568   C     0.33529   0.49939   0.49887   0.00000  Uiso   1.00
C569   C     0.40851   0.54660   0.51377   0.00000  Uiso   1.00
C570   C     0.09156   0.45335   0.48517   0.00000  Uiso   1.00
C571   C     0.38328   0.49857   0.49622   0.00000  Uiso   1.00
C572   C     0.11678   0.50132   0.50377   0.00000  Uiso   1.00
C573   C     0.40321   0.45046   0.47573   0.00000  Uiso   1.00
C574   C     0.09681   0.54915   0.52549   0.00000  Uiso   1.00
C575   C     0.45062   0.45037   0.47806   0.00000  Uiso   1.00
C576   C     0.04943   0.54924   0.52211   0.00000  Uiso   1.00
C577   C     0.47643   0.49946   0.49773   0.00000  Uiso   1.00
C578   C     0.02360   0.50027   0.50163   0.00000  Uiso   1.00
C579   C     0.45508   0.54779   0.51413   0.00000  Uiso   1.00
C580   C     0.04501   0.45204   0.48514   0.00000  Uiso   1.00
C581   C     0.47284   0.40275   0.46483   0.00000  Uiso   1.00
C582   C     0.02736   0.59685   0.53550   0.00000  Uiso   1.00
Cu583  Cu    0.25500   0.50579   0.56146   0.00000  Uiso   1.00
Cu584  Cu    0.24499   0.49421   0.43854   0.00000  Uiso   1.00
H585   H     0.39142   0.58300   0.52774   0.00000  Uiso   1.00
H586   H     0.10868   0.41712   0.47047   0.00000  Uiso   1.00
H587   H     0.45453   0.36453   0.45420   0.00000  Uiso   1.00
H588   H     0.04584   0.63502   0.54711   0.00000  Uiso   1.00
H589   H     0.24359   0.65269   0.42889   0.00000  Uiso   1.00
H590   H     0.25571   0.34727   0.57110   0.00000  Uiso   1.00
N591   N     0.23744   0.48547   0.34617   0.00000  Uiso   1.00
N592   N     0.26255   0.51453   0.65383   0.00000  Uiso   1.00
O593   O     0.25325   0.42871   0.53992   0.00000  Uiso   1.00
O594   O     0.24674   0.57129   0.46008   0.00000  Uiso   1.00
O595   O     0.24480   0.41892   0.43612   0.00000  Uiso   1.00
O596   O     0.25520   0.58108   0.56388   0.00000  Uiso   1.00
O597   O     0.18935   0.50488   0.55191   0.00000  Uiso   1.00
O598   O     0.31064   0.49512   0.44809   0.00000  Uiso   1.00
O599   O     0.18090   0.49510   0.44810   0.00000  Uiso   1.00
O600   O     0.31910   0.50490   0.55190   0.00000  Uiso   1.00
O601   O     0.37541   0.40482   0.45615   0.00000  Uiso   1.00
H602   H     0.38901   0.38035   0.42259   0.00000  Uiso   1.00
O603   O     0.12449   0.59458   0.54769   0.00000  Uiso   1.00
H604   H     0.11051   0.61773   0.58199   0.00000  Uiso   1.00
O605   O     0.04110   0.35619   0.46118   0.00000  Uiso   1.00
C606   C     0.03901   0.66367   0.39838   0.00000  Uiso   1.00
H607   H     0.05076   0.35776   0.37038   0.00000  Uiso   1.00
H608   H     0.00397   0.64805   0.38231   0.00000  Uiso   1.00
C609   C     0.06865   0.61629   0.38844   0.00000  Uiso   1.00
H610   H     0.05702   0.58777   0.41475   0.00000  Uiso   1.00
H611   H     0.06512   0.59553   0.33899   0.00000  Uiso   1.00
C612   C     0.11815   0.63309   0.40742   0.00000  Uiso   1.00
H613   H     0.13046   0.66112   0.38078   0.00000  Uiso   1.00
H614   H     0.13835   0.59758   0.39828   0.00000  Uiso   1.00
H615   H     0.12299   0.65236   0.45718   0.00000  Uiso   1.00
O616   O     0.45968   0.64399   0.54065   0.00000  Uiso   1.00
C617   C     0.45928   0.66616   0.60420   0.00000  Uiso   1.00
H618   H     0.49418   0.34177   0.62533   0.00000  Uiso   1.00
H619   H     0.44187   0.63783   0.62667   0.00000  Uiso   1.00
C620   C     0.43401   0.38409   0.61527   0.00000  Uiso   1.00
H621   H     0.41098   0.38436   0.57441   0.00000  Uiso   1.00
H622   H     0.41301   0.38576   0.65454   0.00000  Uiso   1.00
C623   C     0.46596   0.43377   0.63027   0.00000  Uiso   1.00
H624   H     0.48500   0.43755   0.34209   0.00000  Uiso   1.00
H625   H     0.44645   0.46951   0.63247   0.00000  Uiso   1.00
H626   H     0.49017   0.43180   0.59467   0.00000  Uiso   1.00
O627   O     0.20692   0.45195   0.64177   0.00000  Uiso   1.00
H628   H     0.19105   0.43342   0.33541   0.00000  Uiso   1.00
O629   O     0.29306   0.54807   0.35824   0.00000  Uiso   1.00
H630   H     0.30893   0.56660   0.66461   0.00000  Uiso   1.00
C631   C     0.74848   0.39988   0.48428   0.00000  Uiso   1.00
C632   C     0.75126   0.60010   0.51572   0.00000  Uiso   1.00
C633   C     0.51972   0.40330   0.46795   0.00000  Uiso   1.00
C634   C     0.98055   0.59646   0.53195   0.00000  Uiso   1.00
C635   C     0.74759   0.34369   0.47563   0.00000  Uiso   1.00
C636   C     0.75177   0.65627   0.52437   0.00000  Uiso   1.00
C637   C     0.66473   0.50064   0.50114   0.00000  Uiso   1.00
C638   C     0.83529   0.49939   0.49887   0.00000  Uiso   1.00
C639   C     0.90851   0.54660   0.51377   0.00000  Uiso   1.00
C640   C     0.59156   0.45335   0.48517   0.00000  Uiso   1.00
C641   C     0.88328   0.49857   0.49622   0.00000  Uiso   1.00
C642   C     0.61678   0.50132   0.50377   0.00000  Uiso   1.00
C643   C     0.90321   0.45046   0.47573   0.00000  Uiso   1.00
C644   C     0.59681   0.54915   0.52549   0.00000  Uiso   1.00
C645   C     0.95062   0.45037   0.47806   0.00000  Uiso   1.00
C646   C     0.54943   0.54924   0.52211   0.00000  Uiso   1.00
C647   C     0.97643   0.49946   0.49773   0.00000  Uiso   1.00
C648   C     0.52360   0.50027   0.50163   0.00000  Uiso   1.00
C649   C     0.95508   0.54779   0.51413   0.00000  Uiso   1.00
C650   C     0.54501   0.45204   0.48514   0.00000  Uiso   1.00
C651   C     0.97284   0.40275   0.46483   0.00000  Uiso   1.00
C652   C     0.52736   0.59685   0.53550   0.00000  Uiso   1.00
Cu653  Cu    0.75500   0.50579   0.56146   0.00000  Uiso   1.00
Cu654  Cu    0.74499   0.49421   0.43854   0.00000  Uiso   1.00
H655   H     0.89142   0.58300   0.52774   0.00000  Uiso   1.00
H656   H     0.60868   0.41712   0.47047   0.00000  Uiso   1.00
H657   H     0.95453   0.36453   0.45420   0.00000  Uiso   1.00
H658   H     0.54584   0.63502   0.54711   0.00000  Uiso   1.00
H659   H     0.74359   0.65269   0.42889   0.00000  Uiso   1.00
H660   H     0.75571   0.34727   0.57110   0.00000  Uiso   1.00
N661   N     0.73744   0.48547   0.34617   0.00000  Uiso   1.00
N662   N     0.76255   0.51453   0.65383   0.00000  Uiso   1.00
O663   O     0.75325   0.42871   0.53992   0.00000  Uiso   1.00
O664   O     0.74674   0.57129   0.46008   0.00000  Uiso   1.00
O665   O     0.74480   0.41892   0.43612   0.00000  Uiso   1.00
O666   O     0.75520   0.58108   0.56388   0.00000  Uiso   1.00
O667   O     0.68935   0.50488   0.55191   0.00000  Uiso   1.00
O668   O     0.81064   0.49512   0.44809   0.00000  Uiso   1.00
O669   O     0.68090   0.49510   0.44810   0.00000  Uiso   1.00
O670   O     0.81910   0.50490   0.55190   0.00000  Uiso   1.00
O671   O     0.87541   0.40482   0.45615   0.00000  Uiso   1.00
H672   H     0.88901   0.38035   0.42259   0.00000  Uiso   1.00
O673   O     0.62449   0.59458   0.54769   0.00000  Uiso   1.00
H674   H     0.61051   0.61773   0.58199   0.00000  Uiso   1.00
O675   O     0.54110   0.35619   0.46118   0.00000  Uiso   1.00
C676   C     0.53901   0.66367   0.39838   0.00000  Uiso   1.00
H677   H     0.55076   0.35776   0.37038   0.00000  Uiso   1.00
H678   H     0.50397   0.64805   0.38231   0.00000  Uiso   1.00
C679   C     0.56865   0.61629   0.38844   0.00000  Uiso   1.00
H680   H     0.55702   0.58777   0.41475   0.00000  Uiso   1.00
H681   H     0.56512   0.59553   0.33899   0.00000  Uiso   1.00
C682   C     0.61815   0.63309   0.40742   0.00000  Uiso   1.00
H683   H     0.63046   0.66112   0.38078   0.00000  Uiso   1.00
H684   H     0.63835   0.59758   0.39828   0.00000  Uiso   1.00
H685   H     0.62299   0.65236   0.45718   0.00000  Uiso   1.00
O686   O     0.95968   0.64399   0.54065   0.00000  Uiso   1.00
C687   C     0.95928   0.66616   0.60420   0.00000  Uiso   1.00
H688   H     0.99418   0.34177   0.62533   0.00000  Uiso   1.00
H689   H     0.94187   0.63783   0.62667   0.00000  Uiso   1.00
C690   C     0.93401   0.38409   0.61527   0.00000  Uiso   1.00
H691   H     0.91098   0.38436   0.57441   0.00000  Uiso   1.00
H692   H     0.91301   0.38576   0.65454   0.00000  Uiso   1.00
C693   C     0.96596   0.43377   0.63027   0.00000  Uiso   1.00
H694   H     0.98500   0.43755   0.34209   0.00000  Uiso   1.00
H695   H     0.94645   0.46951   0.63247   0.00000  Uiso   1.00
H696   H     0.99017   0.43180   0.59467   0.00000  Uiso   1.00
O697   O     0.70692   0.45195   0.64177   0.00000  Uiso   1.00
H698   H     0.69105   0.43342   0.33541   0.00000  Uiso   1.00
O699   O     0.79306   0.54807   0.35824   0.00000  Uiso   1.00
H700   H     0.80893   0.56660   0.66461   0.00000  Uiso   1.00
C701   C     0.24848   0.73322   0.48428   0.00000  Uiso   1.00
C702   C     0.25126   0.93344   0.51572   0.00000  Uiso   1.00
C703   C     0.01972   0.73664   0.46795   0.00000  Uiso   1.00
C704   C     0.48055   0.92979   0.53195   0.00000  Uiso   1.00
C705   C     0.24759   0.67703   0.47563   0.00000  Uiso   1.00
C706   C     0.25177   0.98961   0.52437   0.00000  Uiso   1.00
C707   C     0.16473   0.83397   0.50114   0.00000  Uiso   1.00
C708   C     0.33529   0.83273   0.49887   0.00000  Uiso   1.00
C709   C     0.40851   0.87994   0.51377   0.00000  Uiso   1.00
C710   C     0.09156   0.78669   0.48517   0.00000  Uiso   1.00
C711   C     0.38328   0.83191   0.49622   0.00000  Uiso   1.00
C712   C     0.11678   0.83465   0.50377   0.00000  Uiso   1.00
C713   C     0.40321   0.78380   0.47573   0.00000  Uiso   1.00
C714   C     0.09681   0.88248   0.52549   0.00000  Uiso   1.00
C715   C     0.45062   0.78371   0.47806   0.00000  Uiso   1.00
C716   C     0.04943   0.88257   0.52211   0.00000  Uiso   1.00
C717   C     0.47643   0.83279   0.49773   0.00000  Uiso   1.00
C718   C     0.02360   0.83360   0.50163   0.00000  Uiso   1.00
C719   C     0.45508   0.88112   0.51413   0.00000  Uiso   1.00
C720   C     0.04501   0.78537   0.48514   0.00000  Uiso   1.00
C721   C     0.47284   0.73608   0.46483   0.00000  Uiso   1.00
C722   C     0.02736   0.93019   0.53550   0.00000  Uiso   1.00
Cu723  Cu    0.25500   0.83913   0.56146   0.00000  Uiso   1.00
Cu724  Cu    0.24499   0.82754   0.43854   0.00000  Uiso   1.00
H725   H     0.39142   0.91633   0.52774   0.00000  Uiso   1.00
H726   H     0.10868   0.75045   0.47047   0.00000  Uiso   1.00
H727   H     0.45453   0.69786   0.45420   0.00000  Uiso   1.00
H728   H     0.04584   0.96836   0.54711   0.00000  Uiso   1.00
H729   H     0.24359   0.98603   0.42889   0.00000  Uiso   1.00
H730   H     0.25571   0.68061   0.57110   0.00000  Uiso   1.00
N731   N     0.23744   0.81881   0.34617   0.00000  Uiso   1.00
N732   N     0.26255   0.84786   0.65383   0.00000  Uiso   1.00
O733   O     0.25325   0.76204   0.53992   0.00000  Uiso   1.00
O734   O     0.24674   0.90462   0.46008   0.00000  Uiso   1.00
O735   O     0.24480   0.75226   0.43612   0.00000  Uiso   1.00
O736   O     0.25520   0.91441   0.56388   0.00000  Uiso   1.00
O737   O     0.18935   0.83821   0.55191   0.00000  Uiso   1.00
O738   O     0.31064   0.82845   0.44809   0.00000  Uiso   1.00
O739   O     0.18090   0.82843   0.44810   0.00000  Uiso   1.00
O740   O     0.31910   0.83824   0.55190   0.00000  Uiso   1.00
O741   O     0.37541   0.73815   0.45615   0.00000  Uiso   1.00
H742   H     0.38901   0.71369   0.42259   0.00000  Uiso   1.00
O743   O     0.12449   0.92791   0.54769   0.00000  Uiso   1.00
H744   H     0.11051   0.95106   0.58199   0.00000  Uiso   1.00
O745   O     0.04110   0.68952   0.46118   0.00000  Uiso   1.00
C746   C     0.03901   0.99700   0.39838   0.00000  Uiso   1.00
H747   H     0.05076   0.69109   0.37038   0.00000  Uiso   1.00
H748   H     0.00397   0.98138   0.38231   0.00000  Uiso   1.00
C749   C     0.06865   0.94962   0.38844   0.00000  Uiso   1.00
H750   H     0.05702   0.92110   0.41475   0.00000  Uiso   1.00
H751   H     0.06512   0.92886   0.33899   0.00000  Uiso   1.00
C752   C     0.11815   0.96643   0.40742   0.00000  Uiso   1.00
H753   H     0.13046   0.99445   0.38078   0.00000  Uiso   1.00
H754   H     0.13835   0.93091   0.39828   0.00000  Uiso   1.00
H755   H     0.12299   0.98569   0.45718   0.00000  Uiso   1.00
O756   O     0.45968   0.97732   0.54065   0.00000  Uiso   1.00
C757   C     0.45928   0.99950   0.60420   0.00000  Uiso   1.00
H758   H     0.49418   0.67510   0.62533   0.00000  Uiso   1.00
H759   H     0.44187   0.97116   0.62667   0.00000  Uiso   1.00
C760   C     0.43401   0.71742   0.61527   0.00000  Uiso   1.00
H761   H     0.41098   0.71770   0.57441   0.00000  Uiso   1.00
H762   H     0.41301   0.71909   0.65454   0.00000  Uiso   1.00
C763   C     0.46596   0.76711   0.63027   0.00000  Uiso   1.00
H764   H     0.48500   0.77089   0.34209   0.00000  Uiso   1.00
H765   H     0.44645   0.80285   0.63247   0.00000  Uiso   1.00
H766   H     0.49017   0.76514   0.59467   0.00000  Uiso   1.00
O767   O     0.20692   0.78528   0.64177   0.00000  Uiso   1.00
H768   H     0.19105   0.76676   0.33541   0.00000  Uiso   1.00
O769   O     0.29306   0.88140   0.35824   0.00000  Uiso   1.00
H770   H     0.30893   0.89993   0.66461   0.00000  Uiso   1.00
C771   C     0.74848   0.73322   0.48428   0.00000  Uiso   1.00
C772   C     0.75126   0.93344   0.51572   0.00000  Uiso   1.00
C773   C     0.51972   0.73664   0.46795   0.00000  Uiso   1.00
C774   C     0.98055   0.92979   0.53195   0.00000  Uiso   1.00
C775   C     0.74759   0.67703   0.47563   0.00000  Uiso   1.00
C776   C     0.75177   0.98961   0.52437   0.00000  Uiso   1.00
C777   C     0.66473   0.83397   0.50114   0.00000  Uiso   1.00
C778   C     0.83529   0.83273   0.49887   0.00000  Uiso   1.00
C779   C     0.90851   0.87994   0.51377   0.00000  Uiso   1.00
C780   C     0.59156   0.78669   0.48517   0.00000  Uiso   1.00
C781   C     0.88328   0.83191   0.49622   0.00000  Uiso   1.00
C782   C     0.61678   0.83465   0.50377   0.00000  Uiso   1.00
C783   C     0.90321   0.78380   0.47573   0.00000  Uiso   1.00
C784   C     0.59681   0.88248   0.52549   0.00000  Uiso   1.00
C785   C     0.95062   0.78371   0.47806   0.00000  Uiso   1.00
C786   C     0.54943   0.88257   0.52211   0.00000  Uiso   1.00
C787   C     0.97643   0.83279   0.49773   0.00000  Uiso   1.00
C788   C     0.52360   0.83360   0.50163   0.00000  Uiso   1.00
C789   C     0.95508   0.88112   0.51413   0.00000  Uiso   1.00
C790   C     0.54501   0.78537   0.48514   0.00000  Uiso   1.00
C791   C     0.97284   0.73608   0.46483   0.00000  Uiso   1.00
C792   C     0.52736   0.93019   0.53550   0.00000  Uiso   1.00
Cu793  Cu    0.75500   0.83913   0.56146   0.00000  Uiso   1.00
Cu794  Cu    0.74499   0.82754   0.43854   0.00000  Uiso   1.00
H795   H     0.89142   0.91633   0.52774   0.00000  Uiso   1.00
H796   H     0.60868   0.75045   0.47047   0.00000  Uiso   1.00
H797   H     0.95453   0.69786   0.45420   0.00000  Uiso   1.00
H798   H     0.54584   0.96836   0.54711   0.00000  Uiso   1.00
H799   H     0.74359   0.98603   0.42889   0.00000  Uiso   1.00
H800   H     0.75571   0.68061   0.57110   0.00000  Uiso   1.00
N801   N     0.73744   0.81881   0.34617   0.00000  Uiso   1.00
N802   N     0.76255   0.84786   0.65383   0.00000  Uiso   1.00
O803   O     0.75325   0.76204   0.53992   0.00000  Uiso   1.00
O804   O     0.74674   0.90462   0.46008   0.00000  Uiso   1.00
O805   O     0.74480   0.75226   0.43612   0.00000  Uiso   1.00
O806   O     0.75520   0.91441   0.56388   0.00000  Uiso   1.00
O807   O     0.68935   0.83821   0.55191   0.00000  Uiso   1.00
O808   O     0.81064   0.82845   0.44809   0.00000  Uiso   1.00
O809   O     0.68090   0.82843   0.44810   0.00000  Uiso   1.00
O810   O     0.81910   0.83824   0.55190   0.00000  Uiso   1.00
O811   O     0.87541   0.73815   0.45615   0.00000  Uiso   1.00
H812   H     0.88901   0.71369   0.42259   0.00000  Uiso   1.00
O813   O     0.62449   0.92791   0.54769   0.00000  Uiso   1.00
H814   H     0.61051   0.95106   0.58199   0.00000  Uiso   1.00
O815   O     0.54110   0.68952   0.46118   0.00000  Uiso   1.00
C816   C     0.53901   0.99700   0.39838   0.00000  Uiso   1.00
H817   H     0.55076   0.69109   0.37038   0.00000  Uiso   1.00
H818   H     0.50397   0.98138   0.38231   0.00000  Uiso   1.00
C819   C     0.56865   0.94962   0.38844   0.00000  Uiso   1.00
H820   H     0.55702   0.92110   0.41475   0.00000  Uiso   1.00
H821   H     0.56512   0.92886   0.33899   0.00000  Uiso   1.00
C822   C     0.61815   0.96643   0.40742   0.00000  Uiso   1.00
H823   H     0.63046   0.99445   0.38078   0.00000  Uiso   1.00
H824   H     0.63835   0.93091   0.39828   0.00000  Uiso   1.00
H825   H     0.62299   0.98569   0.45718   0.00000  Uiso   1.00
O826   O     0.95968   0.97732   0.54065   0.00000  Uiso   1.00
C827   C     0.95928   0.99950   0.60420   0.00000  Uiso   1.00
H828   H     0.99418   0.67510   0.62533   0.00000  Uiso   1.00
H829   H     0.94187   0.97116   0.62667   0.00000  Uiso   1.00
C830   C     0.93401   0.71742   0.61527   0.00000  Uiso   1.00
H831   H     0.91098   0.71770   0.57441   0.00000  Uiso   1.00
H832   H     0.91301   0.71909   0.65454   0.00000  Uiso   1.00
C833   C     0.96596   0.76711   0.63027   0.00000  Uiso   1.00
H834   H     0.98500   0.77089   0.34209   0.00000  Uiso   1.00
H835   H     0.94645   0.80285   0.63247   0.00000  Uiso   1.00
H836   H     0.99017   0.76514   0.59467   0.00000  Uiso   1.00
O837   O     0.70692   0.78528   0.64177   0.00000  Uiso   1.00
H838   H     0.69105   0.76676   0.33541   0.00000  Uiso   1.00
O839   O     0.79306   0.88140   0.35824   0.00000  Uiso   1.00
H840   H     0.80893   0.89993   0.66461   0.00000  Uiso   1.00
C841   C     0.24848   0.06655   0.81762   0.00000  Uiso   1.00
C842   C     0.25126   0.26677   0.84905   0.00000  Uiso   1.00
C843   C     0.01972   0.06997   0.80128   0.00000  Uiso   1.00
C844   C     0.48055   0.26312   0.86529   0.00000  Uiso   1.00
C845   C     0.24759   0.01036   0.80896   0.00000  Uiso   1.00
C846   C     0.25177   0.32294   0.85770   0.00000  Uiso   1.00
C847   C     0.16473   0.16731   0.83447   0.00000  Uiso   1.00
C848   C     0.33529   0.16606   0.83220   0.00000  Uiso   1.00
C849   C     0.40851   0.21327   0.84710   0.00000  Uiso   1.00
C850   C     0.09156   0.12002   0.81851   0.00000  Uiso   1.00
C851   C     0.38328   0.16524   0.82955   0.00000  Uiso   1.00
C852   C     0.11678   0.16798   0.83711   0.00000  Uiso   1.00
C853   C     0.40321   0.11713   0.80907   0.00000  Uiso   1.00
C854   C     0.09681   0.21582   0.85883   0.00000  Uiso   1.00
C855   C     0.45062   0.11704   0.81139   0.00000  Uiso   1.00
C856   C     0.04943   0.21590   0.85545   0.00000  Uiso   1.00
C857   C     0.47643   0.16613   0.83107   0.00000  Uiso   1.00
C858   C     0.02360   0.16693   0.83496   0.00000  Uiso   1.00
C859   C     0.45508   0.21446   0.84747   0.00000  Uiso   1.00
C860   C     0.04501   0.11870   0.81848   0.00000  Uiso   1.00
C861   C     0.47284   0.06941   0.79816   0.00000  Uiso   1.00
C862   C     0.02736   0.26352   0.86883   0.00000  Uiso   1.00
Cu863  Cu    0.25500   0.17246   0.89479   0.00000  Uiso   1.00
Cu864  Cu    0.24499   0.16087   0.77187   0.00000  Uiso   1.00
H865   H     0.39142   0.24966   0.86108   0.00000  Uiso   1.00
H866   H     0.10868   0.08378   0.80380   0.00000  Uiso   1.00
H867   H     0.45453   0.03120   0.78753   0.00000  Uiso   1.00
H868   H     0.04584   0.30169   0.88044   0.00000  Uiso   1.00
H869   H     0.24359   0.31936   0.76223   0.00000  Uiso   1.00
H870   H     0.25571   0.01394   0.90444   0.00000  Uiso   1.00
N871   N     0.23744   0.15214   0.67951   0.00000  Uiso   1.00
N872   N     0.26255   0.18119   0.98716   0.00000  Uiso   1.00
O873   O     0.25325   0.09538   0.87326   0.00000  Uiso   1.00
O874   O     0.24674   0.23796   0.79341   0.00000  Uiso   1.00
O875   O     0.24480   0.08559   0.76945   0.00000  Uiso   1.00
O876   O     0.25520   0.24774   0.89721   0.00000  Uiso   1.00
O877   O     0.18935   0.17155   0.88524   0.00000  Uiso   1.00
O878   O     0.31064   0.16179   0.78143   0.00000  Uiso   1.00
O879   O     0.18090   0.16176   0.78143   0.00000  Uiso   1.00
O880   O     0.31910   0.17157   0.88523   0.00000  Uiso   1.00
O881   O     0.37541   0.07148   0.78948   0.00000  Uiso   1.00
H882   H     0.38901   0.04702   0.75592   0.00000  Uiso   1.00
O883   O     0.12449   0.26125   0.88102   0.00000  Uiso   1.00
H884   H     0.11051   0.28439   0.91533   0.00000  Uiso   1.00
O885   O     0.04110   0.02285   0.79451   0.00000  Uiso   1.00
C886   C     0.03901   0.33034   0.73171   0.00000  Uiso   1.00
H887   H     0.05076   0.02443   0.70371   0.00000  Uiso   1.00
H888   H     0.00397   0.31471   0.71564   0.00000  Uiso   1.00
C889   C     0.06865   0.28295   0.72177   0.00000  Uiso   1.00
H890   H     0.05702   0.25444   0.74809   0.00000  Uiso   1.00
H891   H     0.06512   0.26220   0.67233   0.00000  Uiso   1.00
C892   C     0.11815   0.29976   0.74075   0.00000  Uiso   1.00
H893   H     0.13046   0.32778   0.71412   0.00000  Uiso   1.00
H894   H     0.13835   0.26424   0.73161   0.00000  Uiso   1.00
H895   H     0.12299   0.31903   0.79052   0.00000  Uiso   1.00
O896   O     0.45968   0.31065   0.87398   0.00000  Uiso   1.00
C897   C     0.45928   0.33283   0.93753   0.00000  Uiso   1.00
H898   H     0.49418   0.00844   0.95867   0.00000  Uiso   1.00
H899   H     0.44187   0.30449   0.96000   0.00000  Uiso   1.00
C900   C     0.43401   0.05075   0.94861   0.00000  Uiso   1.00
H901   H     0.41098   0.05103   0.90774   0.00000  Uiso   1.00
H902   H     0.41301   0.05242   0.98787   0.00000  Uiso   1.00
C903   C     0.46596   0.10044   0.96360   0.00000  Uiso   1.00
H904   H     0.48500   0.10422   0.67542   0.00000  Uiso   1.00
H905   H     0.44645   0.13618   0.96581   0.00000  Uiso   1.00
H906   H     0.49017   0.09847   0.92801   0.00000  Uiso   1.00
O907   O     0.20692   0.11862   0.97510   0.00000  Uiso   1.00
H908   H     0.19105   0.10009   0.66874   0.00000  Uiso   1.00
O909   O     0.29306   0.21474   0.69157   0.00000  Uiso   1.00
H910   H     0.30893   0.23327   0.99794   0.00000  Uiso   1.00
C911   C     0.74848   0.06655   0.81762   0.00000  Uiso   1.00
C912   C     0.75126   0.26677   0.84905   0.00000  Uiso   1.00
C913   C     0.51972   0.06997   0.80128   0.00000  Uiso   1.00
C914   C     0.98055   0.26312   0.86529   0.00000  Uiso   1.00
C915   C     0.74759   0.01036   0.80896   0.00000  Uiso   1.00
C916   C     0.75177   0.32294   0.85770   0.00000  Uiso   1.00
C917   C     0.66473   0.16731   0.83447   0.00000  Uiso   1.00
C918   C     0.83529   0.16606   0.83220   0.00000  Uiso   1.00
C919   C     0.90851   0.21327   0.84710   0.00000  Uiso   1.00
C920   C     0.59156   0.12002   0.81851   0.00000  Uiso   1.00
C921   C     0.88328   0.16524   0.82955   0.00000  Uiso   1.00
C922   C     0.61678   0.16798   0.83711   0.00000  Uiso   1.00
C923   C     0.90321   0.11713   0.80907   0.00000  Uiso   1.00
C924   C     0.59681   0.21582   0.85883   0.00000  Uiso   1.00
C925   C     0.95062   0.11704   0.81139   0.00000  Uiso   1.00
C926   C     0.54943   0.21590   0.85545   0.00000  Uiso   1.00
C927   C     0.97643   0.16613   0.83107   0.00000  Uiso   1.00
C928   C     0.52360   0.16693   0.83496   0.00000  Uiso   1.00
C929   C     0.95508   0.21446   0.84747   0.00000  Uiso   1.00
C930   C     0.54501   0.11870   0.81848   0.00000  Uiso   1.00
C931   C     0.97284   0.06941   0.79816   0.00000  Uiso   1.00
C932   C     0.52736   0.26352   0.86883   0.00000  Uiso   1.00
Cu933  Cu    0.75500   0.17246   0.89479   0.00000  Uiso   1.00
Cu934  Cu    0.74499   0.16087   0.77187   0.00000  Uiso   1.00
H935   H     0.89142   0.24966   0.86108   0.00000  Uiso   1.00
H936   H     0.60868   0.08378   0.80380   0.00000  Uiso   1.00
H937   H     0.95453   0.03120   0.78753   0.00000  Uiso   1.00
H938   H     0.54584   0.30169   0.88044   0.00000  Uiso   1.00
H939   H     0.74359   0.31936   0.76223   0.00000  Uiso   1.00
H940   H     0.75571   0.01394   0.90444   0.00000  Uiso   1.00
N941   N     0.73744   0.15214   0.67951   0.00000  Uiso   1.00
N942   N     0.76255   0.18119   0.98716   0.00000  Uiso   1.00
O943   O     0.75325   0.09538   0.87326   0.00000  Uiso   1.00
O944   O     0.74674   0.23796   0.79341   0.00000  Uiso   1.00
O945   O     0.74480   0.08559   0.76945   0.00000  Uiso   1.00
O946   O     0.75520   0.24774   0.89721   0.00000  Uiso   1.00
O947   O     0.68935   0.17155   0.88524   0.00000  Uiso   1.00
O948   O     0.81064   0.16179   0.78143   0.00000  Uiso   1.00
O949   O     0.68090   0.16176   0.78143   0.00000  Uiso   1.00
O950   O     0.81910   0.17157   0.88523   0.00000  Uiso   1.00
O951   O     0.87541   0.07148   0.78948   0.00000  Uiso   1.00
H952   H     0.88901   0.04702   0.75592   0.00000  Uiso   1.00
O953   O     0.62449   0.26125   0.88102   0.00000  Uiso   1.00
H954   H     0.61051   0.28439   0.91533   0.00000  Uiso   1.00
O955   O     0.54110   0.02285   0.79451   0.00000  Uiso   1.00
C956   C     0.53901   0.33034   0.73171   0.00000  Uiso   1.00
H957   H     0.55076   0.02443   0.70371   0.00000  Uiso   1.00
H958   H     0.50397   0.31471   0.71564   0.00000  Uiso   1.00
C959   C     0.56865   0.28295   0.72177   0.00000  Uiso   1.00
H960   H     0.55702   0.25444   0.74809   0.00000  Uiso   1.00
H961   H     0.56512   0.26220   0.67233   0.00000  Uiso   1.00
C962   C     0.61815   0.29976   0.74075   0.00000  Uiso   1.00
H963   H     0.63046   0.32778   0.71412   0.00000  Uiso   1.00
H964   H     0.63835   0.26424   0.73161   0.00000  Uiso   1.00
H965   H     0.62299   0.31903   0.79052   0.00000  Uiso   1.00
O966   O     0.95968   0.31065   0.87398   0.00000  Uiso   1.00
C967   C     0.95928   0.33283   0.93753   0.00000  Uiso   1.00
H968   H     0.99418   0.00844   0.95867   0.00000  Uiso   1.00
H969   H     0.94187   0.30449   0.96000   0.00000  Uiso   1.00
C970   C     0.93401   0.05075   0.94861   0.00000  Uiso   1.00
H971   H     0.91098   0.05103   0.90774   0.00000  Uiso   1.00
H972   H     0.91301   0.05242   0.98787   0.00000  Uiso   1.00
C973   C     0.96596   0.10044   0.96360   0.00000  Uiso   1.00
H974   H     0.98500   0.10422   0.67542   0.00000  Uiso   1.00
H975   H     0.94645   0.13618   0.96581   0.00000  Uiso   1.00
H976   H     0.99017   0.09847   0.92801   0.00000  Uiso   1.00
O977   O     0.70692   0.11862   0.97510   0.00000  Uiso   1.00
H978   H     0.69105   0.10009   0.66874   0.00000  Uiso   1.00
O979   O     0.79306   0.21474   0.69157   0.00000  Uiso   1.00
H980   H     0.80893   0.23327   0.99794   0.00000  Uiso   1.00
C981   C     0.24848   0.39988   0.81762   0.00000  Uiso   1.00
C982   C     0.25126   0.60010   0.84905   0.00000  Uiso   1.00
C983   C     0.01972   0.40330   0.80128   0.00000  Uiso   1.00
C984   C     0.48055   0.59646   0.86529   0.00000  Uiso   1.00
C985   C     0.24759   0.34369   0.80896   0.00000  Uiso   1.00
C986   C     0.25177   0.65627   0.85770   0.00000  Uiso   1.00
C987   C     0.16473   0.50064   0.83447   0.00000  Uiso   1.00
C988   C     0.33529   0.49939   0.83220   0.00000  Uiso   1.00
C989   C     0.40851   0.54660   0.84710   0.00000  Uiso   1.00
C990   C     0.09156   0.45335   0.81851   0.00000  Uiso   1.00
C991   C     0.38328   0.49857   0.82955   0.00000  Uiso   1.00
C992   C     0.11678   0.50132   0.83711   0.00000  Uiso   1.00
C993   C     0.40321   0.45046   0.80907   0.00000  Uiso   1.00
C994   C     0.09681   0.54915   0.85883   0.00000  Uiso   1.00
C995   C     0.45062   0.45037   0.81139   0.00000  Uiso   1.00
C996   C     0.04943   0.54924   0.85545   0.00000  Uiso   1.00
C997   C     0.47643   0.49946   0.83107   0.00000  Uiso   1.00
C998   C     0.02360   0.50027   0.83496   0.00000  Uiso   1.00
C999   C     0.45508   0.54779   0.84747   0.00000  Uiso   1.00
C1000  C     0.04501   0.45204   0.81848   0.00000  Uiso   1.00
C1001  C     0.47284   0.40275   0.79816   0.00000  Uiso   1.00
C1002  C     0.02736   0.59685   0.86883   0.00000  Uiso   1.00
Cu1003 Cu    0.25500   0.50579   0.89479   0.00000  Uiso   1.00
Cu1004 Cu    0.24499   0.49421   0.77187   0.00000  Uiso   1.00
H1005  H     0.39142   0.58300   0.86108   0.00000  Uiso   1.00
H1006  H     0.10868   0.41712   0.80380   0.00000  Uiso   1.00
H1007  H     0.45453   0.36453   0.78753   0.00000  Uiso   1.00
H1008  H     0.04584   0.63502   0.88044   0.00000  Uiso   1.00
H1009  H     0.24359   0.65269   0.76223   0.00000  Uiso   1.00
H1010  H     0.25571   0.34727   0.90444   0.00000  Uiso   1.00
N1011  N     0.23744   0.48547   0.67951   0.00000  Uiso   1.00
N1012  N     0.26255   0.51453   0.98716   0.00000  Uiso   1.00
O1013  O     0.25325   0.42871   0.87326   0.00000  Uiso   1.00
O1014  O     0.24674   0.57129   0.79341   0.00000  Uiso   1.00
O1015  O     0.24480   0.41892   0.76945   0.00000  Uiso   1.00
O1016  O     0.25520   0.58108   0.89721   0.00000  Uiso   1.00
O1017  O     0.18935   0.50488   0.88524   0.00000  Uiso   1.00
O1018  O     0.31064   0.49512   0.78143   0.00000  Uiso   1.00
O1019  O     0.18090   0.49510   0.78143   0.00000  Uiso   1.00
O1020  O     0.31910   0.50490   0.88523   0.00000  Uiso   1.00
O1021  O     0.37541   0.40482   0.78948   0.00000  Uiso   1.00
H1022  H     0.38901   0.38035   0.75592   0.00000  Uiso   1.00
O1023  O     0.12449   0.59458   0.88102   0.00000  Uiso   1.00
H1024  H     0.11051   0.61773   0.91533   0.00000  Uiso   1.00
O1025  O     0.04110   0.35619   0.79451   0.00000  Uiso   1.00
C1026  C     0.03901   0.66367   0.73171   0.00000  Uiso   1.00
H1027  H     0.05076   0.35776   0.70371   0.00000  Uiso   1.00
H1028  H     0.00397   0.64805   0.71564   0.00000  Uiso   1.00
C1029  C     0.06865   0.61629   0.72177   0.00000  Uiso   1.00
H1030  H     0.05702   0.58777   0.74809   0.00000  Uiso   1.00
H1031  H     0.06512   0.59553   0.67233   0.00000  Uiso   1.00
C1032  C     0.11815   0.63309   0.74075   0.00000  Uiso   1.00
H1033  H     0.13046   0.66112   0.71412   0.00000  Uiso   1.00
H1034  H     0.13835   0.59758   0.73161   0.00000  Uiso   1.00
H1035  H     0.12299   0.65236   0.79052   0.00000  Uiso   1.00
O1036  O     0.45968   0.64399   0.87398   0.00000  Uiso   1.00
C1037  C     0.45928   0.66616   0.93753   0.00000  Uiso   1.00
H1038  H     0.49418   0.34177   0.95867   0.00000  Uiso   1.00
H1039  H     0.44187   0.63783   0.96000   0.00000  Uiso   1.00
C1040  C     0.43401   0.38409   0.94861   0.00000  Uiso   1.00
H1041  H     0.41098   0.38436   0.90774   0.00000  Uiso   1.00
H1042  H     0.41301   0.38576   0.98787   0.00000  Uiso   1.00
C1043  C     0.46596   0.43377   0.96360   0.00000  Uiso   1.00
H1044  H     0.48500   0.43755   0.67542   0.00000  Uiso   1.00
H1045  H     0.44645   0.46951   0.96581   0.00000  Uiso   1.00
H1046  H     0.49017   0.43180   0.92801   0.00000  Uiso   1.00
O1047  O     0.20692   0.45195   0.97510   0.00000  Uiso   1.00
H1048  H     0.19105   0.43342   0.66874   0.00000  Uiso   1.00
O1049  O     0.29306   0.54807   0.69157   0.00000  Uiso   1.00
H1050  H     0.30893   0.56660   0.99794   0.00000  Uiso   1.00
C1051  C     0.74848   0.39988   0.81762   0.00000  Uiso   1.00
C1052  C     0.75126   0.60010   0.84905   0.00000  Uiso   1.00
C1053  C     0.51972   0.40330   0.80128   0.00000  Uiso   1.00
C1054  C     0.98055   0.59646   0.86529   0.00000  Uiso   1.00
C1055  C     0.74759   0.34369   0.80896   0.00000  Uiso   1.00
C1056  C     0.75177   0.65627   0.85770   0.00000  Uiso   1.00
C1057  C     0.66473   0.50064   0.83447   0.00000  Uiso   1.00
C1058  C     0.83529   0.49939   0.83220   0.00000  Uiso   1.00
C1059  C     0.90851   0.54660   0.84710   0.00000  Uiso   1.00
C1060  C     0.59156   0.45335   0.81851   0.00000  Uiso   1.00
C1061  C     0.88328   0.49857   0.82955   0.00000  Uiso   1.00
C1062  C     0.61678   0.50132   0.83711   0.00000  Uiso   1.00
C1063  C     0.90321   0.45046   0.80907   0.00000  Uiso   1.00
C1064  C     0.59681   0.54915   0.85883   0.00000  Uiso   1.00
C1065  C     0.95062   0.45037   0.81139   0.00000  Uiso   1.00
C1066  C     0.54943   0.54924   0.85545   0.00000  Uiso   1.00
C1067  C     0.97643   0.49946   0.83107   0.00000  Uiso   1.00
C1068  C     0.52360   0.50027   0.83496   0.00000  Uiso   1.00
C1069  C     0.95508   0.54779   0.84747   0.00000  Uiso   1.00
C1070  C     0.54501   0.45204   0.81848   0.00000  Uiso   1.00
C1071  C     0.97284   0.40275   0.79816   0.00000  Uiso   1.00
C1072  C     0.52736   0.59685   0.86883   0.00000  Uiso   1.00
Cu1073 Cu    0.75500   0.50579   0.89479   0.00000  Uiso   1.00
Cu1074 Cu    0.74499   0.49421   0.77187   0.00000  Uiso   1.00
H1075  H     0.89142   0.58300   0.86108   0.00000  Uiso   1.00
H1076  H     0.60868   0.41712   0.80380   0.00000  Uiso   1.00
H1077  H     0.95453   0.36453   0.78753   0.00000  Uiso   1.00
H1078  H     0.54584   0.63502   0.88044   0.00000  Uiso   1.00
H1079  H     0.74359   0.65269   0.76223   0.00000  Uiso   1.00
H1080  H     0.75571   0.34727   0.90444   0.00000  Uiso   1.00
N1081  N     0.73744   0.48547   0.67951   0.00000  Uiso   1.00
N1082  N     0.76255   0.51453   0.98716   0.00000  Uiso   1.00
O1083  O     0.75325   0.42871   0.87326   0.00000  Uiso   1.00
O1084  O     0.74674   0.57129   0.79341   0.00000  Uiso   1.00
O1085  O     0.74480   0.41892   0.76945   0.00000  Uiso   1.00
O1086  O     0.75520   0.58108   0.89721   0.00000  Uiso   1.00
O1087  O     0.68935   0.50488   0.88524   0.00000  Uiso   1.00
O1088  O     0.81064   0.49512   0.78143   0.00000  Uiso   1.00
O1089  O     0.68090   0.49510   0.78143   0.00000  Uiso   1.00
O1090  O     0.81910   0.50490   0.88523   0.00000  Uiso   1.00
O1091  O     0.87541   0.40482   0.78948   0.00000  Uiso   1.00
H1092  H     0.88901   0.38035   0.75592   0.00000  Uiso   1.00
O1093  O     0.62449   0.59458   0.88102   0.00000  Uiso   1.00
H1094  H     0.61051   0.61773   0.91533   0.00000  Uiso   1.00
O1095  O     0.54110   0.35619   0.79451   0.00000  Uiso   1.00
C1096  C     0.53901   0.66367   0.73171   0.00000  Uiso   1.00
H1097  H     0.55076   0.35776   0.70371   0.00000  Uiso   1.00
H1098  H     0.50397   0.64805   0.71564   0.00000  Uiso   1.00
C1099  C     0.56865   0.61629   0.72177   0.00000  Uiso   1.00
H1100  H     0.55702   0.58777   0.74809   0.00000  Uiso   1.00
H1101  H     0.56512   0.59553   0.67233   0.00000  Uiso   1.00
C1102  C     0.61815   0.63309   0.74075   0.00000  Uiso   1.00
H1103  H     0.63046   0.66112   0.71412   0.00000  Uiso   1.00
H1104  H     0.63835   0.59758   0.73161   0.00000  Uiso   1.00
H1105  H     0.62299   0.65236   0.79052   0.00000  Uiso   1.00
O1106  O     0.95968   0.64399   0.87398   0.00000  Uiso   1.00
C1107  C     0.95928   0.66616   0.93753   0.00000  Uiso   1.00
H1108  H     0.99418   0.34177   0.95867   0.00000  Uiso   1.00
H1109  H     0.94187   0.63783   0.96000   0.00000  Uiso   1.00
C1110  C     0.93401   0.38409   0.94861   0.00000  Uiso   1.00
H1111  H     0.91098   0.38436   0.90774   0.00000  Uiso   1.00
H1112  H     0.91301   0.38576   0.98787   0.00000  Uiso   1.00
C1113  C     0.96596   0.43377   0.96360   0.00000  Uiso   1.00
H1114  H     0.98500   0.43755   0.67542   0.00000  Uiso   1.00
H1115  H     0.94645   0.46951   0.96581   0.00000  Uiso   1.00
H1116  H     0.99017   0.43180   0.92801   0.00000  Uiso   1.00
O1117  O     0.70692   0.45195   0.97510   0.00000  Uiso   1.00
H1118  H     0.69105   0.43342   0.66874   0.00000  Uiso   1.00
O1119  O     0.79306   0.54807   0.69157   0.00000  Uiso   1.00
H1120  H     0.80893   0.56660   0.99794   0.00000  Uiso   1.00
C1121  C     0.24848   0.73322   0.81762   0.00000  Uiso   1.00
C1122  C     0.25126   0.93344   0.84905   0.00000  Uiso   1.00
C1123  C     0.01972   0.73664   0.80128   0.00000  Uiso   1.00
C1124  C     0.48055   0.92979   0.86529   0.00000  Uiso   1.00
C1125  C     0.24759   0.67703   0.80896   0.00000  Uiso   1.00
C1126  C     0.25177   0.98961   0.85770   0.00000  Uiso   1.00
C1127  C     0.16473   0.83397   0.83447   0.00000  Uiso   1.00
C1128  C     0.33529   0.83273   0.83220   0.00000  Uiso   1.00
C1129  C     0.40851   0.87994   0.84710   0.00000  Uiso   1.00
C1130  C     0.09156   0.78669   0.81851   0.00000  Uiso   1.00
C1131  C     0.38328   0.83191   0.82955   0.00000  Uiso   1.00
C1132  C     0.11678   0.83465   0.83711   0.00000  Uiso   1.00
C1133  C     0.40321   0.78380   0.80907   0.00000  Uiso   1.00
C1134  C     0.09681   0.88248   0.85883   0.00000  Uiso   1.00
C1135  C     0.45062   0.78371   0.81139   0.00000  Uiso   1.00
C1136  C     0.04943   0.88257   0.85545   0.00000  Uiso   1.00
C1137  C     0.47643   0.83279   0.83107   0.00000  Uiso   1.00
C1138  C     0.02360   0.83360   0.83496   0.00000  Uiso   1.00
C1139  C     0.45508   0.88112   0.84747   0.00000  Uiso   1.00
C1140  C     0.04501   0.78537   0.81848   0.00000  Uiso   1.00
C1141  C     0.47284   0.73608   0.79816   0.00000  Uiso   1.00
C1142  C     0.02736   0.93019   0.86883   0.00000  Uiso   1.00
Cu1143 Cu    0.25500   0.83913   0.89479   0.00000  Uiso   1.00
Cu1144 Cu    0.24499   0.82754   0.77187   0.00000  Uiso   1.00
H1145  H     0.39142   0.91633   0.86108   0.00000  Uiso   1.00
H1146  H     0.10868   0.75045   0.80380   0.00000  Uiso   1.00
H1147  H     0.45453   0.69786   0.78753   0.00000  Uiso   1.00
H1148  H     0.04584   0.96836   0.88044   0.00000  Uiso   1.00
H1149  H     0.24359   0.98603   0.76223   0.00000  Uiso   1.00
H1150  H     0.25571   0.68061   0.90444   0.00000  Uiso   1.00
N1151  N     0.23744   0.81881   0.67951   0.00000  Uiso   1.00
N1152  N     0.26255   0.84786   0.98716   0.00000  Uiso   1.00
O1153  O     0.25325   0.76204   0.87326   0.00000  Uiso   1.00
O1154  O     0.24674   0.90462   0.79341   0.00000  Uiso   1.00
O1155  O     0.24480   0.75226   0.76945   0.00000  Uiso   1.00
O1156  O     0.25520   0.91441   0.89721   0.00000  Uiso   1.00
O1157  O     0.18935   0.83821   0.88524   0.00000  Uiso   1.00
O1158  O     0.31064   0.82845   0.78143   0.00000  Uiso   1.00
O1159  O     0.18090   0.82843   0.78143   0.00000  Uiso   1.00
O1160  O     0.31910   0.83824   0.88523   0.00000  Uiso   1.00
O1161  O     0.37541   0.73815   0.78948   0.00000  Uiso   1.00
H1162  H     0.38901   0.71369   0.75592   0.00000  Uiso   1.00
O1163  O     0.12449   0.92791   0.88102   0.00000  Uiso   1.00
H1164  H     0.11051   0.95106   0.91533   0.00000  Uiso   1.00
O1165  O     0.04110   0.68952   0.79451   0.00000  Uiso   1.00
C1166  C     0.03901   0.99700   0.73171   0.00000  Uiso   1.00
H1167  H     0.05076   0.69109   0.70371   0.00000  Uiso   1.00
H1168  H     0.00397   0.98138   0.71564   0.00000  Uiso   1.00
C1169  C     0.06865   0.94962   0.72177   0.00000  Uiso   1.00
H1170  H     0.05702   0.92110   0.74809   0.00000  Uiso   1.00
H1171  H     0.06512   0.92886   0.67233   0.00000  Uiso   1.00
C1172  C     0.11815   0.96643   0.74075   0.00000  Uiso   1.00
H1173  H     0.13046   0.99445   0.71412   0.00000  Uiso   1.00
H1174  H     0.13835   0.93091   0.73161   0.00000  Uiso   1.00
H1175  H     0.12299   0.98569   0.79052   0.00000  Uiso   1.00
O1176  O     0.45968   0.97732   0.87398   0.00000  Uiso   1.00
C1177  C     0.45928   0.99950   0.93753   0.00000  Uiso   1.00
H1178  H     0.49418   0.67510   0.95867   0.00000  Uiso   1.00
H1179  H     0.44187   0.97116   0.96000   0.00000  Uiso   1.00
C1180  C     0.43401   0.71742   0.94861   0.00000  Uiso   1.00
H1181  H     0.41098   0.71770   0.90774   0.00000  Uiso   1.00
H1182  H     0.41301   0.71909   0.98787   0.00000  Uiso   1.00
C1183  C     0.46596   0.76711   0.96360   0.00000  Uiso   1.00
H1184  H     0.48500   0.77089   0.67542   0.00000  Uiso   1.00
H1185  H     0.44645   0.80285   0.96581   0.00000  Uiso   1.00
H1186  H     0.49017   0.76514   0.92801   0.00000  Uiso   1.00
O1187  O     0.20692   0.78528   0.97510   0.00000  Uiso   1.00
H1188  H     0.19105   0.76676   0.66874   0.00000  Uiso   1.00
O1189  O     0.29306   0.88140   0.69157   0.00000  Uiso   1.00
H1190  H     0.30893   0.89993   0.99794   0.00000  Uiso   1.00
C1191  C     0.74848   0.73322   0.81762   0.00000  Uiso   1.00
C1192  C     0.75126   0.93344   0.84905   0.00000  Uiso   1.00
C1193  C     0.51972   0.73664   0.80128   0.00000  Uiso   1.00
C1194  C     0.98055   0.92979   0.86529   0.00000  Uiso   1.00
C1195  C     0.74759   0.67703   0.80896   0.00000  Uiso   1.00
C1196  C     0.75177   0.98961   0.85770   0.00000  Uiso   1.00
C1197  C     0.66473   0.83397   0.83447   0.00000  Uiso   1.00
C1198  C     0.83529   0.83273   0.83220   0.00000  Uiso   1.00
C1199  C     0.90851   0.87994   0.84710   0.00000  Uiso   1.00
C1200  C     0.59156   0.78669   0.81851   0.00000  Uiso   1.00
C1201  C     0.88328   0.83191   0.82955   0.00000  Uiso   1.00
C1202  C     0.61678   0.83465   0.83711   0.00000  Uiso   1.00
C1203  C     0.90321   0.78380   0.80907   0.00000  Uiso   1.00
C1204  C     0.59681   0.88248   0.85883   0.00000  Uiso   1.00
C1205  C     0.95062   0.78371   0.81139   0.00000  Uiso   1.00
C1206  C     0.54943   0.88257   0.85545   0.00000  Uiso   1.00
C1207  C     0.97643   0.83279   0.83107   0.00000  Uiso   1.00
C1208  C     0.52360   0.83360   0.83496   0.00000  Uiso   1.00
C1209  C     0.95508   0.88112   0.84747   0.00000  Uiso   1.00
C1210  C     0.54501   0.78537   0.81848   0.00000  Uiso   1.00
C1211  C     0.97284   0.73608   0.79816   0.00000  Uiso   1.00
C1212  C     0.52736   0.93019   0.86883   0.00000  Uiso   1.00
Cu1213 Cu    0.75500   0.83913   0.89479   0.00000  Uiso   1.00
Cu1214 Cu    0.74499   0.82754   0.77187   0.00000  Uiso   1.00
H1215  H     0.89142   0.91633   0.86108   0.00000  Uiso   1.00
H1216  H     0.60868   0.75045   0.80380   0.00000  Uiso   1.00
H1217  H     0.95453   0.69786   0.78753   0.00000  Uiso   1.00
H1218  H     0.54584   0.96836   0.88044   0.00000  Uiso   1.00
H1219  H     0.74359   0.98603   0.76223   0.00000  Uiso   1.00
H1220  H     0.75571   0.68061   0.90444   0.00000  Uiso   1.00
N1221  N     0.73744   0.81881   0.67951   0.00000  Uiso   1.00
N1222  N     0.76255   0.84786   0.98716   0.00000  Uiso   1.00
O1223  O     0.75325   0.76204   0.87326   0.00000  Uiso   1.00
O1224  O     0.74674   0.90462   0.79341   0.00000  Uiso   1.00
O1225  O     0.74480   0.75226   0.76945   0.00000  Uiso   1.00
O1226  O     0.75520   0.91441   0.89721   0.00000  Uiso   1.00
O1227  O     0.68935   0.83821   0.88524   0.00000  Uiso   1.00
O1228  O     0.81064   0.82845   0.78143   0.00000  Uiso   1.00
O1229  O     0.68090   0.82843   0.78143   0.00000  Uiso   1.00
O1230  O     0.81910   0.83824   0.88523   0.00000  Uiso   1.00
O1231  O     0.87541   0.73815   0.78948   0.00000  Uiso   1.00
H1232  H     0.88901   0.71369   0.75592   0.00000  Uiso   1.00
O1233  O     0.62449   0.92791   0.88102   0.00000  Uiso   1.00
H1234  H     0.61051   0.95106   0.91533   0.00000  Uiso   1.00
O1235  O     0.54110   0.68952   0.79451   0.00000  Uiso   1.00
C1236  C     0.53901   0.99700   0.73171   0.00000  Uiso   1.00
H1237  H     0.55076   0.69109   0.70371   0.00000  Uiso   1.00
H1238  H     0.50397   0.98138   0.71564   0.00000  Uiso   1.00
C1239  C     0.56865   0.94962   0.72177   0.00000  Uiso   1.00
H1240  H     0.55702   0.92110   0.74809   0.00000  Uiso   1.00
H1241  H     0.56512   0.92886   0.67233   0.00000  Uiso   1.00
C1242  C     0.61815   0.96643   0.74075   0.00000  Uiso   1.00
H1243  H     0.63046   0.99445   0.71412   0.00000  Uiso   1.00
H1244  H     0.63835   0.93091   0.73161   0.00000  Uiso   1.00
H1245  H     0.62299   0.98569   0.79052   0.00000  Uiso   1.00
O1246  O     0.95968   0.97732   0.87398   0.00000  Uiso   1.00
C1247  C     0.95928   0.99950   0.93753   0.00000  Uiso   1.00
H1248  H     0.99418   0.67510   0.95867   0.00000  Uiso   1.00
H1249  H     0.94187   0.97116   0.96000   0.00000  Uiso   1.00
C1250  C     0.93401   0.71742   0.94861   0.00000  Uiso   1.00
H1251  H     0.91098   0.71770   0.90774   0.00000  Uiso   1.00
H1252  H     0.91301   0.71909   0.98787   0.00000  Uiso   1.00
C1253  C     0.96596   0.76711   0.96360   0.00000  Uiso   1.00
H1254  H     0.98500   0.77089   0.67542   0.00000  Uiso   1.00
H1255  H     0.94645   0.80285   0.96581   0.00000  Uiso   1.00
H1256  H     0.99017   0.76514   0.92801   0.00000  Uiso   1.00
O1257  O     0.70692   0.78528   0.97510   0.00000  Uiso   1.00
H1258  H     0.69105   0.76676   0.66874   0.00000  Uiso   1.00
O1259  O     0.79306   0.88140   0.69157   0.00000  Uiso   1.00
H1260  H     0.80893   0.89993   0.99794   0.00000  Uiso   1.00
loop_
_geom_bond_atom_site_label_1
_geom_bond_atom_site_label_2
_geom_bond_distance
_geom_bond_site_symmetry_2
_ccdc_geom_bond_type
C1     O33     1.294   .     A
C1     C5      1.425   .     S
C1     O35     1.292   .     A
C2     O34     1.293   .     A
C2     C6      1.425   .     S
C2     O36     1.292   .     A
C3     C20     1.404   .     A
C3     O45     1.386   .     S
C3     C91     1.398   1_455 S
C4     C19     1.406   .     A
C4     O56     1.386   .     S
C4     C92     1.396   .     S
C5     C286    1.331   1_545 S
C5     H309    1.088   1_545 S
C6     C145    1.331   .     S
C6     H170    1.088   .     S
C7     O37     1.295   .     A
C7     C12     1.439   .     S
C7     O39     1.296   .     A
C8     C11     1.441   .     S
C8     O38     1.295   .     A
C8     O40     1.296   .     A
C9     C11     1.389   .     A
C9     H25     1.085   .     S
C9     C19     1.390   .     A
C10    H26     1.084   .     S
C10    C12     1.388   .     A
C10    C20     1.391   .     A
C11    C13     1.400   .     A
C12    C14     1.399   .     A
C13    O41     1.382   .     S
C13    C15     1.415   .     A
C14    C16     1.413   .     A
C14    O43     1.382   .     S
C15    C21     1.409   .     A
C15    C17     1.421   .     A
C16    C18     1.421   .     A
C16    C22     1.406   .     A
C17    C19     1.415   .     A
C17    C88     1.406   .     S
C18    C20     1.414   .     A
C18    C87     1.406   1_455 S
C21    H27     1.080   .     S
C21    C73     1.398   .     S
C22    H28     1.080   .     S
C22    C74     1.396   1_455 S
Cu23   O33     1.943   .     S
Cu23   Cu24    2.703   .     S
Cu23   N32     2.031   .     S
Cu23   O40     1.943   .     S
Cu23   O36     1.943   .     S
Cu23   O37     1.958   .     S
Cu24   O38     1.958   .     S
Cu24   N31     2.031   .     S
Cu24   O35     1.943   .     S
Cu24   O39     1.943   .     S
Cu24   O34     1.943   .     S
H29    C145    1.088   .     S
H30    C286    1.088   1_545 S
N31    N872    1.296   1_554 S
N31    O907    1.338   1_554 S
N32    N451    1.296   .     S
N32    O489    1.338   .     S
O41    H42     0.988   .     S
O43    H44     0.989   .     S
O45    C326    1.410   1_545 S
C46    C49     1.530   .     S
C46    H48     1.111   .     S
C46    O185    1.410   .     S
C46    H187    1.116   .     S
H47    C326    1.116   1_545 S
C49    C52     1.528   .     S
C49    H50     1.109   .     S
C49    H51     1.112   .     S
C52    H55     1.110   .     S
C52    H54     1.111   .     S
C52    H53     1.111   .     S
O56    C57     1.411   .     S
C57    H59     1.115   .     S
C57    H198    1.108   .     S
C57    C200    1.537   .     S
H58    C337    1.108   1_545 S
C60    C63     1.529   .     S
C60    H62     1.111   .     S
C60    H61     1.112   .     S
C60    C337    1.537   1_545 S
C63    H65     1.111   .     S
C63    H66     1.109   .     S
C63    H484    1.111   .     S
H64    C903    1.111   1_554 S
O67    N451    1.338   .     S
O67    H488    0.990   .     S
H68    O907    0.990   1_554 S
O69    N872    1.338   1_554 S
O69    H910    0.990   1_554 S
H70    O489    0.990   .     S
C71    O103    1.294   .     A
C71    C75     1.425   .     S
C71    O105    1.292   .     A
C72    O104    1.293   .     A
C72    C76     1.425   .     S
C72    O106    1.292   .     A
C73    C90     1.404   .     A
C73    O115    1.386   .     S
C74    C89     1.406   .     A
C74    O126    1.386   .     S
C74    C22     1.396   1_655 S
C75    C356    1.331   1_545 S
C75    H379    1.088   1_545 S
C76    C215    1.331   .     S
C76    H240    1.088   .     S
C77    O107    1.295   .     A
C77    C82     1.439   .     S
C77    O109    1.296   .     A
C78    C81     1.441   .     S
C78    O108    1.295   .     A
C78    O110    1.296   .     A
C79    C81     1.389   .     A
C79    H95     1.085   .     S
C79    C89     1.390   .     A
C80    H96     1.084   .     S
C80    C82     1.388   .     A
C80    C90     1.391   .     A
C81    C83     1.400   .     A
C82    C84     1.399   .     A
C83    O111    1.382   .     S
C83    C85     1.415   .     A
C84    C86     1.413   .     A
C84    O113    1.382   .     S
C85    C91     1.409   .     A
C85    C87     1.421   .     A
C86    C88     1.421   .     A
C86    C92     1.406   .     A
C87    C89     1.415   .     A
C87    C18     1.406   1_655 S
C88    C90     1.414   .     A
C91    H97     1.080   .     S
C91    C3      1.398   1_655 S
C92    H98     1.080   .     S
Cu93   O103    1.943   .     S
Cu93   Cu94    2.703   .     S
Cu93   N102    2.031   .     S
Cu93   O110    1.943   .     S
Cu93   O106    1.943   .     S
Cu93   O107    1.958   .     S
Cu94   O108    1.958   .     S
Cu94   N101    2.031   .     S
Cu94   O105    1.943   .     S
Cu94   O109    1.943   .     S
Cu94   O104    1.943   .     S
H99    C215    1.088   .     S
H100   C356    1.088   1_545 S
N101   N942    1.296   1_554 S
N101   O977    1.338   1_554 S
N102   N521    1.296   .     S
N102   O559    1.338   .     S
O111   H112    0.988   .     S
O113   H114    0.989   .     S
O115   C396    1.410   1_545 S
C116   C119    1.530   .     S
C116   H118    1.111   .     S
C116   O255    1.410   .     S
C116   H257    1.116   .     S
H117   C396    1.116   1_545 S
C119   C122    1.528   .     S
C119   H120    1.109   .     S
C119   H121    1.112   .     S
C122   H125    1.110   .     S
C122   H124    1.111   .     S
C122   H123    1.111   .     S
O126   C127    1.411   .     S
C127   H129    1.115   .     S
C127   H268    1.108   .     S
C127   C270    1.537   .     S
H128   C407    1.108   1_545 S
C130   C133    1.529   .     S
C130   H132    1.111   .     S
C130   H131    1.112   .     S
C130   C407    1.537   1_545 S
C133   H135    1.111   .     S
C133   H136    1.109   .     S
C133   H554    1.111   .     S
H134   C973    1.111   1_554 S
O137   N521    1.338   .     S
O137   H558    0.990   .     S
H138   O977    0.990   1_554 S
O139   N942    1.338   1_554 S
O139   H980    0.990   1_554 S
H140   O559    0.990   .     S
C141   O173    1.294   .     A
C141   C145    1.425   .     S
C141   O175    1.292   .     A
C142   O174    1.293   .     A
C142   C146    1.425   .     S
C142   O176    1.292   .     A
C143   C160    1.404   .     A
C143   O185    1.386   .     S
C143   C231    1.398   1_455 S
C144   C159    1.406   .     A
C144   O196    1.386   .     S
C144   C232    1.396   .     S
C146   C285    1.331   .     S
C146   H310    1.088   .     S
C147   O177    1.295   .     A
C147   C152    1.439   .     S
C147   O179    1.296   .     A
C148   C151    1.441   .     S
C148   O178    1.295   .     A
C148   O180    1.296   .     A
C149   C151    1.389   .     A
C149   H165    1.085   .     S
C149   C159    1.390   .     A
C150   H166    1.084   .     S
C150   C152    1.388   .     A
C150   C160    1.391   .     A
C151   C153    1.400   .     A
C152   C154    1.399   .     A
C153   O181    1.382   .     S
C153   C155    1.415   .     A
C154   C156    1.413   .     A
C154   O183    1.382   .     S
C155   C161    1.409   .     A
C155   C157    1.421   .     A
C156   C158    1.421   .     A
C156   C162    1.406   .     A
C157   C159    1.415   .     A
C157   C228    1.406   .     S
C158   C160    1.414   .     A
C158   C227    1.406   1_455 S
C161   H167    1.080   .     S
C161   C213    1.398   .     S
C162   H168    1.080   .     S
C162   C214    1.396   1_455 S
Cu163  O173    1.943   .     S
Cu163  Cu164   2.703   .     S
Cu163  N172    2.031   .     S
Cu163  O180    1.943   .     S
Cu163  O176    1.943   .     S
Cu163  O177    1.958   .     S
Cu164  O178    1.958   .     S
Cu164  N171    2.031   .     S
Cu164  O175    1.943   .     S
Cu164  O179    1.943   .     S
Cu164  O174    1.943   .     S
H169   C285    1.088   .     S
N171   N1012   1.296   1_554 S
N171   O1047   1.338   1_554 S
N172   N591    1.296   .     S
N172   O629    1.338   .     S
O181   H182    0.988   .     S
O183   H184    0.989   .     S
C186   C189    1.530   .     S
C186   H188    1.111   .     S
C186   O325    1.410   .     S
C186   H327    1.116   .     S
C189   C192    1.528   .     S
C189   H190    1.109   .     S
C189   H191    1.112   .     S
C192   H195    1.110   .     S
C192   H194    1.111   .     S
C192   H193    1.111   .     S
O196   C197    1.411   .     S
C197   H199    1.115   .     S
C197   H338    1.108   .     S
C197   C340    1.537   .     S
C200   C203    1.529   .     S
C200   H202    1.111   .     S
C200   H201    1.112   .     S
C203   H205    1.111   .     S
C203   H206    1.109   .     S
C203   H624    1.111   .     S
H204   C1043   1.111   1_554 S
O207   N591    1.338   .     S
O207   H628    0.990   .     S
H208   O1047   0.990   1_554 S
O209   N1012   1.338   1_554 S
O209   H1050   0.990   1_554 S
H210   O629    0.990   .     S
C211   O243    1.294   .     A
C211   C215    1.425   .     S
C211   O245    1.292   .     A
C212   O244    1.293   .     A
C212   C216    1.425   .     S
C212   O246    1.292   .     A
C213   C230    1.404   .     A
C213   O255    1.386   .     S
C214   C229    1.406   .     A
C214   O266    1.386   .     S
C214   C162    1.396   1_655 S
C216   C355    1.331   .     S
C216   H380    1.088   .     S
C217   O247    1.295   .     A
C217   C222    1.439   .     S
C217   O249    1.296   .     A
C218   C221    1.441   .     S
C218   O248    1.295   .     A
C218   O250    1.296   .     A
C219   C221    1.389   .     A
C219   H235    1.085   .     S
C219   C229    1.390   .     A
C220   H236    1.084   .     S
C220   C222    1.388   .     A
C220   C230    1.391   .     A
C221   C223    1.400   .     A
C222   C224    1.399   .     A
C223   O251    1.382   .     S
C223   C225    1.415   .     A
C224   C226    1.413   .     A
C224   O253    1.382   .     S
C225   C231    1.409   .     A
C225   C227    1.421   .     A
C226   C228    1.421   .     A
C226   C232    1.406   .     A
C227   C229    1.415   .     A
C227   C158    1.406   1_655 S
C228   C230    1.414   .     A
C231   H237    1.080   .     S
C231   C143    1.398   1_655 S
C232   H238    1.080   .     S
Cu233  O243    1.943   .     S
Cu233  Cu234   2.703   .     S
Cu233  N242    2.031   .     S
Cu233  O250    1.943   .     S
Cu233  O246    1.943   .     S
Cu233  O247    1.958   .     S
Cu234  O248    1.958   .     S
Cu234  N241    2.031   .     S
Cu234  O245    1.943   .     S
Cu234  O249    1.943   .     S
Cu234  O244    1.943   .     S
H239   C355    1.088   .     S
N241   N1082   1.296   1_554 S
N241   O1117   1.338   1_554 S
N242   N661    1.296   .     S
N242   O699    1.338   .     S
O251   H252    0.988   .     S
O253   H254    0.989   .     S
C256   C259    1.530   .     S
C256   H258    1.111   .     S
C256   O395    1.410   .     S
C256   H397    1.116   .     S
C259   C262    1.528   .     S
C259   H260    1.109   .     S
C259   H261    1.112   .     S
C262   H265    1.110   .     S
C262   H264    1.111   .     S
C262   H263    1.111   .     S
O266   C267    1.411   .     S
C267   H269    1.115   .     S
C267   H408    1.108   .     S
C267   C410    1.537   .     S
C270   C273    1.529   .     S
C270   H272    1.111   .     S
C270   H271    1.112   .     S
C273   H275    1.111   .     S
C273   H276    1.109   .     S
C273   H694    1.111   .     S
H274   C1113   1.111   1_554 S
O277   N661    1.338   .     S
O277   H698    0.990   .     S
H278   O1117   0.990   1_554 S
O279   N1082   1.338   1_554 S
O279   H1120   0.990   1_554 S
H280   O699    0.990   .     S
C281   O313    1.294   .     A
C281   C285    1.425   .     S
C281   O315    1.292   .     A
C282   O314    1.293   .     A
C282   C286    1.425   .     S
C282   O316    1.292   .     A
C283   C300    1.404   .     A
C283   O325    1.386   .     S
C283   C371    1.398   1_455 S
C284   C299    1.406   .     A
C284   O336    1.386   .     S
C284   C372    1.396   .     S
C286   C5      1.331   1_565 S
C286   H30     1.088   1_565 S
C287   O317    1.295   .     A
C287   C292    1.439   .     S
C287   O319    1.296   .     A
C288   C291    1.441   .     S
C288   O318    1.295   .     A
C288   O320    1.296   .     A
C289   C291    1.389   .     A
C289   H305    1.085   .     S
C289   C299    1.390   .     A
C290   H306    1.084   .     S
C290   C292    1.388   .     A
C290   C300    1.391   .     A
C291   C293    1.400   .     A
C292   C294    1.399   .     A
C293   O321    1.382   .     S
C293   C295    1.415   .     A
C294   C296    1.413   .     A
C294   O323    1.382   .     S
C295   C301    1.409   .     A
C295   C297    1.421   .     A
C296   C298    1.421   .     A
C296   C302    1.406   .     A
C297   C299    1.415   .     A
C297   C368    1.406   .     S
C298   C300    1.414   .     A
C298   C367    1.406   1_455 S
C301   H307    1.080   .     S
C301   C353    1.398   .     S
C302   H308    1.080   .     S
C302   C354    1.396   1_455 S
Cu303  O313    1.943   .     S
Cu303  Cu304   2.703   .     S
Cu303  N312    2.031   .     S
Cu303  O320    1.943   .     S
Cu303  O316    1.943   .     S
Cu303  O317    1.958   .     S
Cu304  O318    1.958   .     S
Cu304  N311    2.031   .     S
Cu304  O315    1.943   .     S
Cu304  O319    1.943   .     S
Cu304  O314    1.943   .     S
H309   C5      1.088   1_565 S
N311   N1152   1.296   1_554 S
N311   O1187   1.338   1_554 S
N312   N731    1.296   .     S
N312   O769    1.338   .     S
O321   H322    0.988   .     S
O323   H324    0.989   .     S
C326   C329    1.530   .     S
C326   H328    1.111   .     S
C326   O45     1.410   1_565 S
C326   H47     1.116   1_565 S
C329   C332    1.528   .     S
C329   H330    1.109   .     S
C329   H331    1.112   .     S
C332   H335    1.110   .     S
C332   H334    1.111   .     S
C332   H333    1.111   .     S
O336   C337    1.411   .     S
C337   H339    1.115   .     S
C337   H58     1.108   1_565 S
C337   C60     1.537   1_565 S
C340   C343    1.529   .     S
C340   H342    1.111   .     S
C340   H341    1.112   .     S
C343   H345    1.111   .     S
C343   H346    1.109   .     S
C343   H764    1.111   .     S
H344   C1183   1.111   1_554 S
O347   N731    1.338   .     S
O347   H768    0.990   .     S
H348   O1187   0.990   1_554 S
O349   N1152   1.338   1_554 S
O349   H1190   0.990   1_554 S
H350   O769    0.990   .     S
C351   O383    1.294   .     A
C351   C355    1.425   .     S
C351   O385    1.292   .     A
C352   O384    1.293   .     A
C352   C356    1.425   .     S
C352   O386    1.292   .     A
C353   C370    1.404   .     A
C353   O395    1.386   .     S
C354   C369    1.406   .     A
C354   O406    1.386   .     S
C354   C302    1.396   1_655 S
C356   C75     1.331   1_565 S
C356   H100    1.088   1_565 S
C357   O387    1.295   .     A
C357   C362    1.439   .     S
C357   O389    1.296   .     A
C358   C361    1.441   .     S
C358   O388    1.295   .     A
C358   O390    1.296   .     A
C359   C361    1.389   .     A
C359   H375    1.085   .     S
C359   C369    1.390   .     A
C360   H376    1.084   .     S
C360   C362    1.388   .     A
C360   C370    1.391   .     A
C361   C363    1.400   .     A
C362   C364    1.399   .     A
C363   O391    1.382   .     S
C363   C365    1.415   .     A
C364   C366    1.413   .     A
C364   O393    1.382   .     S
C365   C371    1.409   .     A
C365   C367    1.421   .     A
C366   C368    1.421   .     A
C366   C372    1.406   .     A
C367   C369    1.415   .     A
C367   C298    1.406   1_655 S
C368   C370    1.414   .     A
C371   H377    1.080   .     S
C371   C283    1.398   1_655 S
C372   H378    1.080   .     S
Cu373  O383    1.943   .     S
Cu373  Cu374   2.703   .     S
Cu373  N382    2.031   .     S
Cu373  O390    1.943   .     S
Cu373  O386    1.943   .     S
Cu373  O387    1.958   .     S
Cu374  O388    1.958   .     S
Cu374  N381    2.031   .     S
Cu374  O385    1.943   .     S
Cu374  O389    1.943   .     S
Cu374  O384    1.943   .     S
H379   C75     1.088   1_565 S
N381   N1222   1.296   1_554 S
N381   O1257   1.338   1_554 S
N382   N801    1.296   .     S
N382   O839    1.338   .     S
O391   H392    0.988   .     S
O393   H394    0.989   .     S
C396   C399    1.530   .     S
C396   H398    1.111   .     S
C396   O115    1.410   1_565 S
C396   H117    1.116   1_565 S
C399   C402    1.528   .     S
C399   H400    1.109   .     S
C399   H401    1.112   .     S
C402   H405    1.110   .     S
C402   H404    1.111   .     S
C402   H403    1.111   .     S
O406   C407    1.411   .     S
C407   H409    1.115   .     S
C407   H128    1.108   1_565 S
C407   C130    1.537   1_565 S
C410   C413    1.529   .     S
C410   H412    1.111   .     S
C410   H411    1.112   .     S
C413   H415    1.111   .     S
C413   H416    1.109   .     S
C413   H834    1.111   .     S
H414   C1253   1.111   1_554 S
O417   N801    1.338   .     S
O417   H838    0.990   .     S
H418   O1257   0.990   1_554 S
O419   N1222   1.338   1_554 S
O419   H1260   0.990   1_554 S
H420   O839    0.990   .     S
C421   O453    1.294   .     A
C421   C425    1.425   .     S
C421   O455    1.292   .     A
C422   O454    1.293   .     A
C422   C426    1.425   .     S
C422   O456    1.292   .     A
C423   C440    1.404   .     A
C423   O465    1.386   .     S
C423   C511    1.398   1_455 S
C424   C439    1.406   .     A
C424   O476    1.386   .     S
C424   C512    1.396   .     S
C425   C706    1.331   1_545 S
C425   H729    1.088   1_545 S
C426   C565    1.331   .     S
C426   H590    1.088   .     S
C427   O457    1.295   .     A
C427   C432    1.439   .     S
C427   O459    1.296   .     A
C428   C431    1.441   .     S
C428   O458    1.295   .     A
C428   O460    1.296   .     A
C429   C431    1.389   .     A
C429   H445    1.085   .     S
C429   C439    1.390   .     A
C430   H446    1.084   .     S
C430   C432    1.388   .     A
C430   C440    1.391   .     A
C431   C433    1.400   .     A
C432   C434    1.399   .     A
C433   O461    1.382   .     S
C433   C435    1.415   .     A
C434   C436    1.413   .     A
C434   O463    1.382   .     S
C435   C441    1.409   .     A
C435   C437    1.421   .     A
C436   C438    1.421   .     A
C436   C442    1.406   .     A
C437   C439    1.415   .     A
C437   C508    1.406   .     S
C438   C440    1.414   .     A
C438   C507    1.406   1_455 S
C441   H447    1.080   .     S
C441   C493    1.398   .     S
C442   H448    1.080   .     S
C442   C494    1.396   1_455 S
Cu443  O453    1.943   .     S
Cu443  Cu444   2.703   .     S
Cu443  N452    2.031   .     S
Cu443  O460    1.943   .     S
Cu443  O456    1.943   .     S
Cu443  O457    1.958   .     S
Cu444  O458    1.958   .     S
Cu444  N451    2.031   .     S
Cu444  O455    1.943   .     S
Cu444  O459    1.943   .     S
Cu444  O454    1.943   .     S
H449   C565    1.088   .     S
H450   C706    1.088   1_545 S
N452   N871    1.296   .     S
N452   O909    1.338   .     S
O461   H462    0.988   .     S
O463   H464    0.989   .     S
O465   C746    1.410   1_545 S
C466   C469    1.530   .     S
C466   H468    1.111   .     S
C466   O605    1.410   .     S
C466   H607    1.116   .     S
H467   C746    1.116   1_545 S
C469   C472    1.528   .     S
C469   H470    1.109   .     S
C469   H471    1.112   .     S
C472   H475    1.110   .     S
C472   H474    1.111   .     S
C472   H473    1.111   .     S
O476   C477    1.411   .     S
C477   H479    1.115   .     S
C477   H618    1.108   .     S
C477   C620    1.537   .     S
H478   C757    1.108   1_545 S
C480   C483    1.529   .     S
C480   H482    1.111   .     S
C480   H481    1.112   .     S
C480   C757    1.537   1_545 S
C483   H485    1.111   .     S
C483   H486    1.109   .     S
C483   H904    1.111   .     S
O487   N871    1.338   .     S
O487   H908    0.990   .     S
H490   O909    0.990   .     S
C491   O523    1.294   .     A
C491   C495    1.425   .     S
C491   O525    1.292   .     A
C492   O524    1.293   .     A
C492   C496    1.425   .     S
C492   O526    1.292   .     A
C493   C510    1.404   .     A
C493   O535    1.386   .     S
C494   C509    1.406   .     A
C494   O546    1.386   .     S
C494   C442    1.396   1_655 S
C495   C776    1.331   1_545 S
C495   H799    1.088   1_545 S
C496   C635    1.331   .     S
C496   H660    1.088   .     S
C497   O527    1.295   .     A
C497   C502    1.439   .     S
C497   O529    1.296   .     A
C498   C501    1.441   .     S
C498   O528    1.295   .     A
C498   O530    1.296   .     A
C499   C501    1.389   .     A
C499   H515    1.085   .     S
C499   C509    1.390   .     A
C500   H516    1.084   .     S
C500   C502    1.388   .     A
C500   C510    1.391   .     A
C501   C503    1.400   .     A
C502   C504    1.399   .     A
C503   O531    1.382   .     S
C503   C505    1.415   .     A
C504   C506    1.413   .     A
C504   O533    1.382   .     S
C505   C511    1.409   .     A
C505   C507    1.421   .     A
C506   C508    1.421   .     A
C506   C512    1.406   .     A
C507   C509    1.415   .     A
C507   C438    1.406   1_655 S
C508   C510    1.414   .     A
C511   H517    1.080   .     S
C511   C423    1.398   1_655 S
C512   H518    1.080   .     S
Cu513  O523    1.943   .     S
Cu513  Cu514   2.703   .     S
Cu513  N522    2.031   .     S
Cu513  O530    1.943   .     S
Cu513  O526    1.943   .     S
Cu513  O527    1.958   .     S
Cu514  O528    1.958   .     S
Cu514  N521    2.031   .     S
Cu514  O525    1.943   .     S
Cu514  O529    1.943   .     S
Cu514  O524    1.943   .     S
H519   C635    1.088   .     S
H520   C776    1.088   1_545 S
N522   N941    1.296   .     S
N522   O979    1.338   .     S
O531   H532    0.988   .     S
O533   H534    0.989   .     S
O535   C816    1.410   1_545 S
C536   C539    1.530   .     S
C536   H538    1.111   .     S
C536   O675    1.410   .     S
C536   H677    1.116   .     S
H537   C816    1.116   1_545 S
C539   C542    1.528   .     S
C539   H540    1.109   .     S
C539   H541    1.112   .     S
C542   H545    1.110   .     S
C542   H544    1.111   .     S
C542   H543    1.111   .     S
O546   C547    1.411   .     S
C547   H549    1.115   .     S
C547   H688    1.108   .     S
C547   C690    1.537   .     S
H548   C827    1.108   1_545 S
C550   C553    1.529   .     S
C550   H552    1.111   .     S
C550   H551    1.112   .     S
C550   C827    1.537   1_545 S
C553   H555    1.111   .     S
C553   H556    1.109   .     S
C553   H974    1.111   .     S
O557   N941    1.338   .     S
O557   H978    0.990   .     S
H560   O979    0.990   .     S
C561   O593    1.294   .     A
C561   C565    1.425   .     S
C561   O595    1.292   .     A
C562   O594    1.293   .     A
C562   C566    1.425   .     S
C562   O596    1.292   .     A
C563   C580    1.404   .     A
C563   O605    1.386   .     S
C563   C651    1.398   1_455 S
C564   C579    1.406   .     A
C564   O616    1.386   .     S
C564   C652    1.396   .     S
C566   C705    1.331   .     S
C566   H730    1.088   .     S
C567   O597    1.295   .     A
C567   C572    1.439   .     S
C567   O599    1.296   .     A
C568   C571    1.441   .     S
C568   O598    1.295   .     A
C568   O600    1.296   .     A
C569   C571    1.389   .     A
C569   H585    1.085   .     S
C569   C579    1.390   .     A
C570   H586    1.084   .     S
C570   C572    1.388   .     A
C570   C580    1.391   .     A
C571   C573    1.400   .     A
C572   C574    1.399   .     A
C573   O601    1.382   .     S
C573   C575    1.415   .     A
C574   C576    1.413   .     A
C574   O603    1.382   .     S
C575   C581    1.409   .     A
C575   C577    1.421   .     A
C576   C578    1.421   .     A
C576   C582    1.406   .     A
C577   C579    1.415   .     A
C577   C648    1.406   .     S
C578   C580    1.414   .     A
C578   C647    1.406   1_455 S
C581   H587    1.080   .     S
C581   C633    1.398   .     S
C582   H588    1.080   .     S
C582   C634    1.396   1_455 S
Cu583  O593    1.943   .     S
Cu583  Cu584   2.703   .     S
Cu583  N592    2.031   .     S
Cu583  O600    1.943   .     S
Cu583  O596    1.943   .     S
Cu583  O597    1.958   .     S
Cu584  O598    1.958   .     S
Cu584  N591    2.031   .     S
Cu584  O595    1.943   .     S
Cu584  O599    1.943   .     S
Cu584  O594    1.943   .     S
H589   C705    1.088   .     S
N592   N1011   1.296   .     S
N592   O1049   1.338   .     S
O601   H602    0.988   .     S
O603   H604    0.989   .     S
C606   C609    1.530   .     S
C606   H608    1.111   .     S
C606   O745    1.410   .     S
C606   H747    1.116   .     S
C609   C612    1.528   .     S
C609   H610    1.109   .     S
C609   H611    1.112   .     S
C612   H615    1.110   .     S
C612   H614    1.111   .     S
C612   H613    1.111   .     S
O616   C617    1.411   .     S
C617   H619    1.115   .     S
C617   H758    1.108   .     S
C617   C760    1.537   .     S
C620   C623    1.529   .     S
C620   H622    1.111   .     S
C620   H621    1.112   .     S
C623   H625    1.111   .     S
C623   H626    1.109   .     S
C623   H1044   1.111   .     S
O627   N1011   1.338   .     S
O627   H1048   0.990   .     S
H630   O1049   0.990   .     S
C631   O663    1.294   .     A
C631   C635    1.425   .     S
C631   O665    1.292   .     A
C632   O664    1.293   .     A
C632   C636    1.425   .     S
C632   O666    1.292   .     A
C633   C650    1.404   .     A
C633   O675    1.386   .     S
C634   C649    1.406   .     A
C634   O686    1.386   .     S
C634   C582    1.396   1_655 S
C636   C775    1.331   .     S
C636   H800    1.088   .     S
C637   O667    1.295   .     A
C637   C642    1.439   .     S
C637   O669    1.296   .     A
C638   C641    1.441   .     S
C638   O668    1.295   .     A
C638   O670    1.296   .     A
C639   C641    1.389   .     A
C639   H655    1.085   .     S
C639   C649    1.390   .     A
C640   H656    1.084   .     S
C640   C642    1.388   .     A
C640   C650    1.391   .     A
C641   C643    1.400   .     A
C642   C644    1.399   .     A
C643   O671    1.382   .     S
C643   C645    1.415   .     A
C644   C646    1.413   .     A
C644   O673    1.382   .     S
C645   C651    1.409   .     A
C645   C647    1.421   .     A
C646   C648    1.421   .     A
C646   C652    1.406   .     A
C647   C649    1.415   .     A
C647   C578    1.406   1_655 S
C648   C650    1.414   .     A
C651   H657    1.080   .     S
C651   C563    1.398   1_655 S
C652   H658    1.080   .     S
Cu653  O663    1.943   .     S
Cu653  Cu654   2.703   .     S
Cu653  N662    2.031   .     S
Cu653  O670    1.943   .     S
Cu653  O666    1.943   .     S
Cu653  O667    1.958   .     S
Cu654  O668    1.958   .     S
Cu654  N661    2.031   .     S
Cu654  O665    1.943   .     S
Cu654  O669    1.943   .     S
Cu654  O664    1.943   .     S
H659   C775    1.088   .     S
N662   N1081   1.296   .     S
N662   O1119   1.338   .     S
O671   H672    0.988   .     S
O673   H674    0.989   .     S
C676   C679    1.530   .     S
C676   H678    1.111   .     S
C676   O815    1.410   .     S
C676   H817    1.116   .     S
C679   C682    1.528   .     S
C679   H680    1.109   .     S
C679   H681    1.112   .     S
C682   H685    1.110   .     S
C682   H684    1.111   .     S
C682   H683    1.111   .     S
O686   C687    1.411   .     S
C687   H689    1.115   .     S
C687   H828    1.108   .     S
C687   C830    1.537   .     S
C690   C693    1.529   .     S
C690   H692    1.111   .     S
C690   H691    1.112   .     S
C693   H695    1.111   .     S
C693   H696    1.109   .     S
C693   H1114   1.111   .     S
O697   N1081   1.338   .     S
O697   H1118   0.990   .     S
H700   O1119   0.990   .     S
C701   O733    1.294   .     A
C701   C705    1.425   .     S
C701   O735    1.292   .     A
C702   O734    1.293   .     A
C702   C706    1.425   .     S
C702   O736    1.292   .     A
C703   C720    1.404   .     A
C703   O745    1.386   .     S
C703   C791    1.398   1_455 S
C704   C719    1.406   .     A
C704   O756    1.386   .     S
C704   C792    1.396   .     S
C706   C425    1.331   1_565 S
C706   H450    1.088   1_565 S
C707   O737    1.295   .     A
C707   C712    1.439   .     S
C707   O739    1.296   .     A
C708   C711    1.441   .     S
C708   O738    1.295   .     A
C708   O740    1.296   .     A
C709   C711    1.389   .     A
C709   H725    1.085   .     S
C709   C719    1.390   .     A
C710   H726    1.084   .     S
C710   C712    1.388   .     A
C710   C720    1.391   .     A
C711   C713    1.400   .     A
C712   C714    1.399   .     A
C713   O741    1.382   .     S
C713   C715    1.415   .     A
C714   C716    1.413   .     A
C714   O743    1.382   .     S
C715   C721    1.409   .     A
C715   C717    1.421   .     A
C716   C718    1.421   .     A
C716   C722    1.406   .     A
C717   C719    1.415   .     A
C717   C788    1.406   .     S
C718   C720    1.414   .     A
C718   C787    1.406   1_455 S
C721   H727    1.080   .     S
C721   C773    1.398   .     S
C722   H728    1.080   .     S
C722   C774    1.396   1_455 S
Cu723  O733    1.943   .     S
Cu723  Cu724   2.703   .     S
Cu723  N732    2.031   .     S
Cu723  O740    1.943   .     S
Cu723  O736    1.943   .     S
Cu723  O737    1.958   .     S
Cu724  O738    1.958   .     S
Cu724  N731    2.031   .     S
Cu724  O735    1.943   .     S
Cu724  O739    1.943   .     S
Cu724  O734    1.943   .     S
H729   C425    1.088   1_565 S
N732   N1151   1.296   .     S
N732   O1189   1.338   .     S
O741   H742    0.988   .     S
O743   H744    0.989   .     S
C746   C749    1.530   .     S
C746   H748    1.111   .     S
C746   O465    1.410   1_565 S
C746   H467    1.116   1_565 S
C749   C752    1.528   .     S
C749   H750    1.109   .     S
C749   H751    1.112   .     S
C752   H755    1.110   .     S
C752   H754    1.111   .     S
C752   H753    1.111   .     S
O756   C757    1.411   .     S
C757   H759    1.115   .     S
C757   H478    1.108   1_565 S
C757   C480    1.537   1_565 S
C760   C763    1.529   .     S
C760   H762    1.111   .     S
C760   H761    1.112   .     S
C763   H765    1.111   .     S
C763   H766    1.109   .     S
C763   H1184   1.111   .     S
O767   N1151   1.338   .     S
O767   H1188   0.990   .     S
H770   O1189   0.990   .     S
C771   O803    1.294   .     A
C771   C775    1.425   .     S
C771   O805    1.292   .     A
C772   O804    1.293   .     A
C772   C776    1.425   .     S
C772   O806    1.292   .     A
C773   C790    1.404   .     A
C773   O815    1.386   .     S
C774   C789    1.406   .     A
C774   O826    1.386   .     S
C774   C722    1.396   1_655 S
C776   C495    1.331   1_565 S
C776   H520    1.088   1_565 S
C777   O807    1.295   .     A
C777   C782    1.439   .     S
C777   O809    1.296   .     A
C778   C781    1.441   .     S
C778   O808    1.295   .     A
C778   O810    1.296   .     A
C779   C781    1.389   .     A
C779   H795    1.085   .     S
C779   C789    1.390   .     A
C780   H796    1.084   .     S
C780   C782    1.388   .     A
C780   C790    1.391   .     A
C781   C783    1.400   .     A
C782   C784    1.399   .     A
C783   O811    1.382   .     S
C783   C785    1.415   .     A
C784   C786    1.413   .     A
C784   O813    1.382   .     S
C785   C791    1.409   .     A
C785   C787    1.421   .     A
C786   C788    1.421   .     A
C786   C792    1.406   .     A
C787   C789    1.415   .     A
C787   C718    1.406   1_655 S
C788   C790    1.414   .     A
C791   H797    1.080   .     S
C791   C703    1.398   1_655 S
C792   H798    1.080   .     S
Cu793  O803    1.943   .     S
Cu793  Cu794   2.703   .     S
Cu793  N802    2.031   .     S
Cu793  O810    1.943   .     S
Cu793  O806    1.943   .     S
Cu793  O807    1.958   .     S
Cu794  O808    1.958   .     S
Cu794  N801    2.031   .     S
Cu794  O805    1.943   .     S
Cu794  O809    1.943   .     S
Cu794  O804    1.943   .     S
H799   C495    1.088   1_565 S
N802   N1221   1.296   .     S
N802   O1259   1.338   .     S
O811   H812    0.988   .     S
O813   H814    0.989   .     S
C816   C819    1.530   .     S
C816   H818    1.111   .     S
C816   O535    1.410   1_565 S
C816   H537    1.116   1_565 S
C819   C822    1.528   .     S
C819   H820    1.109   .     S
C819   H821    1.112   .     S
C822   H825    1.110   .     S
C822   H824    1.111   .     S
C822   H823    1.111   .     S
O826   C827    1.411   .     S
C827   H829    1.115   .     S
C827   H548    1.108   1_565 S
C827   C550    1.537   1_565 S
C830   C833    1.529   .     S
C830   H832    1.111   .     S
C830   H831    1.112   .     S
C833   H835    1.111   .     S
C833   H836    1.109   .     S
C833   H1254   1.111   .     S
O837   N1221   1.338   .     S
O837   H1258   0.990   .     S
H840   O1259   0.990   .     S
C841   O873    1.294   .     A
C841   C845    1.425   .     S
C841   O875    1.292   .     A
C842   O874    1.293   .     A
C842   C846    1.425   .     S
C842   O876    1.292   .     A
C843   C860    1.404   .     A
C843   O885    1.386   .     S
C843   C931    1.398   1_455 S
C844   C859    1.406   .     A
C844   O896    1.386   .     S
C844   C932    1.396   .     S
C845   C1126   1.331   1_545 S
C845   H1149   1.088   1_545 S
C846   C985    1.331   .     S
C846   H1010   1.088   .     S
C847   O877    1.295   .     A
C847   C852    1.439   .     S
C847   O879    1.296   .     A
C848   C851    1.441   .     S
C848   O878    1.295   .     A
C848   O880    1.296   .     A
C849   C851    1.389   .     A
C849   H865    1.085   .     S
C849   C859    1.390   .     A
C850   H866    1.084   .     S
C850   C852    1.388   .     A
C850   C860    1.391   .     A
C851   C853    1.400   .     A
C852   C854    1.399   .     A
C853   O881    1.382   .     S
C853   C855    1.415   .     A
C854   C856    1.413   .     A
C854   O883    1.382   .     S
C855   C861    1.409   .     A
C855   C857    1.421   .     A
C856   C858    1.421   .     A
C856   C862    1.406   .     A
C857   C859    1.415   .     A
C857   C928    1.406   .     S
C858   C860    1.414   .     A
C858   C927    1.406   1_455 S
C861   H867    1.080   .     S
C861   C913    1.398   .     S
C862   H868    1.080   .     S
C862   C914    1.396   1_455 S
Cu863  O873    1.943   .     S
Cu863  Cu864   2.703   .     S
Cu863  N872    2.031   .     S
Cu863  O880    1.943   .     S
Cu863  O876    1.943   .     S
Cu863  O877    1.958   .     S
Cu864  O878    1.958   .     S
Cu864  N871    2.031   .     S
Cu864  O875    1.943   .     S
Cu864  O879    1.943   .     S
Cu864  O874    1.943   .     S
H869   C985    1.088   .     S
H870   C1126   1.088   1_545 S
N872   N31     1.296   1_556 S
N872   O69     1.338   1_556 S
O881   H882    0.988   .     S
O883   H884    0.989   .     S
O885   C1166   1.410   1_545 S
C886   C889    1.530   .     S
C886   H888    1.111   .     S
C886   O1025   1.410   .     S
C886   H1027   1.116   .     S
H887   C1166   1.116   1_545 S
C889   C892    1.528   .     S
C889   H890    1.109   .     S
C889   H891    1.112   .     S
C892   H895    1.110   .     S
C892   H894    1.111   .     S
C892   H893    1.111   .     S
O896   C897    1.411   .     S
C897   H899    1.115   .     S
C897   H1038   1.108   .     S
C897   C1040   1.537   .     S
H898   C1177   1.108   1_545 S
C900   C903    1.529   .     S
C900   H902    1.111   .     S
C900   H901    1.112   .     S
C900   C1177   1.537   1_545 S
C903   H905    1.111   .     S
C903   H906    1.109   .     S
C903   H64     1.111   1_556 S
O907   N31     1.338   1_556 S
O907   H68     0.990   1_556 S
H910   O69     0.990   1_556 S
C911   O943    1.294   .     A
C911   C915    1.425   .     S
C911   O945    1.292   .     A
C912   O944    1.293   .     A
C912   C916    1.425   .     S
C912   O946    1.292   .     A
C913   C930    1.404   .     A
C913   O955    1.386   .     S
C914   C929    1.406   .     A
C914   O966    1.386   .     S
C914   C862    1.396   1_655 S
C915   C1196   1.331   1_545 S
C915   H1219   1.088   1_545 S
C916   C1055   1.331   .     S
C916   H1080   1.088   .     S
C917   O947    1.295   .     A
C917   C922    1.439   .     S
C917   O949    1.296   .     A
C918   C921    1.441   .     S
C918   O948    1.295   .     A
C918   O950    1.296   .     A
C919   C921    1.389   .     A
C919   H935    1.085   .     S
C919   C929    1.390   .     A
C920   H936    1.084   .     S
C920   C922    1.388   .     A
C920   C930    1.391   .     A
C921   C923    1.400   .     A
C922   C924    1.399   .     A
C923   O951    1.382   .     S
C923   C925    1.415   .     A
C924   C926    1.413   .     A
C924   O953    1.382   .     S
C925   C931    1.409   .     A
C925   C927    1.421   .     A
C926   C928    1.421   .     A
C926   C932    1.406   .     A
C927   C929    1.415   .     A
C927   C858    1.406   1_655 S
C928   C930    1.414   .     A
C931   H937    1.080   .     S
C931   C843    1.398   1_655 S
C932   H938    1.080   .     S
Cu933  O943    1.943   .     S
Cu933  Cu934   2.703   .     S
Cu933  N942    2.031   .     S
Cu933  O950    1.943   .     S
Cu933  O946    1.943   .     S
Cu933  O947    1.958   .     S
Cu934  O948    1.958   .     S
Cu934  N941    2.031   .     S
Cu934  O945    1.943   .     S
Cu934  O949    1.943   .     S
Cu934  O944    1.943   .     S
H939   C1055   1.088   .     S
H940   C1196   1.088   1_545 S
N942   N101    1.296   1_556 S
N942   O139    1.338   1_556 S
O951   H952    0.988   .     S
O953   H954    0.989   .     S
O955   C1236   1.410   1_545 S
C956   C959    1.530   .     S
C956   H958    1.111   .     S
C956   O1095   1.410   .     S
C956   H1097   1.116   .     S
H957   C1236   1.116   1_545 S
C959   C962    1.528   .     S
C959   H960    1.109   .     S
C959   H961    1.112   .     S
C962   H965    1.110   .     S
C962   H964    1.111   .     S
C962   H963    1.111   .     S
O966   C967    1.411   .     S
C967   H969    1.115   .     S
C967   H1108   1.108   .     S
C967   C1110   1.537   .     S
H968   C1247   1.108   1_545 S
C970   C973    1.529   .     S
C970   H972    1.111   .     S
C970   H971    1.112   .     S
C970   C1247   1.537   1_545 S
C973   H975    1.111   .     S
C973   H976    1.109   .     S
C973   H134    1.111   1_556 S
O977   N101    1.338   1_556 S
O977   H138    0.990   1_556 S
H980   O139    0.990   1_556 S
C981   O1013   1.294   .     A
C981   C985    1.425   .     S
C981   O1015   1.292   .     A
C982   O1014   1.293   .     A
C982   C986    1.425   .     S
C982   O1016   1.292   .     A
C983   C1000   1.404   .     A
C983   O1025   1.386   .     S
C983   C1071   1.398   1_455 S
C984   C999    1.406   .     A
C984   O1036   1.386   .     S
C984   C1072   1.396   .     S
C986   C1125   1.331   .     S
C986   H1150   1.088   .     S
C987   O1017   1.295   .     A
C987   C992    1.439   .     S
C987   O1019   1.296   .     A
C988   C991    1.441   .     S
C988   O1018   1.295   .     A
C988   O1020   1.296   .     A
C989   C991    1.389   .     A
C989   H1005   1.085   .     S
C989   C999    1.390   .     A
C990   H1006   1.084   .     S
C990   C992    1.388   .     A
C990   C1000   1.391   .     A
C991   C993    1.400   .     A
C992   C994    1.399   .     A
C993   O1021   1.382   .     S
C993   C995    1.415   .     A
C994   C996    1.413   .     A
C994   O1023   1.382   .     S
C995   C1001   1.409   .     A
C995   C997    1.421   .     A
C996   C998    1.421   .     A
C996   C1002   1.406   .     A
C997   C999    1.415   .     A
C997   C1068   1.406   .     S
C998   C1000   1.414   .     A
C998   C1067   1.406   1_455 S
C1001  H1007   1.080   .     S
C1001  C1053   1.398   .     S
C1002  H1008   1.080   .     S
C1002  C1054   1.396   1_455 S
Cu1003 O1013   1.943   .     S
Cu1003 Cu1004  2.703   .     S
Cu1003 N1012   2.031   .     S
Cu1003 O1020   1.943   .     S
Cu1003 O1016   1.943   .     S
Cu1003 O1017   1.958   .     S
Cu1004 O1018   1.958   .     S
Cu1004 N1011   2.031   .     S
Cu1004 O1015   1.943   .     S
Cu1004 O1019   1.943   .     S
Cu1004 O1014   1.943   .     S
H1009  C1125   1.088   .     S
N1012  N171    1.296   1_556 S
N1012  O209    1.338   1_556 S
O1021  H1022   0.988   .     S
O1023  H1024   0.989   .     S
C1026  C1029   1.530   .     S
C1026  H1028   1.111   .     S
C1026  O1165   1.410   .     S
C1026  H1167   1.116   .     S
C1029  C1032   1.528   .     S
C1029  H1030   1.109   .     S
C1029  H1031   1.112   .     S
C1032  H1035   1.110   .     S
C1032  H1034   1.111   .     S
C1032  H1033   1.111   .     S
O1036  C1037   1.411   .     S
C1037  H1039   1.115   .     S
C1037  H1178   1.108   .     S
C1037  C1180   1.537   .     S
C1040  C1043   1.529   .     S
C1040  H1042   1.111   .     S
C1040  H1041   1.112   .     S
C1043  H1045   1.111   .     S
C1043  H1046   1.109   .     S
C1043  H204    1.111   1_556 S
O1047  N171    1.338   1_556 S
O1047  H208    0.990   1_556 S
H1050  O209    0.990   1_556 S
C1051  O1083   1.294   .     A
C1051  C1055   1.425   .     S
C1051  O1085   1.292   .     A
C1052  O1084   1.293   .     A
C1052  C1056   1.425   .     S
C1052  O1086   1.292   .     A
C1053  C1070   1.404   .     A
C1053  O1095   1.386   .     S
C1054  C1069   1.406   .     A
C1054  O1106   1.386   .     S
C1054  C1002   1.396   1_655 S
C1056  C1195   1.331   .     S
C1056  H1220   1.088   .     S
C1057  O1087   1.295   .     A
C1057  C1062   1.439   .     S
C1057  O1089   1.296   .     A
C1058  C1061   1.441   .     S
C1058  O1088   1.295   .     A
C1058  O1090   1.296   .     A
C1059  C1061   1.389   .     A
C1059  H1075   1.085   .     S
C1059  C1069   1.390   .     A
C1060  H1076   1.084   .     S
C1060  C1062   1.388   .     A
C1060  C1070   1.391   .     A
C1061  C1063   1.400   .     A
C1062  C1064   1.399   .     A
C1063  O1091   1.382   .     S
C1063  C1065   1.415   .     A
C1064  C1066   1.413   .     A
C1064  O1093   1.382   .     S
C1065  C1071   1.409   .     A
C1065  C1067   1.421   .     A
C1066  C1068   1.421   .     A
C1066  C1072   1.406   .     A
C1067  C1069   1.415   .     A
C1067  C998    1.406   1_655 S
C1068  C1070   1.414   .     A
C1071  H1077   1.080   .     S
C1071  C983    1.398   1_655 S
C1072  H1078   1.080   .     S
Cu1073 O1083   1.943   .     S
Cu1073 Cu1074  2.703   .     S
Cu1073 N1082   2.031   .     S
Cu1073 O1090   1.943   .     S
Cu1073 O1086   1.943   .     S
Cu1073 O1087   1.958   .     S
Cu1074 O1088   1.958   .     S
Cu1074 N1081   2.031   .     S
Cu1074 O1085   1.943   .     S
Cu1074 O1089   1.943   .     S
Cu1074 O1084   1.943   .     S
H1079  C1195   1.088   .     S
N1082  N241    1.296   1_556 S
N1082  O279    1.338   1_556 S
O1091  H1092   0.988   .     S
O1093  H1094   0.989   .     S
C1096  C1099   1.530   .     S
C1096  H1098   1.111   .     S
C1096  O1235   1.410   .     S
C1096  H1237   1.116   .     S
C1099  C1102   1.528   .     S
C1099  H1100   1.109   .     S
C1099  H1101   1.112   .     S
C1102  H1105   1.110   .     S
C1102  H1104   1.111   .     S
C1102  H1103   1.111   .     S
O1106  C1107   1.411   .     S
C1107  H1109   1.115   .     S
C1107  H1248   1.108   .     S
C1107  C1250   1.537   .     S
C1110  C1113   1.529   .     S
C1110  H1112   1.111   .     S
C1110  H1111   1.112   .     S
C1113  H1115   1.111   .     S
C1113  H1116   1.109   .     S
C1113  H274    1.111   1_556 S
O1117  N241    1.338   1_556 S
O1117  H278    0.990   1_556 S
H1120  O279    0.990   1_556 S
C1121  O1153   1.294   .     A
C1121  C1125   1.425   .     S
C1121  O1155   1.292   .     A
C1122  O1154   1.293   .     A
C1122  C1126   1.425   .     S
C1122  O1156   1.292   .     A
C1123  C1140   1.404   .     A
C1123  O1165   1.386   .     S
C1123  C1211   1.398   1_455 S
C1124  C1139   1.406   .     A
C1124  O1176   1.386   .     S
C1124  C1212   1.396   .     S
C1126  C845    1.331   1_565 S
C1126  H870    1.088   1_565 S
C1127  O1157   1.295   .     A
C1127  C1132   1.439   .     S
C1127  O1159   1.296   .     A
C1128  C1131   1.441   .     S
C1128  O1158   1.295   .     A
C1128  O1160   1.296   .     A
C1129  C1131   1.389   .     A
C1129  H1145   1.085   .     S
C1129  C1139   1.390   .     A
C1130  H1146   1.084   .     S
C1130  C1132   1.388   .     A
C1130  C1140   1.391   .     A
C1131  C1133   1.400   .     A
C1132  C1134   1.399   .     A
C1133  O1161   1.382   .     S
C1133  C1135   1.415   .     A
C1134  C1136   1.413   .     A
C1134  O1163   1.382   .     S
C1135  C1141   1.409   .     A
C1135  C1137   1.421   .     A
C1136  C1138   1.421   .     A
C1136  C1142   1.406   .     A
C1137  C1139   1.415   .     A
C1137  C1208   1.406   .     S
C1138  C1140   1.414   .     A
C1138  C1207   1.406   1_455 S
C1141  H1147   1.080   .     S
C1141  C1193   1.398   .     S
C1142  H1148   1.080   .     S
C1142  C1194   1.396   1_455 S
Cu1143 O1153   1.943   .     S
Cu1143 Cu1144  2.703   .     S
Cu1143 N1152   2.031   .     S
Cu1143 O1160   1.943   .     S
Cu1143 O1156   1.943   .     S
Cu1143 O1157   1.958   .     S
Cu1144 O1158   1.958   .     S
Cu1144 N1151   2.031   .     S
Cu1144 O1155   1.943   .     S
Cu1144 O1159   1.943   .     S
Cu1144 O1154   1.943   .     S
H1149  C845    1.088   1_565 S
N1152  N311    1.296   1_556 S
N1152  O349    1.338   1_556 S
O1161  H1162   0.988   .     S
O1163  H1164   0.989   .     S
C1166  C1169   1.530   .     S
C1166  H1168   1.111   .     S
C1166  O885    1.410   1_565 S
C1166  H887    1.116   1_565 S
C1169  C1172   1.528   .     S
C1169  H1170   1.109   .     S
C1169  H1171   1.112   .     S
C1172  H1175   1.110   .     S
C1172  H1174   1.111   .     S
C1172  H1173   1.111   .     S
O1176  C1177   1.411   .     S
C1177  H1179   1.115   .     S
C1177  H898    1.108   1_565 S
C1177  C900    1.537   1_565 S
C1180  C1183   1.529   .     S
C1180  H1182   1.111   .     S
C1180  H1181   1.112   .     S
C1183  H1185   1.111   .     S
C1183  H1186   1.109   .     S
C1183  H344    1.111   1_556 S
O1187  N311    1.338   1_556 S
O1187  H348    0.990   1_556 S
H1190  O349    0.990   1_556 S
C1191  O1223   1.294   .     A
C1191  C1195   1.425   .     S
C1191  O1225   1.292   .     A
C1192  O1224   1.293   .     A
C1192  C1196   1.425   .     S
C1192  O1226   1.292   .     A
C1193  C1210   1.404   .     A
C1193  O1235   1.386   .     S
C1194  C1209   1.406   .     A
C1194  O1246   1.386   .     S
C1194  C1142   1.396   1_655 S
C1196  C915    1.331   1_565 S
C1196  H940    1.088   1_565 S
C1197  O1227   1.295   .     A
C1197  C1202   1.439   .     S
C1197  O1229   1.296   .     A
C1198  C1201   1.441   .     S
C1198  O1228   1.295   .     A
C1198  O1230   1.296   .     A
C1199  C1201   1.389   .     A
C1199  H1215   1.085   .     S
C1199  C1209   1.390   .     A
C1200  H1216   1.084   .     S
C1200  C1202   1.388   .     A
C1200  C1210   1.391   .     A
C1201  C1203   1.400   .     A
C1202  C1204   1.399   .     A
C1203  O1231   1.382   .     S
C1203  C1205   1.415   .     A
C1204  C1206   1.413   .     A
C1204  O1233   1.382   .     S
C1205  C1211   1.409   .     A
C1205  C1207   1.421   .     A
C1206  C1208   1.421   .     A
C1206  C1212   1.406   .     A
C1207  C1209   1.415   .     A
C1207  C1138   1.406   1_655 S
C1208  C1210   1.414   .     A
C1211  H1217   1.080   .     S
C1211  C1123   1.398   1_655 S
C1212  H1218   1.080   .     S
Cu1213 O1223   1.943   .     S
Cu1213 Cu1214  2.703   .     S
Cu1213 N1222   2.031   .     S
Cu1213 O1230   1.943   .     S
Cu1213 O1226   1.943   .     S
Cu1213 O1227   1.958   .     S
Cu1214 O1228   1.958   .     S
Cu1214 N1221   2.031   .     S
Cu1214 O1225   1.943   .     S
Cu1214 O1229   1.943   .     S
Cu1214 O1224   1.943   .     S
H1219  C915    1.088   1_565 S
N1222  N381    1.296   1_556 S
N1222  O419    1.338   1_556 S
O1231  H1232   0.988   .     S
O1233  H1234   0.989   .     S
C1236  C1239   1.530   .     S
C1236  H1238   1.111   .     S
C1236  O955    1.410   1_565 S
C1236  H957    1.116   1_565 S
C1239  C1242   1.528   .     S
C1239  H1240   1.109   .     S
C1239  H1241   1.112   .     S
C1242  H1245   1.110   .     S
C1242  H1244   1.111   .     S
C1242  H1243   1.111   .     S
O1246  C1247   1.411   .     S
C1247  H1249   1.115   .     S
C1247  H968    1.108   1_565 S
C1247  C970    1.537   1_565 S
C1250  C1253   1.529   .     S
C1250  H1252   1.111   .     S
C1250  H1251   1.112   .     S
C1253  H1255   1.111   .     S
C1253  H1256   1.109   .     S
C1253  H414    1.111   1_556 S
O1257  N381    1.338   1_556 S
O1257  H418    0.990   1_556 S
H1260  O419    0.990   1_556 S
