data_str_m2_o2_o10_pcu_sym.203
_audit_creation_date              2020-01-03
_audit_creation_method            'Materials Studio'
_symmetry_space_group_name_H-M    'P1'
_symmetry_Int_Tables_number       1
_symmetry_cell_setting            triclinic
loop_
_symmetry_equiv_pos_as_xyz
  x,y,z
_cell_length_a                    26.1718
_cell_length_b                    30.2322
_cell_length_c                    28.0913
_cell_angle_alpha                 92.9202
_cell_angle_beta                  97.4735
_cell_angle_gamma                 93.3834
loop_
_atom_site_label
_atom_site_type_symbol
_atom_site_fract_x
_atom_site_fract_y
_atom_site_fract_z
_atom_site_U_iso_or_equiv
_atom_site_adp_type
_atom_site_occupancy
C1     C     0.16933   0.16515   0.24909   0.00000  Uiso   1.00
C2     C     0.16562   0.33526   0.25154   0.00000  Uiso   1.00
C3     C     0.18997   0.28734   0.05849   0.00000  Uiso   1.00
C4     C     0.14559   0.21152   0.44058   0.00000  Uiso   1.00
C5     C     0.19582   0.28254   0.10942   0.00000  Uiso   1.00
C6     C     0.13548   0.21956   0.39076   0.00000  Uiso   1.00
C7     C     0.13258   0.22220   0.09787   0.00000  Uiso   1.00
C8     C     0.20353   0.27578   0.40165   0.00000  Uiso   1.00
C9     C     0.13393   0.22184   0.04788   0.00000  Uiso   1.00
C10    C     0.20428   0.27479   0.45177   0.00000  Uiso   1.00
C11    C     0.16708   0.25090   0.02710   0.00000  Uiso   1.00
C12    C     0.17121   0.24603   0.47276   0.00000  Uiso   1.00
C13    C     0.06809   0.25042   0.23772   0.00000  Uiso   1.00
C14    C     0.26523   0.25084   0.26223   0.00000  Uiso   1.00
C15    C     0.01282   0.25119   0.23085   0.00000  Uiso   1.00
C16    C     0.32045   0.25241   0.26873   0.00000  Uiso   1.00
C17    C     0.15138   0.04760   0.28038   0.00000  Uiso   1.00
C18    C     0.16346   0.45182   0.21277   0.00000  Uiso   1.00
C19    C     0.14794   0.09280   0.27854   0.00000  Uiso   1.00
C20    C     0.15849   0.40603   0.21260   0.00000  Uiso   1.00
C21    C     0.17503   0.11693   0.24768   0.00000  Uiso   1.00
C22    C     0.16624   0.38441   0.25569   0.00000  Uiso   1.00
C23    C     0.20803   0.09491   0.21872   0.00000  Uiso   1.00
C24    C     0.17748   0.41077   0.30038   0.00000  Uiso   1.00
C25    C     0.21561   0.04912   0.22466   0.00000  Uiso   1.00
C26    C     0.19389   0.45618   0.29864   0.00000  Uiso   1.00
C27    C     0.18459   0.02551   0.25374   0.00000  Uiso   1.00
C28    C     0.18273   0.47697   0.25504   0.00000  Uiso   1.00
Cu29   Cu    0.16667   0.24999   0.29821   0.00000  Uiso   1.00
Cu30   Cu    0.16667   0.25000   0.20178   0.00000  Uiso   1.00
H31    H     0.32639   0.25036   0.19431   0.00000  Uiso   1.00
H32    H     0.00666   0.25479   0.30505   0.00000  Uiso   1.00
H33    H     0.12771   0.02950   0.30278   0.00000  Uiso   1.00
H34    H     0.15409   0.46779   0.17935   0.00000  Uiso   1.00
H35    H     0.12204   0.10873   0.30003   0.00000  Uiso   1.00
H36    H     0.14719   0.38751   0.17844   0.00000  Uiso   1.00
H37    H     0.10591   0.19996   0.02513   0.00000  Uiso   1.00
H38    H     0.23308   0.29554   0.47424   0.00000  Uiso   1.00
N39    N     0.16667   0.25001   0.12934   0.00000  Uiso   1.00
N40    N     0.16667   0.24999   0.37065   0.00000  Uiso   1.00
O41    O     0.16667   0.18572   0.29071   0.00000  Uiso   1.00
O42    O     0.16666   0.31427   0.20928   0.00000  Uiso   1.00
O43    O     0.16667   0.18573   0.20928   0.00000  Uiso   1.00
O44    O     0.16666   0.31427   0.29072   0.00000  Uiso   1.00
O45    O     0.09161   0.24999   0.28132   0.00000  Uiso   1.00
O46    O     0.24172   0.25000   0.21868   0.00000  Uiso   1.00
O47    O     0.09161   0.25000   0.19988   0.00000  Uiso   1.00
O48    O     0.24172   0.25000   0.30011   0.00000  Uiso   1.00
C49    C     0.22775   0.11685   0.17640   0.00000  Uiso   1.00
C50    C     0.18770   0.10591   0.13177   0.00000  Uiso   1.00
C51    C     0.20429   0.12502   0.08675   0.00000  Uiso   1.00
H52    H     0.21017   0.16164   0.09152   0.00000  Uiso   1.00
H53    H     0.24030   0.11063   0.07823   0.00000  Uiso   1.00
H54    H     0.17341   0.11630   0.05625   0.00000  Uiso   1.00
H55    H     0.18115   0.06932   0.12511   0.00000  Uiso   1.00
H56    H     0.15037   0.11890   0.13832   0.00000  Uiso   1.00
H57    H     0.23615   0.15305   0.18326   0.00000  Uiso   1.00
H58    H     0.26543   0.10524   0.16918   0.00000  Uiso   1.00
C59    C     0.16621   0.39513   0.34930   0.00000  Uiso   1.00
C60    C     0.11813   0.41585   0.36459   0.00000  Uiso   1.00
C61    C     0.11340   0.40826   0.41723   0.00000  Uiso   1.00
H62    H     0.14606   0.42637   0.44092   0.00000  Uiso   1.00
H63    H     0.07678   0.42080   0.42662   0.00000  Uiso   1.00
H64    H     0.11355   0.37233   0.42375   0.00000  Uiso   1.00
H65    H     0.11942   0.45213   0.35985   0.00000  Uiso   1.00
H66    H     0.08311   0.40049   0.34164   0.00000  Uiso   1.00
H67    H     0.15868   0.35942   0.35149   0.00000  Uiso   1.00
H68    H     0.20004   0.40376   0.37688   0.00000  Uiso   1.00
C69    C     0.25732   0.02597   0.20141   0.00000  Uiso   1.00
C70    C     0.31145   0.04102   0.22715   0.00000  Uiso   1.00
C71    C     0.01992   0.02115   0.20120   0.00000  Uiso   1.00
H72    H     0.01613   0.48432   0.20065   0.00000  Uiso   1.00
H73    H     0.01696   0.03177   0.16372   0.00000  Uiso   1.00
H74    H     0.05852   0.03282   0.22014   0.00000  Uiso   1.00
H75    H     0.31781   0.07773   0.22927   0.00000  Uiso   1.00
H76    H     0.31537   0.03015   0.26458   0.00000  Uiso   1.00
H77    H     0.25326   0.48945   0.20290   0.00000  Uiso   1.00
H78    H     0.25400   0.03173   0.16248   0.00000  Uiso   1.00
C79    C     0.22547   0.48158   0.34224   0.00000  Uiso   1.00
C80    C     0.28008   0.46497   0.35091   0.00000  Uiso   1.00
C81    C     0.31208   0.48975   0.39450   0.00000  Uiso   1.00
H82    H     0.31483   0.02598   0.38948   0.00000  Uiso   1.00
H83    H     0.29429   0.48355   0.42756   0.00000  Uiso   1.00
H84    H     0.01836   0.47798   0.39899   0.00000  Uiso   1.00
H85    H     0.27851   0.42889   0.35678   0.00000  Uiso   1.00
H86    H     0.29978   0.47016   0.31871   0.00000  Uiso   1.00
H87    H     0.23003   0.01764   0.33719   0.00000  Uiso   1.00
H88    H     0.20604   0.47885   0.37486   0.00000  Uiso   1.00
C89    C     0.19002   0.33463   0.04075   0.00000  Uiso   1.00
C90    C     0.24378   0.35931   0.04219   0.00000  Uiso   1.00
C91    C     0.24230   0.39608   0.00681   0.00000  Uiso   1.00
H92    H     0.22830   0.38249   0.46977   0.00000  Uiso   1.00
H93    H     0.21619   0.42159   0.01700   0.00000  Uiso   1.00
H94    H     0.28166   0.41215   0.00742   0.00000  Uiso   1.00
H95    H     0.25663   0.37579   0.07823   0.00000  Uiso   1.00
H96    H     0.27358   0.33623   0.03471   0.00000  Uiso   1.00
H97    H     0.16789   0.33448   0.00424   0.00000  Uiso   1.00
H98    H     0.16688   0.35480   0.06310   0.00000  Uiso   1.00
C99    C     0.14276   0.16359   0.45532   0.00000  Uiso   1.00
C100   C     0.16920   0.13234   0.42251   0.00000  Uiso   1.00
C101   C     0.16994   0.08545   0.44025   0.00000  Uiso   1.00
H102   H     0.19312   0.08563   0.47629   0.00000  Uiso   1.00
H103   H     0.13000   0.07175   0.44222   0.00000  Uiso   1.00
H104   H     0.18767   0.06361   0.41487   0.00000  Uiso   1.00
H105   H     0.14857   0.13016   0.38535   0.00000  Uiso   1.00
H106   H     0.20960   0.14545   0.42141   0.00000  Uiso   1.00
H107   H     0.16399   0.16168   0.49181   0.00000  Uiso   1.00
H108   H     0.10198   0.15136   0.45577   0.00000  Uiso   1.00
C109   C     0.23345   0.31588   0.13965   0.00000  Uiso   1.00
H110   H     0.24328   0.30948   0.17720   0.00000  Uiso   1.00
H111   H     0.27103   0.31650   0.12532   0.00000  Uiso   1.00
H112   H     0.21799   0.34923   0.13930   0.00000  Uiso   1.00
C113   C     0.08708   0.19739   0.36252   0.00000  Uiso   1.00
H114   H     0.05962   0.22310   0.35498   0.00000  Uiso   1.00
H115   H     0.09374   0.17957   0.32903   0.00000  Uiso   1.00
H116   H     0.06726   0.17313   0.38334   0.00000  Uiso   1.00
C117   C     0.09062   0.19187   0.11341   0.00000  Uiso   1.00
C118   C     0.03744   0.21045   0.10120   0.00000  Uiso   1.00
C119   C     0.32869   0.18108   0.11892   0.00000  Uiso   1.00
H120   H     0.00468   0.17625   0.15793   0.00000  Uiso   1.00
H121   H     0.32465   0.14817   0.09892   0.00000  Uiso   1.00
H122   H     0.29161   0.19722   0.11294   0.00000  Uiso   1.00
H123   H     0.03751   0.24458   0.11783   0.00000  Uiso   1.00
H124   H     0.02803   0.21234   0.06165   0.00000  Uiso   1.00
H125   H     0.09014   0.15882   0.09403   0.00000  Uiso   1.00
H126   H     0.09711   0.18566   0.15162   0.00000  Uiso   1.00
C127   C     0.24402   0.30752   0.38551   0.00000  Uiso   1.00
C128   C     0.29882   0.29200   0.39800   0.00000  Uiso   1.00
C129   C     0.00574   0.32458   0.38191   0.00000  Uiso   1.00
H130   H     0.33063   0.32914   0.34276   0.00000  Uiso   1.00
H131   H     0.00586   0.35729   0.40182   0.00000  Uiso   1.00
H132   H     0.04463   0.31163   0.38938   0.00000  Uiso   1.00
H133   H     0.30807   0.28942   0.43745   0.00000  Uiso   1.00
H134   H     0.30160   0.25862   0.38053   0.00000  Uiso   1.00
H135   H     0.23718   0.31358   0.34732   0.00000  Uiso   1.00
H136   H     0.24231   0.34046   0.40413   0.00000  Uiso   1.00
C137   C     0.50266   0.16515   0.24909   0.00000  Uiso   1.00
C138   C     0.49896   0.33526   0.25154   0.00000  Uiso   1.00
C139   C     0.52331   0.28734   0.05849   0.00000  Uiso   1.00
C140   C     0.47892   0.21152   0.44058   0.00000  Uiso   1.00
C141   C     0.52915   0.28254   0.10942   0.00000  Uiso   1.00
C142   C     0.46882   0.21956   0.39076   0.00000  Uiso   1.00
C143   C     0.46592   0.22220   0.09787   0.00000  Uiso   1.00
C144   C     0.53687   0.27578   0.40165   0.00000  Uiso   1.00
C145   C     0.46726   0.22184   0.04788   0.00000  Uiso   1.00
C146   C     0.53761   0.27479   0.45177   0.00000  Uiso   1.00
C147   C     0.50041   0.25090   0.02710   0.00000  Uiso   1.00
C148   C     0.50455   0.24603   0.47276   0.00000  Uiso   1.00
C149   C     0.40142   0.25042   0.23772   0.00000  Uiso   1.00
C150   C     0.59856   0.25084   0.26223   0.00000  Uiso   1.00
C151   C     0.34615   0.25119   0.23085   0.00000  Uiso   1.00
C152   C     0.65378   0.25241   0.26873   0.00000  Uiso   1.00
C153   C     0.48472   0.04760   0.28038   0.00000  Uiso   1.00
C154   C     0.49679   0.45182   0.21277   0.00000  Uiso   1.00
C155   C     0.48128   0.09280   0.27854   0.00000  Uiso   1.00
C156   C     0.49182   0.40603   0.21260   0.00000  Uiso   1.00
C157   C     0.50836   0.11693   0.24768   0.00000  Uiso   1.00
C158   C     0.49957   0.38441   0.25569   0.00000  Uiso   1.00
C159   C     0.54137   0.09491   0.21872   0.00000  Uiso   1.00
C160   C     0.51082   0.41077   0.30038   0.00000  Uiso   1.00
C161   C     0.54895   0.04912   0.22466   0.00000  Uiso   1.00
C162   C     0.52722   0.45618   0.29864   0.00000  Uiso   1.00
C163   C     0.51792   0.02551   0.25374   0.00000  Uiso   1.00
C164   C     0.51606   0.47697   0.25504   0.00000  Uiso   1.00
Cu165  Cu    0.50000   0.24999   0.29821   0.00000  Uiso   1.00
Cu166  Cu    0.50000   0.25000   0.20178   0.00000  Uiso   1.00
H167   H     0.65972   0.25036   0.19431   0.00000  Uiso   1.00
H168   H     0.33999   0.25479   0.30505   0.00000  Uiso   1.00
H169   H     0.46104   0.02950   0.30278   0.00000  Uiso   1.00
H170   H     0.48742   0.46779   0.17935   0.00000  Uiso   1.00
H171   H     0.45537   0.10873   0.30003   0.00000  Uiso   1.00
H172   H     0.48053   0.38751   0.17844   0.00000  Uiso   1.00
H173   H     0.43924   0.19996   0.02513   0.00000  Uiso   1.00
H174   H     0.56641   0.29554   0.47424   0.00000  Uiso   1.00
N175   N     0.50000   0.25001   0.12934   0.00000  Uiso   1.00
N176   N     0.50000   0.24999   0.37065   0.00000  Uiso   1.00
O177   O     0.50000   0.18572   0.29071   0.00000  Uiso   1.00
O178   O     0.50000   0.31427   0.20928   0.00000  Uiso   1.00
O179   O     0.50000   0.18573   0.20928   0.00000  Uiso   1.00
O180   O     0.50000   0.31427   0.29072   0.00000  Uiso   1.00
O181   O     0.42495   0.24999   0.28132   0.00000  Uiso   1.00
O182   O     0.57505   0.25000   0.21868   0.00000  Uiso   1.00
O183   O     0.42495   0.25000   0.19988   0.00000  Uiso   1.00
O184   O     0.57505   0.25000   0.30011   0.00000  Uiso   1.00
C185   C     0.56109   0.11685   0.17640   0.00000  Uiso   1.00
C186   C     0.52103   0.10591   0.13177   0.00000  Uiso   1.00
C187   C     0.53762   0.12502   0.08675   0.00000  Uiso   1.00
H188   H     0.54350   0.16164   0.09152   0.00000  Uiso   1.00
H189   H     0.57363   0.11063   0.07823   0.00000  Uiso   1.00
H190   H     0.50674   0.11630   0.05625   0.00000  Uiso   1.00
H191   H     0.51448   0.06932   0.12511   0.00000  Uiso   1.00
H192   H     0.48371   0.11890   0.13832   0.00000  Uiso   1.00
H193   H     0.56949   0.15305   0.18326   0.00000  Uiso   1.00
H194   H     0.59876   0.10524   0.16918   0.00000  Uiso   1.00
C195   C     0.49954   0.39513   0.34930   0.00000  Uiso   1.00
C196   C     0.45146   0.41585   0.36459   0.00000  Uiso   1.00
C197   C     0.44674   0.40826   0.41723   0.00000  Uiso   1.00
H198   H     0.47939   0.42637   0.44092   0.00000  Uiso   1.00
H199   H     0.41011   0.42080   0.42662   0.00000  Uiso   1.00
H200   H     0.44688   0.37233   0.42375   0.00000  Uiso   1.00
H201   H     0.45275   0.45213   0.35985   0.00000  Uiso   1.00
H202   H     0.41645   0.40049   0.34164   0.00000  Uiso   1.00
H203   H     0.49202   0.35942   0.35149   0.00000  Uiso   1.00
H204   H     0.53337   0.40376   0.37688   0.00000  Uiso   1.00
C205   C     0.59066   0.02597   0.20141   0.00000  Uiso   1.00
C206   C     0.64479   0.04102   0.22715   0.00000  Uiso   1.00
C207   C     0.35325   0.02115   0.20120   0.00000  Uiso   1.00
H208   H     0.34947   0.48432   0.20065   0.00000  Uiso   1.00
H209   H     0.35029   0.03177   0.16372   0.00000  Uiso   1.00
H210   H     0.39185   0.03282   0.22014   0.00000  Uiso   1.00
H211   H     0.65114   0.07773   0.22927   0.00000  Uiso   1.00
H212   H     0.64871   0.03015   0.26458   0.00000  Uiso   1.00
H213   H     0.58660   0.48945   0.20290   0.00000  Uiso   1.00
H214   H     0.58733   0.03173   0.16248   0.00000  Uiso   1.00
C215   C     0.55881   0.48158   0.34224   0.00000  Uiso   1.00
C216   C     0.61341   0.46497   0.35091   0.00000  Uiso   1.00
C217   C     0.64542   0.48975   0.39450   0.00000  Uiso   1.00
H218   H     0.64817   0.02598   0.38948   0.00000  Uiso   1.00
H219   H     0.62762   0.48355   0.42756   0.00000  Uiso   1.00
H220   H     0.35169   0.47798   0.39899   0.00000  Uiso   1.00
H221   H     0.61185   0.42889   0.35678   0.00000  Uiso   1.00
H222   H     0.63311   0.47016   0.31871   0.00000  Uiso   1.00
H223   H     0.56336   0.01764   0.33719   0.00000  Uiso   1.00
H224   H     0.53937   0.47885   0.37486   0.00000  Uiso   1.00
C225   C     0.52335   0.33463   0.04075   0.00000  Uiso   1.00
C226   C     0.57711   0.35931   0.04219   0.00000  Uiso   1.00
C227   C     0.57563   0.39608   0.00681   0.00000  Uiso   1.00
H228   H     0.56163   0.38249   0.46977   0.00000  Uiso   1.00
H229   H     0.54952   0.42159   0.01700   0.00000  Uiso   1.00
H230   H     0.61499   0.41215   0.00742   0.00000  Uiso   1.00
H231   H     0.58996   0.37579   0.07823   0.00000  Uiso   1.00
H232   H     0.60691   0.33623   0.03471   0.00000  Uiso   1.00
H233   H     0.50122   0.33448   0.00424   0.00000  Uiso   1.00
H234   H     0.50022   0.35480   0.06310   0.00000  Uiso   1.00
C235   C     0.47609   0.16359   0.45532   0.00000  Uiso   1.00
C236   C     0.50253   0.13234   0.42251   0.00000  Uiso   1.00
C237   C     0.50328   0.08545   0.44025   0.00000  Uiso   1.00
H238   H     0.52645   0.08563   0.47629   0.00000  Uiso   1.00
H239   H     0.46333   0.07175   0.44222   0.00000  Uiso   1.00
H240   H     0.52100   0.06361   0.41487   0.00000  Uiso   1.00
H241   H     0.48190   0.13016   0.38535   0.00000  Uiso   1.00
H242   H     0.54294   0.14545   0.42141   0.00000  Uiso   1.00
H243   H     0.49732   0.16168   0.49181   0.00000  Uiso   1.00
H244   H     0.43531   0.15136   0.45577   0.00000  Uiso   1.00
C245   C     0.56678   0.31588   0.13965   0.00000  Uiso   1.00
H246   H     0.57661   0.30948   0.17720   0.00000  Uiso   1.00
H247   H     0.60437   0.31650   0.12532   0.00000  Uiso   1.00
H248   H     0.55132   0.34923   0.13930   0.00000  Uiso   1.00
C249   C     0.42042   0.19739   0.36252   0.00000  Uiso   1.00
H250   H     0.39295   0.22310   0.35498   0.00000  Uiso   1.00
H251   H     0.42707   0.17957   0.32903   0.00000  Uiso   1.00
H252   H     0.40059   0.17313   0.38334   0.00000  Uiso   1.00
C253   C     0.42395   0.19187   0.11341   0.00000  Uiso   1.00
C254   C     0.37078   0.21045   0.10120   0.00000  Uiso   1.00
C255   C     0.66202   0.18108   0.11892   0.00000  Uiso   1.00
H256   H     0.33801   0.17625   0.15793   0.00000  Uiso   1.00
H257   H     0.65798   0.14817   0.09892   0.00000  Uiso   1.00
H258   H     0.62494   0.19722   0.11294   0.00000  Uiso   1.00
H259   H     0.37085   0.24458   0.11783   0.00000  Uiso   1.00
H260   H     0.36136   0.21234   0.06165   0.00000  Uiso   1.00
H261   H     0.42348   0.15882   0.09403   0.00000  Uiso   1.00
H262   H     0.43044   0.18566   0.15162   0.00000  Uiso   1.00
C263   C     0.57735   0.30752   0.38551   0.00000  Uiso   1.00
C264   C     0.63215   0.29200   0.39800   0.00000  Uiso   1.00
C265   C     0.33908   0.32458   0.38191   0.00000  Uiso   1.00
H266   H     0.66396   0.32914   0.34276   0.00000  Uiso   1.00
H267   H     0.33919   0.35729   0.40182   0.00000  Uiso   1.00
H268   H     0.37797   0.31163   0.38938   0.00000  Uiso   1.00
H269   H     0.64141   0.28942   0.43745   0.00000  Uiso   1.00
H270   H     0.63493   0.25862   0.38053   0.00000  Uiso   1.00
H271   H     0.57051   0.31358   0.34732   0.00000  Uiso   1.00
H272   H     0.57564   0.34046   0.40413   0.00000  Uiso   1.00
C273   C     0.83600   0.16515   0.24909   0.00000  Uiso   1.00
C274   C     0.83229   0.33526   0.25154   0.00000  Uiso   1.00
C275   C     0.85664   0.28734   0.05849   0.00000  Uiso   1.00
C276   C     0.81225   0.21152   0.44058   0.00000  Uiso   1.00
C277   C     0.86248   0.28254   0.10942   0.00000  Uiso   1.00
C278   C     0.80215   0.21956   0.39076   0.00000  Uiso   1.00
C279   C     0.79925   0.22220   0.09787   0.00000  Uiso   1.00
C280   C     0.87020   0.27578   0.40165   0.00000  Uiso   1.00
C281   C     0.80060   0.22184   0.04788   0.00000  Uiso   1.00
C282   C     0.87095   0.27479   0.45177   0.00000  Uiso   1.00
C283   C     0.83375   0.25090   0.02710   0.00000  Uiso   1.00
C284   C     0.83788   0.24603   0.47276   0.00000  Uiso   1.00
C285   C     0.73476   0.25042   0.23772   0.00000  Uiso   1.00
C286   C     0.93190   0.25084   0.26223   0.00000  Uiso   1.00
C287   C     0.67948   0.25119   0.23085   0.00000  Uiso   1.00
C288   C     0.98712   0.25241   0.26873   0.00000  Uiso   1.00
C289   C     0.81805   0.04760   0.28038   0.00000  Uiso   1.00
C290   C     0.83013   0.45182   0.21277   0.00000  Uiso   1.00
C291   C     0.81461   0.09280   0.27854   0.00000  Uiso   1.00
C292   C     0.82516   0.40603   0.21260   0.00000  Uiso   1.00
C293   C     0.84170   0.11693   0.24768   0.00000  Uiso   1.00
C294   C     0.83291   0.38441   0.25569   0.00000  Uiso   1.00
C295   C     0.87470   0.09491   0.21872   0.00000  Uiso   1.00
C296   C     0.84415   0.41077   0.30038   0.00000  Uiso   1.00
C297   C     0.88228   0.04912   0.22466   0.00000  Uiso   1.00
C298   C     0.86055   0.45618   0.29864   0.00000  Uiso   1.00
C299   C     0.85125   0.02551   0.25374   0.00000  Uiso   1.00
C300   C     0.84939   0.47697   0.25504   0.00000  Uiso   1.00
Cu301  Cu    0.83333   0.24999   0.29821   0.00000  Uiso   1.00
Cu302  Cu    0.83333   0.25000   0.20178   0.00000  Uiso   1.00
H303   H     0.99306   0.25036   0.19431   0.00000  Uiso   1.00
H304   H     0.67333   0.25479   0.30505   0.00000  Uiso   1.00
H305   H     0.79437   0.02950   0.30278   0.00000  Uiso   1.00
H306   H     0.82075   0.46779   0.17935   0.00000  Uiso   1.00
H307   H     0.78871   0.10873   0.30003   0.00000  Uiso   1.00
H308   H     0.81386   0.38751   0.17844   0.00000  Uiso   1.00
H309   H     0.77257   0.19996   0.02513   0.00000  Uiso   1.00
H310   H     0.89974   0.29554   0.47424   0.00000  Uiso   1.00
N311   N     0.83333   0.25001   0.12934   0.00000  Uiso   1.00
N312   N     0.83333   0.24999   0.37065   0.00000  Uiso   1.00
O313   O     0.83334   0.18572   0.29071   0.00000  Uiso   1.00
O314   O     0.83333   0.31427   0.20928   0.00000  Uiso   1.00
O315   O     0.83334   0.18573   0.20928   0.00000  Uiso   1.00
O316   O     0.83333   0.31427   0.29072   0.00000  Uiso   1.00
O317   O     0.75828   0.24999   0.28132   0.00000  Uiso   1.00
O318   O     0.90839   0.25000   0.21868   0.00000  Uiso   1.00
O319   O     0.75828   0.25000   0.19988   0.00000  Uiso   1.00
O320   O     0.90839   0.25000   0.30011   0.00000  Uiso   1.00
C321   C     0.89442   0.11685   0.17640   0.00000  Uiso   1.00
C322   C     0.85437   0.10591   0.13177   0.00000  Uiso   1.00
C323   C     0.87096   0.12502   0.08675   0.00000  Uiso   1.00
H324   H     0.87684   0.16164   0.09152   0.00000  Uiso   1.00
H325   H     0.90697   0.11063   0.07823   0.00000  Uiso   1.00
H326   H     0.84007   0.11630   0.05625   0.00000  Uiso   1.00
H327   H     0.84782   0.06932   0.12511   0.00000  Uiso   1.00
H328   H     0.81704   0.11890   0.13832   0.00000  Uiso   1.00
H329   H     0.90282   0.15305   0.18326   0.00000  Uiso   1.00
H330   H     0.93210   0.10524   0.16918   0.00000  Uiso   1.00
C331   C     0.83288   0.39513   0.34930   0.00000  Uiso   1.00
C332   C     0.78480   0.41585   0.36459   0.00000  Uiso   1.00
C333   C     0.78007   0.40826   0.41723   0.00000  Uiso   1.00
H334   H     0.81272   0.42637   0.44092   0.00000  Uiso   1.00
H335   H     0.74344   0.42080   0.42662   0.00000  Uiso   1.00
H336   H     0.78021   0.37233   0.42375   0.00000  Uiso   1.00
H337   H     0.78609   0.45213   0.35985   0.00000  Uiso   1.00
H338   H     0.74978   0.40049   0.34164   0.00000  Uiso   1.00
H339   H     0.82535   0.35942   0.35149   0.00000  Uiso   1.00
H340   H     0.86671   0.40376   0.37688   0.00000  Uiso   1.00
C341   C     0.92399   0.02597   0.20141   0.00000  Uiso   1.00
C342   C     0.97812   0.04102   0.22715   0.00000  Uiso   1.00
C343   C     0.68658   0.02115   0.20120   0.00000  Uiso   1.00
H344   H     0.68280   0.48432   0.20065   0.00000  Uiso   1.00
H345   H     0.68363   0.03177   0.16372   0.00000  Uiso   1.00
H346   H     0.72519   0.03282   0.22014   0.00000  Uiso   1.00
H347   H     0.98448   0.07773   0.22927   0.00000  Uiso   1.00
H348   H     0.98204   0.03015   0.26458   0.00000  Uiso   1.00
H349   H     0.91993   0.48945   0.20290   0.00000  Uiso   1.00
H350   H     0.92067   0.03173   0.16248   0.00000  Uiso   1.00
C351   C     0.89214   0.48158   0.34224   0.00000  Uiso   1.00
C352   C     0.94674   0.46497   0.35091   0.00000  Uiso   1.00
C353   C     0.97875   0.48975   0.39450   0.00000  Uiso   1.00
H354   H     0.98150   0.02598   0.38948   0.00000  Uiso   1.00
H355   H     0.96095   0.48355   0.42756   0.00000  Uiso   1.00
H356   H     0.68502   0.47798   0.39899   0.00000  Uiso   1.00
H357   H     0.94518   0.42889   0.35678   0.00000  Uiso   1.00
H358   H     0.96645   0.47016   0.31871   0.00000  Uiso   1.00
H359   H     0.89669   0.01764   0.33719   0.00000  Uiso   1.00
H360   H     0.87270   0.47885   0.37486   0.00000  Uiso   1.00
C361   C     0.85668   0.33463   0.04075   0.00000  Uiso   1.00
C362   C     0.91044   0.35931   0.04219   0.00000  Uiso   1.00
C363   C     0.90897   0.39608   0.00681   0.00000  Uiso   1.00
H364   H     0.89497   0.38249   0.46977   0.00000  Uiso   1.00
H365   H     0.88286   0.42159   0.01700   0.00000  Uiso   1.00
H366   H     0.94833   0.41215   0.00742   0.00000  Uiso   1.00
H367   H     0.92329   0.37579   0.07823   0.00000  Uiso   1.00
H368   H     0.94025   0.33623   0.03471   0.00000  Uiso   1.00
H369   H     0.83455   0.33448   0.00424   0.00000  Uiso   1.00
H370   H     0.83355   0.35480   0.06310   0.00000  Uiso   1.00
C371   C     0.80942   0.16359   0.45532   0.00000  Uiso   1.00
C372   C     0.83586   0.13234   0.42251   0.00000  Uiso   1.00
C373   C     0.83661   0.08545   0.44025   0.00000  Uiso   1.00
H374   H     0.85978   0.08563   0.47629   0.00000  Uiso   1.00
H375   H     0.79667   0.07175   0.44222   0.00000  Uiso   1.00
H376   H     0.85434   0.06361   0.41487   0.00000  Uiso   1.00
H377   H     0.81524   0.13016   0.38535   0.00000  Uiso   1.00
H378   H     0.87627   0.14545   0.42141   0.00000  Uiso   1.00
H379   H     0.83066   0.16168   0.49181   0.00000  Uiso   1.00
H380   H     0.76865   0.15136   0.45577   0.00000  Uiso   1.00
C381   C     0.90011   0.31588   0.13965   0.00000  Uiso   1.00
H382   H     0.90994   0.30948   0.17720   0.00000  Uiso   1.00
H383   H     0.93770   0.31650   0.12532   0.00000  Uiso   1.00
H384   H     0.88465   0.34923   0.13930   0.00000  Uiso   1.00
C385   C     0.75375   0.19739   0.36252   0.00000  Uiso   1.00
H386   H     0.72629   0.22310   0.35498   0.00000  Uiso   1.00
H387   H     0.76040   0.17957   0.32903   0.00000  Uiso   1.00
H388   H     0.73392   0.17313   0.38334   0.00000  Uiso   1.00
C389   C     0.75729   0.19187   0.11341   0.00000  Uiso   1.00
C390   C     0.70411   0.21045   0.10120   0.00000  Uiso   1.00
C391   C     0.99535   0.18108   0.11892   0.00000  Uiso   1.00
H392   H     0.67134   0.17625   0.15793   0.00000  Uiso   1.00
H393   H     0.99131   0.14817   0.09892   0.00000  Uiso   1.00
H394   H     0.95828   0.19722   0.11294   0.00000  Uiso   1.00
H395   H     0.70418   0.24458   0.11783   0.00000  Uiso   1.00
H396   H     0.69469   0.21234   0.06165   0.00000  Uiso   1.00
H397   H     0.75681   0.15882   0.09403   0.00000  Uiso   1.00
H398   H     0.76378   0.18566   0.15162   0.00000  Uiso   1.00
C399   C     0.91069   0.30752   0.38551   0.00000  Uiso   1.00
C400   C     0.96549   0.29200   0.39800   0.00000  Uiso   1.00
C401   C     0.67241   0.32458   0.38191   0.00000  Uiso   1.00
H402   H     0.99729   0.32914   0.34276   0.00000  Uiso   1.00
H403   H     0.67252   0.35729   0.40182   0.00000  Uiso   1.00
H404   H     0.71130   0.31163   0.38938   0.00000  Uiso   1.00
H405   H     0.97474   0.28942   0.43745   0.00000  Uiso   1.00
H406   H     0.96826   0.25862   0.38053   0.00000  Uiso   1.00
H407   H     0.90384   0.31358   0.34732   0.00000  Uiso   1.00
H408   H     0.90897   0.34046   0.40413   0.00000  Uiso   1.00
C409   C     0.16933   0.66515   0.24909   0.00000  Uiso   1.00
C410   C     0.16562   0.83526   0.25154   0.00000  Uiso   1.00
C411   C     0.18997   0.78734   0.05849   0.00000  Uiso   1.00
C412   C     0.14559   0.71152   0.44058   0.00000  Uiso   1.00
C413   C     0.19582   0.78254   0.10942   0.00000  Uiso   1.00
C414   C     0.13548   0.71956   0.39076   0.00000  Uiso   1.00
C415   C     0.13258   0.72220   0.09787   0.00000  Uiso   1.00
C416   C     0.20353   0.77578   0.40165   0.00000  Uiso   1.00
C417   C     0.13393   0.72184   0.04788   0.00000  Uiso   1.00
C418   C     0.20428   0.77479   0.45177   0.00000  Uiso   1.00
C419   C     0.16708   0.75090   0.02710   0.00000  Uiso   1.00
C420   C     0.17121   0.74603   0.47276   0.00000  Uiso   1.00
C421   C     0.06809   0.75042   0.23772   0.00000  Uiso   1.00
C422   C     0.26523   0.75084   0.26223   0.00000  Uiso   1.00
C423   C     0.01282   0.75119   0.23085   0.00000  Uiso   1.00
C424   C     0.32045   0.75241   0.26873   0.00000  Uiso   1.00
C425   C     0.15138   0.54760   0.28038   0.00000  Uiso   1.00
C426   C     0.16346   0.95182   0.21277   0.00000  Uiso   1.00
C427   C     0.14794   0.59280   0.27854   0.00000  Uiso   1.00
C428   C     0.15849   0.90603   0.21260   0.00000  Uiso   1.00
C429   C     0.17503   0.61693   0.24768   0.00000  Uiso   1.00
C430   C     0.16624   0.88441   0.25569   0.00000  Uiso   1.00
C431   C     0.20803   0.59491   0.21872   0.00000  Uiso   1.00
C432   C     0.17748   0.91077   0.30038   0.00000  Uiso   1.00
C433   C     0.21561   0.54912   0.22466   0.00000  Uiso   1.00
C434   C     0.19389   0.95618   0.29864   0.00000  Uiso   1.00
C435   C     0.18459   0.52551   0.25374   0.00000  Uiso   1.00
C436   C     0.18273   0.97697   0.25504   0.00000  Uiso   1.00
Cu437  Cu    0.16667   0.74999   0.29821   0.00000  Uiso   1.00
Cu438  Cu    0.16667   0.75000   0.20178   0.00000  Uiso   1.00
H439   H     0.32639   0.75036   0.19431   0.00000  Uiso   1.00
H440   H     0.00666   0.75479   0.30505   0.00000  Uiso   1.00
H441   H     0.12771   0.52950   0.30278   0.00000  Uiso   1.00
H442   H     0.15409   0.96779   0.17935   0.00000  Uiso   1.00
H443   H     0.12204   0.60873   0.30003   0.00000  Uiso   1.00
H444   H     0.14719   0.88751   0.17844   0.00000  Uiso   1.00
H445   H     0.10591   0.69996   0.02513   0.00000  Uiso   1.00
H446   H     0.23308   0.79554   0.47424   0.00000  Uiso   1.00
N447   N     0.16667   0.75001   0.12934   0.00000  Uiso   1.00
N448   N     0.16667   0.74999   0.37065   0.00000  Uiso   1.00
O449   O     0.16667   0.68572   0.29071   0.00000  Uiso   1.00
O450   O     0.16666   0.81427   0.20928   0.00000  Uiso   1.00
O451   O     0.16667   0.68573   0.20928   0.00000  Uiso   1.00
O452   O     0.16666   0.81427   0.29072   0.00000  Uiso   1.00
O453   O     0.09161   0.74999   0.28132   0.00000  Uiso   1.00
O454   O     0.24172   0.75000   0.21868   0.00000  Uiso   1.00
O455   O     0.09161   0.75000   0.19988   0.00000  Uiso   1.00
O456   O     0.24172   0.75000   0.30011   0.00000  Uiso   1.00
C457   C     0.22775   0.61685   0.17640   0.00000  Uiso   1.00
C458   C     0.18770   0.60591   0.13177   0.00000  Uiso   1.00
C459   C     0.20429   0.62502   0.08675   0.00000  Uiso   1.00
H460   H     0.21017   0.66164   0.09152   0.00000  Uiso   1.00
H461   H     0.24030   0.61063   0.07823   0.00000  Uiso   1.00
H462   H     0.17341   0.61630   0.05625   0.00000  Uiso   1.00
H463   H     0.18115   0.56932   0.12511   0.00000  Uiso   1.00
H464   H     0.15037   0.61890   0.13832   0.00000  Uiso   1.00
H465   H     0.23615   0.65305   0.18326   0.00000  Uiso   1.00
H466   H     0.26543   0.60524   0.16918   0.00000  Uiso   1.00
C467   C     0.16621   0.89513   0.34930   0.00000  Uiso   1.00
C468   C     0.11813   0.91585   0.36459   0.00000  Uiso   1.00
C469   C     0.11340   0.90826   0.41723   0.00000  Uiso   1.00
H470   H     0.14606   0.92637   0.44092   0.00000  Uiso   1.00
H471   H     0.07678   0.92080   0.42662   0.00000  Uiso   1.00
H472   H     0.11355   0.87233   0.42375   0.00000  Uiso   1.00
H473   H     0.11942   0.95213   0.35985   0.00000  Uiso   1.00
H474   H     0.08311   0.90049   0.34164   0.00000  Uiso   1.00
H475   H     0.15868   0.85942   0.35149   0.00000  Uiso   1.00
H476   H     0.20004   0.90376   0.37688   0.00000  Uiso   1.00
C477   C     0.25732   0.52597   0.20141   0.00000  Uiso   1.00
C478   C     0.31145   0.54102   0.22715   0.00000  Uiso   1.00
C479   C     0.01992   0.52115   0.20120   0.00000  Uiso   1.00
H480   H     0.01613   0.98432   0.20065   0.00000  Uiso   1.00
H481   H     0.01696   0.53177   0.16372   0.00000  Uiso   1.00
H482   H     0.05852   0.53282   0.22014   0.00000  Uiso   1.00
H483   H     0.31781   0.57773   0.22927   0.00000  Uiso   1.00
H484   H     0.31537   0.53015   0.26458   0.00000  Uiso   1.00
H485   H     0.25326   0.98945   0.20290   0.00000  Uiso   1.00
H486   H     0.25400   0.53173   0.16248   0.00000  Uiso   1.00
C487   C     0.22547   0.98158   0.34224   0.00000  Uiso   1.00
C488   C     0.28008   0.96497   0.35091   0.00000  Uiso   1.00
C489   C     0.31208   0.98975   0.39450   0.00000  Uiso   1.00
H490   H     0.31483   0.52598   0.38948   0.00000  Uiso   1.00
H491   H     0.29429   0.98355   0.42756   0.00000  Uiso   1.00
H492   H     0.01836   0.97798   0.39899   0.00000  Uiso   1.00
H493   H     0.27851   0.92889   0.35678   0.00000  Uiso   1.00
H494   H     0.29978   0.97016   0.31871   0.00000  Uiso   1.00
H495   H     0.23003   0.51764   0.33719   0.00000  Uiso   1.00
H496   H     0.20604   0.97885   0.37486   0.00000  Uiso   1.00
C497   C     0.19002   0.83463   0.04075   0.00000  Uiso   1.00
C498   C     0.24378   0.85931   0.04219   0.00000  Uiso   1.00
C499   C     0.24230   0.89608   0.00681   0.00000  Uiso   1.00
H500   H     0.22830   0.88249   0.46977   0.00000  Uiso   1.00
H501   H     0.21619   0.92159   0.01700   0.00000  Uiso   1.00
H502   H     0.28166   0.91215   0.00742   0.00000  Uiso   1.00
H503   H     0.25663   0.87579   0.07823   0.00000  Uiso   1.00
H504   H     0.27358   0.83623   0.03471   0.00000  Uiso   1.00
H505   H     0.16789   0.83448   0.00424   0.00000  Uiso   1.00
H506   H     0.16688   0.85480   0.06310   0.00000  Uiso   1.00
C507   C     0.14276   0.66359   0.45532   0.00000  Uiso   1.00
C508   C     0.16920   0.63234   0.42251   0.00000  Uiso   1.00
C509   C     0.16994   0.58545   0.44025   0.00000  Uiso   1.00
H510   H     0.19312   0.58563   0.47629   0.00000  Uiso   1.00
H511   H     0.13000   0.57175   0.44222   0.00000  Uiso   1.00
H512   H     0.18767   0.56361   0.41487   0.00000  Uiso   1.00
H513   H     0.14857   0.63016   0.38535   0.00000  Uiso   1.00
H514   H     0.20960   0.64545   0.42141   0.00000  Uiso   1.00
H515   H     0.16399   0.66168   0.49181   0.00000  Uiso   1.00
H516   H     0.10198   0.65136   0.45577   0.00000  Uiso   1.00
C517   C     0.23345   0.81588   0.13965   0.00000  Uiso   1.00
H518   H     0.24328   0.80948   0.17720   0.00000  Uiso   1.00
H519   H     0.27103   0.81650   0.12532   0.00000  Uiso   1.00
H520   H     0.21799   0.84923   0.13930   0.00000  Uiso   1.00
C521   C     0.08708   0.69739   0.36252   0.00000  Uiso   1.00
H522   H     0.05962   0.72310   0.35498   0.00000  Uiso   1.00
H523   H     0.09374   0.67957   0.32903   0.00000  Uiso   1.00
H524   H     0.06726   0.67313   0.38334   0.00000  Uiso   1.00
C525   C     0.09062   0.69187   0.11341   0.00000  Uiso   1.00
C526   C     0.03744   0.71045   0.10120   0.00000  Uiso   1.00
C527   C     0.32869   0.68108   0.11892   0.00000  Uiso   1.00
H528   H     0.00468   0.67625   0.15793   0.00000  Uiso   1.00
H529   H     0.32465   0.64817   0.09892   0.00000  Uiso   1.00
H530   H     0.29161   0.69722   0.11294   0.00000  Uiso   1.00
H531   H     0.03751   0.74458   0.11783   0.00000  Uiso   1.00
H532   H     0.02803   0.71234   0.06165   0.00000  Uiso   1.00
H533   H     0.09014   0.65882   0.09403   0.00000  Uiso   1.00
H534   H     0.09711   0.68566   0.15162   0.00000  Uiso   1.00
C535   C     0.24402   0.80752   0.38551   0.00000  Uiso   1.00
C536   C     0.29882   0.79200   0.39800   0.00000  Uiso   1.00
C537   C     0.00574   0.82458   0.38191   0.00000  Uiso   1.00
H538   H     0.33063   0.82914   0.34276   0.00000  Uiso   1.00
H539   H     0.00586   0.85729   0.40182   0.00000  Uiso   1.00
H540   H     0.04463   0.81163   0.38938   0.00000  Uiso   1.00
H541   H     0.30807   0.78942   0.43745   0.00000  Uiso   1.00
H542   H     0.30160   0.75862   0.38053   0.00000  Uiso   1.00
H543   H     0.23718   0.81358   0.34732   0.00000  Uiso   1.00
H544   H     0.24231   0.84046   0.40413   0.00000  Uiso   1.00
C545   C     0.50266   0.66515   0.24909   0.00000  Uiso   1.00
C546   C     0.49896   0.83526   0.25154   0.00000  Uiso   1.00
C547   C     0.52331   0.78734   0.05849   0.00000  Uiso   1.00
C548   C     0.47892   0.71152   0.44058   0.00000  Uiso   1.00
C549   C     0.52915   0.78254   0.10942   0.00000  Uiso   1.00
C550   C     0.46882   0.71956   0.39076   0.00000  Uiso   1.00
C551   C     0.46592   0.72220   0.09787   0.00000  Uiso   1.00
C552   C     0.53687   0.77578   0.40165   0.00000  Uiso   1.00
C553   C     0.46726   0.72184   0.04788   0.00000  Uiso   1.00
C554   C     0.53761   0.77479   0.45177   0.00000  Uiso   1.00
C555   C     0.50041   0.75090   0.02710   0.00000  Uiso   1.00
C556   C     0.50455   0.74603   0.47276   0.00000  Uiso   1.00
C557   C     0.40142   0.75042   0.23772   0.00000  Uiso   1.00
C558   C     0.59856   0.75084   0.26223   0.00000  Uiso   1.00
C559   C     0.34615   0.75119   0.23085   0.00000  Uiso   1.00
C560   C     0.65378   0.75241   0.26873   0.00000  Uiso   1.00
C561   C     0.48472   0.54760   0.28038   0.00000  Uiso   1.00
C562   C     0.49679   0.95182   0.21277   0.00000  Uiso   1.00
C563   C     0.48128   0.59280   0.27854   0.00000  Uiso   1.00
C564   C     0.49182   0.90603   0.21260   0.00000  Uiso   1.00
C565   C     0.50836   0.61693   0.24768   0.00000  Uiso   1.00
C566   C     0.49957   0.88441   0.25569   0.00000  Uiso   1.00
C567   C     0.54137   0.59491   0.21872   0.00000  Uiso   1.00
C568   C     0.51082   0.91077   0.30038   0.00000  Uiso   1.00
C569   C     0.54895   0.54912   0.22466   0.00000  Uiso   1.00
C570   C     0.52722   0.95618   0.29864   0.00000  Uiso   1.00
C571   C     0.51792   0.52551   0.25374   0.00000  Uiso   1.00
C572   C     0.51606   0.97697   0.25504   0.00000  Uiso   1.00
Cu573  Cu    0.50000   0.74999   0.29821   0.00000  Uiso   1.00
Cu574  Cu    0.50000   0.75000   0.20178   0.00000  Uiso   1.00
H575   H     0.65972   0.75036   0.19431   0.00000  Uiso   1.00
H576   H     0.33999   0.75479   0.30505   0.00000  Uiso   1.00
H577   H     0.46104   0.52950   0.30278   0.00000  Uiso   1.00
H578   H     0.48742   0.96779   0.17935   0.00000  Uiso   1.00
H579   H     0.45537   0.60873   0.30003   0.00000  Uiso   1.00
H580   H     0.48053   0.88751   0.17844   0.00000  Uiso   1.00
H581   H     0.43924   0.69996   0.02513   0.00000  Uiso   1.00
H582   H     0.56641   0.79554   0.47424   0.00000  Uiso   1.00
N583   N     0.50000   0.75001   0.12934   0.00000  Uiso   1.00
N584   N     0.50000   0.74999   0.37065   0.00000  Uiso   1.00
O585   O     0.50000   0.68572   0.29071   0.00000  Uiso   1.00
O586   O     0.50000   0.81427   0.20928   0.00000  Uiso   1.00
O587   O     0.50000   0.68573   0.20928   0.00000  Uiso   1.00
O588   O     0.50000   0.81427   0.29072   0.00000  Uiso   1.00
O589   O     0.42495   0.74999   0.28132   0.00000  Uiso   1.00
O590   O     0.57505   0.75000   0.21868   0.00000  Uiso   1.00
O591   O     0.42495   0.75000   0.19988   0.00000  Uiso   1.00
O592   O     0.57505   0.75000   0.30011   0.00000  Uiso   1.00
C593   C     0.56109   0.61685   0.17640   0.00000  Uiso   1.00
C594   C     0.52103   0.60591   0.13177   0.00000  Uiso   1.00
C595   C     0.53762   0.62502   0.08675   0.00000  Uiso   1.00
H596   H     0.54350   0.66164   0.09152   0.00000  Uiso   1.00
H597   H     0.57363   0.61063   0.07823   0.00000  Uiso   1.00
H598   H     0.50674   0.61630   0.05625   0.00000  Uiso   1.00
H599   H     0.51448   0.56932   0.12511   0.00000  Uiso   1.00
H600   H     0.48371   0.61890   0.13832   0.00000  Uiso   1.00
H601   H     0.56949   0.65305   0.18326   0.00000  Uiso   1.00
H602   H     0.59876   0.60524   0.16918   0.00000  Uiso   1.00
C603   C     0.49954   0.89513   0.34930   0.00000  Uiso   1.00
C604   C     0.45146   0.91585   0.36459   0.00000  Uiso   1.00
C605   C     0.44674   0.90826   0.41723   0.00000  Uiso   1.00
H606   H     0.47939   0.92637   0.44092   0.00000  Uiso   1.00
H607   H     0.41011   0.92080   0.42662   0.00000  Uiso   1.00
H608   H     0.44688   0.87233   0.42375   0.00000  Uiso   1.00
H609   H     0.45275   0.95213   0.35985   0.00000  Uiso   1.00
H610   H     0.41645   0.90049   0.34164   0.00000  Uiso   1.00
H611   H     0.49202   0.85942   0.35149   0.00000  Uiso   1.00
H612   H     0.53337   0.90376   0.37688   0.00000  Uiso   1.00
C613   C     0.59066   0.52597   0.20141   0.00000  Uiso   1.00
C614   C     0.64479   0.54102   0.22715   0.00000  Uiso   1.00
C615   C     0.35325   0.52115   0.20120   0.00000  Uiso   1.00
H616   H     0.34947   0.98432   0.20065   0.00000  Uiso   1.00
H617   H     0.35029   0.53177   0.16372   0.00000  Uiso   1.00
H618   H     0.39185   0.53282   0.22014   0.00000  Uiso   1.00
H619   H     0.65114   0.57773   0.22927   0.00000  Uiso   1.00
H620   H     0.64871   0.53015   0.26458   0.00000  Uiso   1.00
H621   H     0.58660   0.98945   0.20290   0.00000  Uiso   1.00
H622   H     0.58733   0.53173   0.16248   0.00000  Uiso   1.00
C623   C     0.55881   0.98158   0.34224   0.00000  Uiso   1.00
C624   C     0.61341   0.96497   0.35091   0.00000  Uiso   1.00
C625   C     0.64542   0.98975   0.39450   0.00000  Uiso   1.00
H626   H     0.64817   0.52598   0.38948   0.00000  Uiso   1.00
H627   H     0.62762   0.98355   0.42756   0.00000  Uiso   1.00
H628   H     0.35169   0.97798   0.39899   0.00000  Uiso   1.00
H629   H     0.61185   0.92889   0.35678   0.00000  Uiso   1.00
H630   H     0.63311   0.97016   0.31871   0.00000  Uiso   1.00
H631   H     0.56336   0.51764   0.33719   0.00000  Uiso   1.00
H632   H     0.53937   0.97885   0.37486   0.00000  Uiso   1.00
C633   C     0.52335   0.83463   0.04075   0.00000  Uiso   1.00
C634   C     0.57711   0.85931   0.04219   0.00000  Uiso   1.00
C635   C     0.57563   0.89608   0.00681   0.00000  Uiso   1.00
H636   H     0.56163   0.88249   0.46977   0.00000  Uiso   1.00
H637   H     0.54952   0.92159   0.01700   0.00000  Uiso   1.00
H638   H     0.61499   0.91215   0.00742   0.00000  Uiso   1.00
H639   H     0.58996   0.87579   0.07823   0.00000  Uiso   1.00
H640   H     0.60691   0.83623   0.03471   0.00000  Uiso   1.00
H641   H     0.50122   0.83448   0.00424   0.00000  Uiso   1.00
H642   H     0.50022   0.85480   0.06310   0.00000  Uiso   1.00
C643   C     0.47609   0.66359   0.45532   0.00000  Uiso   1.00
C644   C     0.50253   0.63234   0.42251   0.00000  Uiso   1.00
C645   C     0.50328   0.58545   0.44025   0.00000  Uiso   1.00
H646   H     0.52645   0.58563   0.47629   0.00000  Uiso   1.00
H647   H     0.46333   0.57175   0.44222   0.00000  Uiso   1.00
H648   H     0.52100   0.56361   0.41487   0.00000  Uiso   1.00
H649   H     0.48190   0.63016   0.38535   0.00000  Uiso   1.00
H650   H     0.54294   0.64545   0.42141   0.00000  Uiso   1.00
H651   H     0.49732   0.66168   0.49181   0.00000  Uiso   1.00
H652   H     0.43531   0.65136   0.45577   0.00000  Uiso   1.00
C653   C     0.56678   0.81588   0.13965   0.00000  Uiso   1.00
H654   H     0.57661   0.80948   0.17720   0.00000  Uiso   1.00
H655   H     0.60437   0.81650   0.12532   0.00000  Uiso   1.00
H656   H     0.55132   0.84923   0.13930   0.00000  Uiso   1.00
C657   C     0.42042   0.69739   0.36252   0.00000  Uiso   1.00
H658   H     0.39295   0.72310   0.35498   0.00000  Uiso   1.00
H659   H     0.42707   0.67957   0.32903   0.00000  Uiso   1.00
H660   H     0.40059   0.67313   0.38334   0.00000  Uiso   1.00
C661   C     0.42395   0.69187   0.11341   0.00000  Uiso   1.00
C662   C     0.37078   0.71045   0.10120   0.00000  Uiso   1.00
C663   C     0.66202   0.68108   0.11892   0.00000  Uiso   1.00
H664   H     0.33801   0.67625   0.15793   0.00000  Uiso   1.00
H665   H     0.65798   0.64817   0.09892   0.00000  Uiso   1.00
H666   H     0.62494   0.69722   0.11294   0.00000  Uiso   1.00
H667   H     0.37085   0.74458   0.11783   0.00000  Uiso   1.00
H668   H     0.36136   0.71234   0.06165   0.00000  Uiso   1.00
H669   H     0.42348   0.65882   0.09403   0.00000  Uiso   1.00
H670   H     0.43044   0.68566   0.15162   0.00000  Uiso   1.00
C671   C     0.57735   0.80752   0.38551   0.00000  Uiso   1.00
C672   C     0.63215   0.79200   0.39800   0.00000  Uiso   1.00
C673   C     0.33908   0.82458   0.38191   0.00000  Uiso   1.00
H674   H     0.66396   0.82914   0.34276   0.00000  Uiso   1.00
H675   H     0.33919   0.85729   0.40182   0.00000  Uiso   1.00
H676   H     0.37797   0.81163   0.38938   0.00000  Uiso   1.00
H677   H     0.64141   0.78942   0.43745   0.00000  Uiso   1.00
H678   H     0.63493   0.75862   0.38053   0.00000  Uiso   1.00
H679   H     0.57051   0.81358   0.34732   0.00000  Uiso   1.00
H680   H     0.57564   0.84046   0.40413   0.00000  Uiso   1.00
C681   C     0.83600   0.66515   0.24909   0.00000  Uiso   1.00
C682   C     0.83229   0.83526   0.25154   0.00000  Uiso   1.00
C683   C     0.85664   0.78734   0.05849   0.00000  Uiso   1.00
C684   C     0.81225   0.71152   0.44058   0.00000  Uiso   1.00
C685   C     0.86248   0.78254   0.10942   0.00000  Uiso   1.00
C686   C     0.80215   0.71956   0.39076   0.00000  Uiso   1.00
C687   C     0.79925   0.72220   0.09787   0.00000  Uiso   1.00
C688   C     0.87020   0.77578   0.40165   0.00000  Uiso   1.00
C689   C     0.80060   0.72184   0.04788   0.00000  Uiso   1.00
C690   C     0.87095   0.77479   0.45177   0.00000  Uiso   1.00
C691   C     0.83375   0.75090   0.02710   0.00000  Uiso   1.00
C692   C     0.83788   0.74603   0.47276   0.00000  Uiso   1.00
C693   C     0.73476   0.75042   0.23772   0.00000  Uiso   1.00
C694   C     0.93190   0.75084   0.26223   0.00000  Uiso   1.00
C695   C     0.67948   0.75119   0.23085   0.00000  Uiso   1.00
C696   C     0.98712   0.75241   0.26873   0.00000  Uiso   1.00
C697   C     0.81805   0.54760   0.28038   0.00000  Uiso   1.00
C698   C     0.83013   0.95182   0.21277   0.00000  Uiso   1.00
C699   C     0.81461   0.59280   0.27854   0.00000  Uiso   1.00
C700   C     0.82516   0.90603   0.21260   0.00000  Uiso   1.00
C701   C     0.84170   0.61693   0.24768   0.00000  Uiso   1.00
C702   C     0.83291   0.88441   0.25569   0.00000  Uiso   1.00
C703   C     0.87470   0.59491   0.21872   0.00000  Uiso   1.00
C704   C     0.84415   0.91077   0.30038   0.00000  Uiso   1.00
C705   C     0.88228   0.54912   0.22466   0.00000  Uiso   1.00
C706   C     0.86055   0.95618   0.29864   0.00000  Uiso   1.00
C707   C     0.85125   0.52551   0.25374   0.00000  Uiso   1.00
C708   C     0.84939   0.97697   0.25504   0.00000  Uiso   1.00
Cu709  Cu    0.83333   0.74999   0.29821   0.00000  Uiso   1.00
Cu710  Cu    0.83333   0.75000   0.20178   0.00000  Uiso   1.00
H711   H     0.99306   0.75036   0.19431   0.00000  Uiso   1.00
H712   H     0.67333   0.75479   0.30505   0.00000  Uiso   1.00
H713   H     0.79437   0.52950   0.30278   0.00000  Uiso   1.00
H714   H     0.82075   0.96779   0.17935   0.00000  Uiso   1.00
H715   H     0.78871   0.60873   0.30003   0.00000  Uiso   1.00
H716   H     0.81386   0.88751   0.17844   0.00000  Uiso   1.00
H717   H     0.77257   0.69996   0.02513   0.00000  Uiso   1.00
H718   H     0.89974   0.79554   0.47424   0.00000  Uiso   1.00
N719   N     0.83333   0.75001   0.12934   0.00000  Uiso   1.00
N720   N     0.83333   0.74999   0.37065   0.00000  Uiso   1.00
O721   O     0.83334   0.68572   0.29071   0.00000  Uiso   1.00
O722   O     0.83333   0.81427   0.20928   0.00000  Uiso   1.00
O723   O     0.83334   0.68573   0.20928   0.00000  Uiso   1.00
O724   O     0.83333   0.81427   0.29072   0.00000  Uiso   1.00
O725   O     0.75828   0.74999   0.28132   0.00000  Uiso   1.00
O726   O     0.90839   0.75000   0.21868   0.00000  Uiso   1.00
O727   O     0.75828   0.75000   0.19988   0.00000  Uiso   1.00
O728   O     0.90839   0.75000   0.30011   0.00000  Uiso   1.00
C729   C     0.89442   0.61685   0.17640   0.00000  Uiso   1.00
C730   C     0.85437   0.60591   0.13177   0.00000  Uiso   1.00
C731   C     0.87096   0.62502   0.08675   0.00000  Uiso   1.00
H732   H     0.87684   0.66164   0.09152   0.00000  Uiso   1.00
H733   H     0.90697   0.61063   0.07823   0.00000  Uiso   1.00
H734   H     0.84007   0.61630   0.05625   0.00000  Uiso   1.00
H735   H     0.84782   0.56932   0.12511   0.00000  Uiso   1.00
H736   H     0.81704   0.61890   0.13832   0.00000  Uiso   1.00
H737   H     0.90282   0.65305   0.18326   0.00000  Uiso   1.00
H738   H     0.93210   0.60524   0.16918   0.00000  Uiso   1.00
C739   C     0.83288   0.89513   0.34930   0.00000  Uiso   1.00
C740   C     0.78480   0.91585   0.36459   0.00000  Uiso   1.00
C741   C     0.78007   0.90826   0.41723   0.00000  Uiso   1.00
H742   H     0.81272   0.92637   0.44092   0.00000  Uiso   1.00
H743   H     0.74344   0.92080   0.42662   0.00000  Uiso   1.00
H744   H     0.78021   0.87233   0.42375   0.00000  Uiso   1.00
H745   H     0.78609   0.95213   0.35985   0.00000  Uiso   1.00
H746   H     0.74978   0.90049   0.34164   0.00000  Uiso   1.00
H747   H     0.82535   0.85942   0.35149   0.00000  Uiso   1.00
H748   H     0.86671   0.90376   0.37688   0.00000  Uiso   1.00
C749   C     0.92399   0.52597   0.20141   0.00000  Uiso   1.00
C750   C     0.97812   0.54102   0.22715   0.00000  Uiso   1.00
C751   C     0.68658   0.52115   0.20120   0.00000  Uiso   1.00
H752   H     0.68280   0.98432   0.20065   0.00000  Uiso   1.00
H753   H     0.68363   0.53177   0.16372   0.00000  Uiso   1.00
H754   H     0.72519   0.53282   0.22014   0.00000  Uiso   1.00
H755   H     0.98448   0.57773   0.22927   0.00000  Uiso   1.00
H756   H     0.98204   0.53015   0.26458   0.00000  Uiso   1.00
H757   H     0.91993   0.98945   0.20290   0.00000  Uiso   1.00
H758   H     0.92067   0.53173   0.16248   0.00000  Uiso   1.00
C759   C     0.89214   0.98158   0.34224   0.00000  Uiso   1.00
C760   C     0.94674   0.96497   0.35091   0.00000  Uiso   1.00
C761   C     0.97875   0.98975   0.39450   0.00000  Uiso   1.00
H762   H     0.98150   0.52598   0.38948   0.00000  Uiso   1.00
H763   H     0.96095   0.98355   0.42756   0.00000  Uiso   1.00
H764   H     0.68502   0.97798   0.39899   0.00000  Uiso   1.00
H765   H     0.94518   0.92889   0.35678   0.00000  Uiso   1.00
H766   H     0.96645   0.97016   0.31871   0.00000  Uiso   1.00
H767   H     0.89669   0.51764   0.33719   0.00000  Uiso   1.00
H768   H     0.87270   0.97885   0.37486   0.00000  Uiso   1.00
C769   C     0.85668   0.83463   0.04075   0.00000  Uiso   1.00
C770   C     0.91044   0.85931   0.04219   0.00000  Uiso   1.00
C771   C     0.90897   0.89608   0.00681   0.00000  Uiso   1.00
H772   H     0.89497   0.88249   0.46977   0.00000  Uiso   1.00
H773   H     0.88286   0.92159   0.01700   0.00000  Uiso   1.00
H774   H     0.94833   0.91215   0.00742   0.00000  Uiso   1.00
H775   H     0.92329   0.87579   0.07823   0.00000  Uiso   1.00
H776   H     0.94025   0.83623   0.03471   0.00000  Uiso   1.00
H777   H     0.83455   0.83448   0.00424   0.00000  Uiso   1.00
H778   H     0.83355   0.85480   0.06310   0.00000  Uiso   1.00
C779   C     0.80942   0.66359   0.45532   0.00000  Uiso   1.00
C780   C     0.83586   0.63234   0.42251   0.00000  Uiso   1.00
C781   C     0.83661   0.58545   0.44025   0.00000  Uiso   1.00
H782   H     0.85978   0.58563   0.47629   0.00000  Uiso   1.00
H783   H     0.79667   0.57175   0.44222   0.00000  Uiso   1.00
H784   H     0.85434   0.56361   0.41487   0.00000  Uiso   1.00
H785   H     0.81524   0.63016   0.38535   0.00000  Uiso   1.00
H786   H     0.87627   0.64545   0.42141   0.00000  Uiso   1.00
H787   H     0.83066   0.66168   0.49181   0.00000  Uiso   1.00
H788   H     0.76865   0.65136   0.45577   0.00000  Uiso   1.00
C789   C     0.90011   0.81588   0.13965   0.00000  Uiso   1.00
H790   H     0.90994   0.80948   0.17720   0.00000  Uiso   1.00
H791   H     0.93770   0.81650   0.12532   0.00000  Uiso   1.00
H792   H     0.88465   0.84923   0.13930   0.00000  Uiso   1.00
C793   C     0.75375   0.69739   0.36252   0.00000  Uiso   1.00
H794   H     0.72629   0.72310   0.35498   0.00000  Uiso   1.00
H795   H     0.76040   0.67957   0.32903   0.00000  Uiso   1.00
H796   H     0.73392   0.67313   0.38334   0.00000  Uiso   1.00
C797   C     0.75729   0.69187   0.11341   0.00000  Uiso   1.00
C798   C     0.70411   0.71045   0.10120   0.00000  Uiso   1.00
C799   C     0.99535   0.68108   0.11892   0.00000  Uiso   1.00
H800   H     0.67134   0.67625   0.15793   0.00000  Uiso   1.00
H801   H     0.99131   0.64817   0.09892   0.00000  Uiso   1.00
H802   H     0.95828   0.69722   0.11294   0.00000  Uiso   1.00
H803   H     0.70418   0.74458   0.11783   0.00000  Uiso   1.00
H804   H     0.69469   0.71234   0.06165   0.00000  Uiso   1.00
H805   H     0.75681   0.65882   0.09403   0.00000  Uiso   1.00
H806   H     0.76378   0.68566   0.15162   0.00000  Uiso   1.00
C807   C     0.91069   0.80752   0.38551   0.00000  Uiso   1.00
C808   C     0.96549   0.79200   0.39800   0.00000  Uiso   1.00
C809   C     0.67241   0.82458   0.38191   0.00000  Uiso   1.00
H810   H     0.99729   0.82914   0.34276   0.00000  Uiso   1.00
H811   H     0.67252   0.85729   0.40182   0.00000  Uiso   1.00
H812   H     0.71130   0.81163   0.38938   0.00000  Uiso   1.00
H813   H     0.97474   0.78942   0.43745   0.00000  Uiso   1.00
H814   H     0.96826   0.75862   0.38053   0.00000  Uiso   1.00
H815   H     0.90384   0.81358   0.34732   0.00000  Uiso   1.00
H816   H     0.90897   0.84046   0.40413   0.00000  Uiso   1.00
C817   C     0.16933   0.16515   0.74909   0.00000  Uiso   1.00
C818   C     0.16562   0.33526   0.75154   0.00000  Uiso   1.00
C819   C     0.18997   0.28734   0.55849   0.00000  Uiso   1.00
C820   C     0.14559   0.21152   0.94058   0.00000  Uiso   1.00
C821   C     0.19582   0.28254   0.60942   0.00000  Uiso   1.00
C822   C     0.13548   0.21956   0.89076   0.00000  Uiso   1.00
C823   C     0.13258   0.22220   0.59787   0.00000  Uiso   1.00
C824   C     0.20353   0.27578   0.90165   0.00000  Uiso   1.00
C825   C     0.13393   0.22184   0.54788   0.00000  Uiso   1.00
C826   C     0.20428   0.27479   0.95177   0.00000  Uiso   1.00
C827   C     0.16708   0.25090   0.52710   0.00000  Uiso   1.00
C828   C     0.17121   0.24603   0.97276   0.00000  Uiso   1.00
C829   C     0.06809   0.25042   0.73772   0.00000  Uiso   1.00
C830   C     0.26523   0.25084   0.76223   0.00000  Uiso   1.00
C831   C     0.01282   0.25119   0.73085   0.00000  Uiso   1.00
C832   C     0.32045   0.25241   0.76873   0.00000  Uiso   1.00
C833   C     0.15138   0.04760   0.78038   0.00000  Uiso   1.00
C834   C     0.16346   0.45182   0.71277   0.00000  Uiso   1.00
C835   C     0.14794   0.09280   0.77854   0.00000  Uiso   1.00
C836   C     0.15849   0.40603   0.71260   0.00000  Uiso   1.00
C837   C     0.17503   0.11693   0.74768   0.00000  Uiso   1.00
C838   C     0.16624   0.38441   0.75569   0.00000  Uiso   1.00
C839   C     0.20803   0.09491   0.71872   0.00000  Uiso   1.00
C840   C     0.17748   0.41077   0.80038   0.00000  Uiso   1.00
C841   C     0.21561   0.04912   0.72466   0.00000  Uiso   1.00
C842   C     0.19389   0.45618   0.79864   0.00000  Uiso   1.00
C843   C     0.18459   0.02551   0.75374   0.00000  Uiso   1.00
C844   C     0.18273   0.47697   0.75504   0.00000  Uiso   1.00
Cu845  Cu    0.16667   0.24999   0.79821   0.00000  Uiso   1.00
Cu846  Cu    0.16667   0.25000   0.70178   0.00000  Uiso   1.00
H847   H     0.32639   0.25036   0.69431   0.00000  Uiso   1.00
H848   H     0.00666   0.25479   0.80505   0.00000  Uiso   1.00
H849   H     0.12771   0.02950   0.80278   0.00000  Uiso   1.00
H850   H     0.15409   0.46779   0.67935   0.00000  Uiso   1.00
H851   H     0.12204   0.10873   0.80003   0.00000  Uiso   1.00
H852   H     0.14719   0.38751   0.67844   0.00000  Uiso   1.00
H853   H     0.10591   0.19996   0.52513   0.00000  Uiso   1.00
H854   H     0.23308   0.29554   0.97424   0.00000  Uiso   1.00
N855   N     0.16667   0.25001   0.62934   0.00000  Uiso   1.00
N856   N     0.16667   0.24999   0.87065   0.00000  Uiso   1.00
O857   O     0.16667   0.18572   0.79071   0.00000  Uiso   1.00
O858   O     0.16666   0.31427   0.70928   0.00000  Uiso   1.00
O859   O     0.16667   0.18573   0.70928   0.00000  Uiso   1.00
O860   O     0.16666   0.31427   0.79072   0.00000  Uiso   1.00
O861   O     0.09161   0.24999   0.78132   0.00000  Uiso   1.00
O862   O     0.24172   0.25000   0.71868   0.00000  Uiso   1.00
O863   O     0.09161   0.25000   0.69988   0.00000  Uiso   1.00
O864   O     0.24172   0.25000   0.80011   0.00000  Uiso   1.00
C865   C     0.22775   0.11685   0.67640   0.00000  Uiso   1.00
C866   C     0.18770   0.10591   0.63177   0.00000  Uiso   1.00
C867   C     0.20429   0.12502   0.58675   0.00000  Uiso   1.00
H868   H     0.21017   0.16164   0.59152   0.00000  Uiso   1.00
H869   H     0.24030   0.11063   0.57823   0.00000  Uiso   1.00
H870   H     0.17341   0.11630   0.55625   0.00000  Uiso   1.00
H871   H     0.18115   0.06932   0.62511   0.00000  Uiso   1.00
H872   H     0.15037   0.11890   0.63832   0.00000  Uiso   1.00
H873   H     0.23615   0.15305   0.68326   0.00000  Uiso   1.00
H874   H     0.26543   0.10524   0.66918   0.00000  Uiso   1.00
C875   C     0.16621   0.39513   0.84930   0.00000  Uiso   1.00
C876   C     0.11813   0.41585   0.86459   0.00000  Uiso   1.00
C877   C     0.11340   0.40826   0.91723   0.00000  Uiso   1.00
H878   H     0.14606   0.42637   0.94092   0.00000  Uiso   1.00
H879   H     0.07678   0.42080   0.92662   0.00000  Uiso   1.00
H880   H     0.11355   0.37233   0.92375   0.00000  Uiso   1.00
H881   H     0.11942   0.45213   0.85985   0.00000  Uiso   1.00
H882   H     0.08311   0.40049   0.84164   0.00000  Uiso   1.00
H883   H     0.15868   0.35942   0.85149   0.00000  Uiso   1.00
H884   H     0.20004   0.40376   0.87688   0.00000  Uiso   1.00
C885   C     0.25732   0.02597   0.70141   0.00000  Uiso   1.00
C886   C     0.31145   0.04102   0.72715   0.00000  Uiso   1.00
C887   C     0.01992   0.02115   0.70120   0.00000  Uiso   1.00
H888   H     0.01613   0.48432   0.70065   0.00000  Uiso   1.00
H889   H     0.01696   0.03177   0.66372   0.00000  Uiso   1.00
H890   H     0.05852   0.03282   0.72014   0.00000  Uiso   1.00
H891   H     0.31781   0.07773   0.72927   0.00000  Uiso   1.00
H892   H     0.31537   0.03015   0.76458   0.00000  Uiso   1.00
H893   H     0.25326   0.48945   0.70290   0.00000  Uiso   1.00
H894   H     0.25400   0.03173   0.66248   0.00000  Uiso   1.00
C895   C     0.22547   0.48158   0.84224   0.00000  Uiso   1.00
C896   C     0.28008   0.46497   0.85091   0.00000  Uiso   1.00
C897   C     0.31208   0.48975   0.89450   0.00000  Uiso   1.00
H898   H     0.31483   0.02598   0.88948   0.00000  Uiso   1.00
H899   H     0.29429   0.48355   0.92756   0.00000  Uiso   1.00
H900   H     0.01836   0.47798   0.89899   0.00000  Uiso   1.00
H901   H     0.27851   0.42889   0.85678   0.00000  Uiso   1.00
H902   H     0.29978   0.47016   0.81871   0.00000  Uiso   1.00
H903   H     0.23003   0.01764   0.83719   0.00000  Uiso   1.00
H904   H     0.20604   0.47885   0.87486   0.00000  Uiso   1.00
C905   C     0.19002   0.33463   0.54075   0.00000  Uiso   1.00
C906   C     0.24378   0.35931   0.54219   0.00000  Uiso   1.00
C907   C     0.24230   0.39608   0.50681   0.00000  Uiso   1.00
H908   H     0.22830   0.38249   0.96977   0.00000  Uiso   1.00
H909   H     0.21619   0.42159   0.51700   0.00000  Uiso   1.00
H910   H     0.28166   0.41215   0.50742   0.00000  Uiso   1.00
H911   H     0.25663   0.37579   0.57823   0.00000  Uiso   1.00
H912   H     0.27358   0.33623   0.53471   0.00000  Uiso   1.00
H913   H     0.16789   0.33448   0.50424   0.00000  Uiso   1.00
H914   H     0.16688   0.35480   0.56310   0.00000  Uiso   1.00
C915   C     0.14276   0.16359   0.95532   0.00000  Uiso   1.00
C916   C     0.16920   0.13234   0.92251   0.00000  Uiso   1.00
C917   C     0.16994   0.08545   0.94025   0.00000  Uiso   1.00
H918   H     0.19312   0.08563   0.97629   0.00000  Uiso   1.00
H919   H     0.13000   0.07175   0.94222   0.00000  Uiso   1.00
H920   H     0.18767   0.06361   0.91487   0.00000  Uiso   1.00
H921   H     0.14857   0.13016   0.88535   0.00000  Uiso   1.00
H922   H     0.20960   0.14545   0.92141   0.00000  Uiso   1.00
H923   H     0.16399   0.16168   0.99181   0.00000  Uiso   1.00
H924   H     0.10198   0.15136   0.95577   0.00000  Uiso   1.00
C925   C     0.23345   0.31588   0.63965   0.00000  Uiso   1.00
H926   H     0.24328   0.30948   0.67720   0.00000  Uiso   1.00
H927   H     0.27103   0.31650   0.62532   0.00000  Uiso   1.00
H928   H     0.21799   0.34923   0.63930   0.00000  Uiso   1.00
C929   C     0.08708   0.19739   0.86252   0.00000  Uiso   1.00
H930   H     0.05962   0.22310   0.85498   0.00000  Uiso   1.00
H931   H     0.09374   0.17957   0.82903   0.00000  Uiso   1.00
H932   H     0.06726   0.17313   0.88334   0.00000  Uiso   1.00
C933   C     0.09062   0.19187   0.61341   0.00000  Uiso   1.00
C934   C     0.03744   0.21045   0.60120   0.00000  Uiso   1.00
C935   C     0.32869   0.18108   0.61892   0.00000  Uiso   1.00
H936   H     0.00468   0.17625   0.65793   0.00000  Uiso   1.00
H937   H     0.32465   0.14817   0.59892   0.00000  Uiso   1.00
H938   H     0.29161   0.19722   0.61294   0.00000  Uiso   1.00
H939   H     0.03751   0.24458   0.61783   0.00000  Uiso   1.00
H940   H     0.02803   0.21234   0.56165   0.00000  Uiso   1.00
H941   H     0.09014   0.15882   0.59403   0.00000  Uiso   1.00
H942   H     0.09711   0.18566   0.65162   0.00000  Uiso   1.00
C943   C     0.24402   0.30752   0.88551   0.00000  Uiso   1.00
C944   C     0.29882   0.29200   0.89800   0.00000  Uiso   1.00
C945   C     0.00574   0.32458   0.88191   0.00000  Uiso   1.00
H946   H     0.33063   0.32914   0.84276   0.00000  Uiso   1.00
H947   H     0.00586   0.35729   0.90182   0.00000  Uiso   1.00
H948   H     0.04463   0.31163   0.88938   0.00000  Uiso   1.00
H949   H     0.30807   0.28942   0.93745   0.00000  Uiso   1.00
H950   H     0.30160   0.25862   0.88053   0.00000  Uiso   1.00
H951   H     0.23718   0.31358   0.84732   0.00000  Uiso   1.00
H952   H     0.24231   0.34046   0.90413   0.00000  Uiso   1.00
C953   C     0.50266   0.16515   0.74909   0.00000  Uiso   1.00
C954   C     0.49896   0.33526   0.75154   0.00000  Uiso   1.00
C955   C     0.52331   0.28734   0.55849   0.00000  Uiso   1.00
C956   C     0.47892   0.21152   0.94058   0.00000  Uiso   1.00
C957   C     0.52915   0.28254   0.60942   0.00000  Uiso   1.00
C958   C     0.46882   0.21956   0.89076   0.00000  Uiso   1.00
C959   C     0.46592   0.22220   0.59787   0.00000  Uiso   1.00
C960   C     0.53687   0.27578   0.90165   0.00000  Uiso   1.00
C961   C     0.46726   0.22184   0.54788   0.00000  Uiso   1.00
C962   C     0.53761   0.27479   0.95177   0.00000  Uiso   1.00
C963   C     0.50041   0.25090   0.52710   0.00000  Uiso   1.00
C964   C     0.50455   0.24603   0.97276   0.00000  Uiso   1.00
C965   C     0.40142   0.25042   0.73772   0.00000  Uiso   1.00
C966   C     0.59856   0.25084   0.76223   0.00000  Uiso   1.00
C967   C     0.34615   0.25119   0.73085   0.00000  Uiso   1.00
C968   C     0.65378   0.25241   0.76873   0.00000  Uiso   1.00
C969   C     0.48472   0.04760   0.78038   0.00000  Uiso   1.00
C970   C     0.49679   0.45182   0.71277   0.00000  Uiso   1.00
C971   C     0.48128   0.09280   0.77854   0.00000  Uiso   1.00
C972   C     0.49182   0.40603   0.71260   0.00000  Uiso   1.00
C973   C     0.50836   0.11693   0.74768   0.00000  Uiso   1.00
C974   C     0.49957   0.38441   0.75569   0.00000  Uiso   1.00
C975   C     0.54137   0.09491   0.71872   0.00000  Uiso   1.00
C976   C     0.51082   0.41077   0.80038   0.00000  Uiso   1.00
C977   C     0.54895   0.04912   0.72466   0.00000  Uiso   1.00
C978   C     0.52722   0.45618   0.79864   0.00000  Uiso   1.00
C979   C     0.51792   0.02551   0.75374   0.00000  Uiso   1.00
C980   C     0.51606   0.47697   0.75504   0.00000  Uiso   1.00
Cu981  Cu    0.50000   0.24999   0.79821   0.00000  Uiso   1.00
Cu982  Cu    0.50000   0.25000   0.70178   0.00000  Uiso   1.00
H983   H     0.65972   0.25036   0.69431   0.00000  Uiso   1.00
H984   H     0.33999   0.25479   0.80505   0.00000  Uiso   1.00
H985   H     0.46104   0.02950   0.80278   0.00000  Uiso   1.00
H986   H     0.48742   0.46779   0.67935   0.00000  Uiso   1.00
H987   H     0.45537   0.10873   0.80003   0.00000  Uiso   1.00
H988   H     0.48053   0.38751   0.67844   0.00000  Uiso   1.00
H989   H     0.43924   0.19996   0.52513   0.00000  Uiso   1.00
H990   H     0.56641   0.29554   0.97424   0.00000  Uiso   1.00
N991   N     0.50000   0.25001   0.62934   0.00000  Uiso   1.00
N992   N     0.50000   0.24999   0.87065   0.00000  Uiso   1.00
O993   O     0.50000   0.18572   0.79071   0.00000  Uiso   1.00
O994   O     0.50000   0.31427   0.70928   0.00000  Uiso   1.00
O995   O     0.50000   0.18573   0.70928   0.00000  Uiso   1.00
O996   O     0.50000   0.31427   0.79072   0.00000  Uiso   1.00
O997   O     0.42495   0.24999   0.78132   0.00000  Uiso   1.00
O998   O     0.57505   0.25000   0.71868   0.00000  Uiso   1.00
O999   O     0.42495   0.25000   0.69988   0.00000  Uiso   1.00
O1000  O     0.57505   0.25000   0.80011   0.00000  Uiso   1.00
C1001  C     0.56109   0.11685   0.67640   0.00000  Uiso   1.00
C1002  C     0.52103   0.10591   0.63177   0.00000  Uiso   1.00
C1003  C     0.53762   0.12502   0.58675   0.00000  Uiso   1.00
H1004  H     0.54350   0.16164   0.59152   0.00000  Uiso   1.00
H1005  H     0.57363   0.11063   0.57823   0.00000  Uiso   1.00
H1006  H     0.50674   0.11630   0.55625   0.00000  Uiso   1.00
H1007  H     0.51448   0.06932   0.62511   0.00000  Uiso   1.00
H1008  H     0.48371   0.11890   0.63832   0.00000  Uiso   1.00
H1009  H     0.56949   0.15305   0.68326   0.00000  Uiso   1.00
H1010  H     0.59876   0.10524   0.66918   0.00000  Uiso   1.00
C1011  C     0.49954   0.39513   0.84930   0.00000  Uiso   1.00
C1012  C     0.45146   0.41585   0.86459   0.00000  Uiso   1.00
C1013  C     0.44674   0.40826   0.91723   0.00000  Uiso   1.00
H1014  H     0.47939   0.42637   0.94092   0.00000  Uiso   1.00
H1015  H     0.41011   0.42080   0.92662   0.00000  Uiso   1.00
H1016  H     0.44688   0.37233   0.92375   0.00000  Uiso   1.00
H1017  H     0.45275   0.45213   0.85985   0.00000  Uiso   1.00
H1018  H     0.41645   0.40049   0.84164   0.00000  Uiso   1.00
H1019  H     0.49202   0.35942   0.85149   0.00000  Uiso   1.00
H1020  H     0.53337   0.40376   0.87688   0.00000  Uiso   1.00
C1021  C     0.59066   0.02597   0.70141   0.00000  Uiso   1.00
C1022  C     0.64479   0.04102   0.72715   0.00000  Uiso   1.00
C1023  C     0.35325   0.02115   0.70120   0.00000  Uiso   1.00
H1024  H     0.34947   0.48432   0.70065   0.00000  Uiso   1.00
H1025  H     0.35029   0.03177   0.66372   0.00000  Uiso   1.00
H1026  H     0.39185   0.03282   0.72014   0.00000  Uiso   1.00
H1027  H     0.65114   0.07773   0.72927   0.00000  Uiso   1.00
H1028  H     0.64871   0.03015   0.76458   0.00000  Uiso   1.00
H1029  H     0.58660   0.48945   0.70290   0.00000  Uiso   1.00
H1030  H     0.58733   0.03173   0.66248   0.00000  Uiso   1.00
C1031  C     0.55881   0.48158   0.84224   0.00000  Uiso   1.00
C1032  C     0.61341   0.46497   0.85091   0.00000  Uiso   1.00
C1033  C     0.64542   0.48975   0.89450   0.00000  Uiso   1.00
H1034  H     0.64817   0.02598   0.88948   0.00000  Uiso   1.00
H1035  H     0.62762   0.48355   0.92756   0.00000  Uiso   1.00
H1036  H     0.35169   0.47798   0.89899   0.00000  Uiso   1.00
H1037  H     0.61185   0.42889   0.85678   0.00000  Uiso   1.00
H1038  H     0.63311   0.47016   0.81871   0.00000  Uiso   1.00
H1039  H     0.56336   0.01764   0.83719   0.00000  Uiso   1.00
H1040  H     0.53937   0.47885   0.87486   0.00000  Uiso   1.00
C1041  C     0.52335   0.33463   0.54075   0.00000  Uiso   1.00
C1042  C     0.57711   0.35931   0.54219   0.00000  Uiso   1.00
C1043  C     0.57563   0.39608   0.50681   0.00000  Uiso   1.00
H1044  H     0.56163   0.38249   0.96977   0.00000  Uiso   1.00
H1045  H     0.54952   0.42159   0.51700   0.00000  Uiso   1.00
H1046  H     0.61499   0.41215   0.50742   0.00000  Uiso   1.00
H1047  H     0.58996   0.37579   0.57823   0.00000  Uiso   1.00
H1048  H     0.60691   0.33623   0.53471   0.00000  Uiso   1.00
H1049  H     0.50122   0.33448   0.50424   0.00000  Uiso   1.00
H1050  H     0.50022   0.35480   0.56310   0.00000  Uiso   1.00
C1051  C     0.47609   0.16359   0.95532   0.00000  Uiso   1.00
C1052  C     0.50253   0.13234   0.92251   0.00000  Uiso   1.00
C1053  C     0.50328   0.08545   0.94025   0.00000  Uiso   1.00
H1054  H     0.52645   0.08563   0.97629   0.00000  Uiso   1.00
H1055  H     0.46333   0.07175   0.94222   0.00000  Uiso   1.00
H1056  H     0.52100   0.06361   0.91487   0.00000  Uiso   1.00
H1057  H     0.48190   0.13016   0.88535   0.00000  Uiso   1.00
H1058  H     0.54294   0.14545   0.92141   0.00000  Uiso   1.00
H1059  H     0.49732   0.16168   0.99181   0.00000  Uiso   1.00
H1060  H     0.43531   0.15136   0.95577   0.00000  Uiso   1.00
C1061  C     0.56678   0.31588   0.63965   0.00000  Uiso   1.00
H1062  H     0.57661   0.30948   0.67720   0.00000  Uiso   1.00
H1063  H     0.60437   0.31650   0.62532   0.00000  Uiso   1.00
H1064  H     0.55132   0.34923   0.63930   0.00000  Uiso   1.00
C1065  C     0.42042   0.19739   0.86252   0.00000  Uiso   1.00
H1066  H     0.39295   0.22310   0.85498   0.00000  Uiso   1.00
H1067  H     0.42707   0.17957   0.82903   0.00000  Uiso   1.00
H1068  H     0.40059   0.17313   0.88334   0.00000  Uiso   1.00
C1069  C     0.42395   0.19187   0.61341   0.00000  Uiso   1.00
C1070  C     0.37078   0.21045   0.60120   0.00000  Uiso   1.00
C1071  C     0.66202   0.18108   0.61892   0.00000  Uiso   1.00
H1072  H     0.33801   0.17625   0.65793   0.00000  Uiso   1.00
H1073  H     0.65798   0.14817   0.59892   0.00000  Uiso   1.00
H1074  H     0.62494   0.19722   0.61294   0.00000  Uiso   1.00
H1075  H     0.37085   0.24458   0.61783   0.00000  Uiso   1.00
H1076  H     0.36136   0.21234   0.56165   0.00000  Uiso   1.00
H1077  H     0.42348   0.15882   0.59403   0.00000  Uiso   1.00
H1078  H     0.43044   0.18566   0.65162   0.00000  Uiso   1.00
C1079  C     0.57735   0.30752   0.88551   0.00000  Uiso   1.00
C1080  C     0.63215   0.29200   0.89800   0.00000  Uiso   1.00
C1081  C     0.33908   0.32458   0.88191   0.00000  Uiso   1.00
H1082  H     0.66396   0.32914   0.84276   0.00000  Uiso   1.00
H1083  H     0.33919   0.35729   0.90182   0.00000  Uiso   1.00
H1084  H     0.37797   0.31163   0.88938   0.00000  Uiso   1.00
H1085  H     0.64141   0.28942   0.93745   0.00000  Uiso   1.00
H1086  H     0.63493   0.25862   0.88053   0.00000  Uiso   1.00
H1087  H     0.57051   0.31358   0.84732   0.00000  Uiso   1.00
H1088  H     0.57564   0.34046   0.90413   0.00000  Uiso   1.00
C1089  C     0.83600   0.16515   0.74909   0.00000  Uiso   1.00
C1090  C     0.83229   0.33526   0.75154   0.00000  Uiso   1.00
C1091  C     0.85664   0.28734   0.55849   0.00000  Uiso   1.00
C1092  C     0.81225   0.21152   0.94058   0.00000  Uiso   1.00
C1093  C     0.86248   0.28254   0.60942   0.00000  Uiso   1.00
C1094  C     0.80215   0.21956   0.89076   0.00000  Uiso   1.00
C1095  C     0.79925   0.22220   0.59787   0.00000  Uiso   1.00
C1096  C     0.87020   0.27578   0.90165   0.00000  Uiso   1.00
C1097  C     0.80060   0.22184   0.54788   0.00000  Uiso   1.00
C1098  C     0.87095   0.27479   0.95177   0.00000  Uiso   1.00
C1099  C     0.83375   0.25090   0.52710   0.00000  Uiso   1.00
C1100  C     0.83788   0.24603   0.97276   0.00000  Uiso   1.00
C1101  C     0.73476   0.25042   0.73772   0.00000  Uiso   1.00
C1102  C     0.93190   0.25084   0.76223   0.00000  Uiso   1.00
C1103  C     0.67948   0.25119   0.73085   0.00000  Uiso   1.00
C1104  C     0.98712   0.25241   0.76873   0.00000  Uiso   1.00
C1105  C     0.81805   0.04760   0.78038   0.00000  Uiso   1.00
C1106  C     0.83013   0.45182   0.71277   0.00000  Uiso   1.00
C1107  C     0.81461   0.09280   0.77854   0.00000  Uiso   1.00
C1108  C     0.82516   0.40603   0.71260   0.00000  Uiso   1.00
C1109  C     0.84170   0.11693   0.74768   0.00000  Uiso   1.00
C1110  C     0.83291   0.38441   0.75569   0.00000  Uiso   1.00
C1111  C     0.87470   0.09491   0.71872   0.00000  Uiso   1.00
C1112  C     0.84415   0.41077   0.80038   0.00000  Uiso   1.00
C1113  C     0.88228   0.04912   0.72466   0.00000  Uiso   1.00
C1114  C     0.86055   0.45618   0.79864   0.00000  Uiso   1.00
C1115  C     0.85125   0.02551   0.75374   0.00000  Uiso   1.00
C1116  C     0.84939   0.47697   0.75504   0.00000  Uiso   1.00
Cu1117 Cu    0.83333   0.24999   0.79821   0.00000  Uiso   1.00
Cu1118 Cu    0.83333   0.25000   0.70178   0.00000  Uiso   1.00
H1119  H     0.99306   0.25036   0.69431   0.00000  Uiso   1.00
H1120  H     0.67333   0.25479   0.80505   0.00000  Uiso   1.00
H1121  H     0.79437   0.02950   0.80278   0.00000  Uiso   1.00
H1122  H     0.82075   0.46779   0.67935   0.00000  Uiso   1.00
H1123  H     0.78871   0.10873   0.80003   0.00000  Uiso   1.00
H1124  H     0.81386   0.38751   0.67844   0.00000  Uiso   1.00
H1125  H     0.77257   0.19996   0.52513   0.00000  Uiso   1.00
H1126  H     0.89974   0.29554   0.97424   0.00000  Uiso   1.00
N1127  N     0.83333   0.25001   0.62934   0.00000  Uiso   1.00
N1128  N     0.83333   0.24999   0.87065   0.00000  Uiso   1.00
O1129  O     0.83334   0.18572   0.79071   0.00000  Uiso   1.00
O1130  O     0.83333   0.31427   0.70928   0.00000  Uiso   1.00
O1131  O     0.83334   0.18573   0.70928   0.00000  Uiso   1.00
O1132  O     0.83333   0.31427   0.79072   0.00000  Uiso   1.00
O1133  O     0.75828   0.24999   0.78132   0.00000  Uiso   1.00
O1134  O     0.90839   0.25000   0.71868   0.00000  Uiso   1.00
O1135  O     0.75828   0.25000   0.69988   0.00000  Uiso   1.00
O1136  O     0.90839   0.25000   0.80011   0.00000  Uiso   1.00
C1137  C     0.89442   0.11685   0.67640   0.00000  Uiso   1.00
C1138  C     0.85437   0.10591   0.63177   0.00000  Uiso   1.00
C1139  C     0.87096   0.12502   0.58675   0.00000  Uiso   1.00
H1140  H     0.87684   0.16164   0.59152   0.00000  Uiso   1.00
H1141  H     0.90697   0.11063   0.57823   0.00000  Uiso   1.00
H1142  H     0.84007   0.11630   0.55625   0.00000  Uiso   1.00
H1143  H     0.84782   0.06932   0.62511   0.00000  Uiso   1.00
H1144  H     0.81704   0.11890   0.63832   0.00000  Uiso   1.00
H1145  H     0.90282   0.15305   0.68326   0.00000  Uiso   1.00
H1146  H     0.93210   0.10524   0.66918   0.00000  Uiso   1.00
C1147  C     0.83288   0.39513   0.84930   0.00000  Uiso   1.00
C1148  C     0.78480   0.41585   0.86459   0.00000  Uiso   1.00
C1149  C     0.78007   0.40826   0.91723   0.00000  Uiso   1.00
H1150  H     0.81272   0.42637   0.94092   0.00000  Uiso   1.00
H1151  H     0.74344   0.42080   0.92662   0.00000  Uiso   1.00
H1152  H     0.78021   0.37233   0.92375   0.00000  Uiso   1.00
H1153  H     0.78609   0.45213   0.85985   0.00000  Uiso   1.00
H1154  H     0.74978   0.40049   0.84164   0.00000  Uiso   1.00
H1155  H     0.82535   0.35942   0.85149   0.00000  Uiso   1.00
H1156  H     0.86671   0.40376   0.87688   0.00000  Uiso   1.00
C1157  C     0.92399   0.02597   0.70141   0.00000  Uiso   1.00
C1158  C     0.97812   0.04102   0.72715   0.00000  Uiso   1.00
C1159  C     0.68658   0.02115   0.70120   0.00000  Uiso   1.00
H1160  H     0.68280   0.48432   0.70065   0.00000  Uiso   1.00
H1161  H     0.68363   0.03177   0.66372   0.00000  Uiso   1.00
H1162  H     0.72519   0.03282   0.72014   0.00000  Uiso   1.00
H1163  H     0.98448   0.07773   0.72927   0.00000  Uiso   1.00
H1164  H     0.98204   0.03015   0.76458   0.00000  Uiso   1.00
H1165  H     0.91993   0.48945   0.70290   0.00000  Uiso   1.00
H1166  H     0.92067   0.03173   0.66248   0.00000  Uiso   1.00
C1167  C     0.89214   0.48158   0.84224   0.00000  Uiso   1.00
C1168  C     0.94674   0.46497   0.85091   0.00000  Uiso   1.00
C1169  C     0.97875   0.48975   0.89450   0.00000  Uiso   1.00
H1170  H     0.98150   0.02598   0.88948   0.00000  Uiso   1.00
H1171  H     0.96095   0.48355   0.92756   0.00000  Uiso   1.00
H1172  H     0.68502   0.47798   0.89899   0.00000  Uiso   1.00
H1173  H     0.94518   0.42889   0.85678   0.00000  Uiso   1.00
H1174  H     0.96645   0.47016   0.81871   0.00000  Uiso   1.00
H1175  H     0.89669   0.01764   0.83719   0.00000  Uiso   1.00
H1176  H     0.87270   0.47885   0.87486   0.00000  Uiso   1.00
C1177  C     0.85668   0.33463   0.54075   0.00000  Uiso   1.00
C1178  C     0.91044   0.35931   0.54219   0.00000  Uiso   1.00
C1179  C     0.90897   0.39608   0.50681   0.00000  Uiso   1.00
H1180  H     0.89497   0.38249   0.96977   0.00000  Uiso   1.00
H1181  H     0.88286   0.42159   0.51700   0.00000  Uiso   1.00
H1182  H     0.94833   0.41215   0.50742   0.00000  Uiso   1.00
H1183  H     0.92329   0.37579   0.57823   0.00000  Uiso   1.00
H1184  H     0.94025   0.33623   0.53471   0.00000  Uiso   1.00
H1185  H     0.83455   0.33448   0.50424   0.00000  Uiso   1.00
H1186  H     0.83355   0.35480   0.56310   0.00000  Uiso   1.00
C1187  C     0.80942   0.16359   0.95532   0.00000  Uiso   1.00
C1188  C     0.83586   0.13234   0.92251   0.00000  Uiso   1.00
C1189  C     0.83661   0.08545   0.94025   0.00000  Uiso   1.00
H1190  H     0.85978   0.08563   0.97629   0.00000  Uiso   1.00
H1191  H     0.79667   0.07175   0.94222   0.00000  Uiso   1.00
H1192  H     0.85434   0.06361   0.91487   0.00000  Uiso   1.00
H1193  H     0.81524   0.13016   0.88535   0.00000  Uiso   1.00
H1194  H     0.87627   0.14545   0.92141   0.00000  Uiso   1.00
H1195  H     0.83066   0.16168   0.99181   0.00000  Uiso   1.00
H1196  H     0.76865   0.15136   0.95577   0.00000  Uiso   1.00
C1197  C     0.90011   0.31588   0.63965   0.00000  Uiso   1.00
H1198  H     0.90994   0.30948   0.67720   0.00000  Uiso   1.00
H1199  H     0.93770   0.31650   0.62532   0.00000  Uiso   1.00
H1200  H     0.88465   0.34923   0.63930   0.00000  Uiso   1.00
C1201  C     0.75375   0.19739   0.86252   0.00000  Uiso   1.00
H1202  H     0.72629   0.22310   0.85498   0.00000  Uiso   1.00
H1203  H     0.76040   0.17957   0.82903   0.00000  Uiso   1.00
H1204  H     0.73392   0.17313   0.88334   0.00000  Uiso   1.00
C1205  C     0.75729   0.19187   0.61341   0.00000  Uiso   1.00
C1206  C     0.70411   0.21045   0.60120   0.00000  Uiso   1.00
C1207  C     0.99535   0.18108   0.61892   0.00000  Uiso   1.00
H1208  H     0.67134   0.17625   0.65793   0.00000  Uiso   1.00
H1209  H     0.99131   0.14817   0.59892   0.00000  Uiso   1.00
H1210  H     0.95828   0.19722   0.61294   0.00000  Uiso   1.00
H1211  H     0.70418   0.24458   0.61783   0.00000  Uiso   1.00
H1212  H     0.69469   0.21234   0.56165   0.00000  Uiso   1.00
H1213  H     0.75681   0.15882   0.59403   0.00000  Uiso   1.00
H1214  H     0.76378   0.18566   0.65162   0.00000  Uiso   1.00
C1215  C     0.91069   0.30752   0.88551   0.00000  Uiso   1.00
C1216  C     0.96549   0.29200   0.89800   0.00000  Uiso   1.00
C1217  C     0.67241   0.32458   0.88191   0.00000  Uiso   1.00
H1218  H     0.99729   0.32914   0.84276   0.00000  Uiso   1.00
H1219  H     0.67252   0.35729   0.90182   0.00000  Uiso   1.00
H1220  H     0.71130   0.31163   0.88938   0.00000  Uiso   1.00
H1221  H     0.97474   0.28942   0.93745   0.00000  Uiso   1.00
H1222  H     0.96826   0.25862   0.88053   0.00000  Uiso   1.00
H1223  H     0.90384   0.31358   0.84732   0.00000  Uiso   1.00
H1224  H     0.90897   0.34046   0.90413   0.00000  Uiso   1.00
C1225  C     0.16933   0.66515   0.74909   0.00000  Uiso   1.00
C1226  C     0.16562   0.83526   0.75154   0.00000  Uiso   1.00
C1227  C     0.18997   0.78734   0.55849   0.00000  Uiso   1.00
C1228  C     0.14559   0.71152   0.94058   0.00000  Uiso   1.00
C1229  C     0.19582   0.78254   0.60942   0.00000  Uiso   1.00
C1230  C     0.13548   0.71956   0.89076   0.00000  Uiso   1.00
C1231  C     0.13258   0.72220   0.59787   0.00000  Uiso   1.00
C1232  C     0.20353   0.77578   0.90165   0.00000  Uiso   1.00
C1233  C     0.13393   0.72184   0.54788   0.00000  Uiso   1.00
C1234  C     0.20428   0.77479   0.95177   0.00000  Uiso   1.00
C1235  C     0.16708   0.75090   0.52710   0.00000  Uiso   1.00
C1236  C     0.17121   0.74603   0.97276   0.00000  Uiso   1.00
C1237  C     0.06809   0.75042   0.73772   0.00000  Uiso   1.00
C1238  C     0.26523   0.75084   0.76223   0.00000  Uiso   1.00
C1239  C     0.01282   0.75119   0.73085   0.00000  Uiso   1.00
C1240  C     0.32045   0.75241   0.76873   0.00000  Uiso   1.00
C1241  C     0.15138   0.54760   0.78038   0.00000  Uiso   1.00
C1242  C     0.16346   0.95182   0.71277   0.00000  Uiso   1.00
C1243  C     0.14794   0.59280   0.77854   0.00000  Uiso   1.00
C1244  C     0.15849   0.90603   0.71260   0.00000  Uiso   1.00
C1245  C     0.17503   0.61693   0.74768   0.00000  Uiso   1.00
C1246  C     0.16624   0.88441   0.75569   0.00000  Uiso   1.00
C1247  C     0.20803   0.59491   0.71872   0.00000  Uiso   1.00
C1248  C     0.17748   0.91077   0.80038   0.00000  Uiso   1.00
C1249  C     0.21561   0.54912   0.72466   0.00000  Uiso   1.00
C1250  C     0.19389   0.95618   0.79864   0.00000  Uiso   1.00
C1251  C     0.18459   0.52551   0.75374   0.00000  Uiso   1.00
C1252  C     0.18273   0.97697   0.75504   0.00000  Uiso   1.00
Cu1253 Cu    0.16667   0.74999   0.79821   0.00000  Uiso   1.00
Cu1254 Cu    0.16667   0.75000   0.70178   0.00000  Uiso   1.00
H1255  H     0.32639   0.75036   0.69431   0.00000  Uiso   1.00
H1256  H     0.00666   0.75479   0.80505   0.00000  Uiso   1.00
H1257  H     0.12771   0.52950   0.80278   0.00000  Uiso   1.00
H1258  H     0.15409   0.96779   0.67935   0.00000  Uiso   1.00
H1259  H     0.12204   0.60873   0.80003   0.00000  Uiso   1.00
H1260  H     0.14719   0.88751   0.67844   0.00000  Uiso   1.00
H1261  H     0.10591   0.69996   0.52513   0.00000  Uiso   1.00
H1262  H     0.23308   0.79554   0.97424   0.00000  Uiso   1.00
N1263  N     0.16667   0.75001   0.62934   0.00000  Uiso   1.00
N1264  N     0.16667   0.74999   0.87065   0.00000  Uiso   1.00
O1265  O     0.16667   0.68572   0.79071   0.00000  Uiso   1.00
O1266  O     0.16666   0.81427   0.70928   0.00000  Uiso   1.00
O1267  O     0.16667   0.68573   0.70928   0.00000  Uiso   1.00
O1268  O     0.16666   0.81427   0.79072   0.00000  Uiso   1.00
O1269  O     0.09161   0.74999   0.78132   0.00000  Uiso   1.00
O1270  O     0.24172   0.75000   0.71868   0.00000  Uiso   1.00
O1271  O     0.09161   0.75000   0.69988   0.00000  Uiso   1.00
O1272  O     0.24172   0.75000   0.80011   0.00000  Uiso   1.00
C1273  C     0.22775   0.61685   0.67640   0.00000  Uiso   1.00
C1274  C     0.18770   0.60591   0.63177   0.00000  Uiso   1.00
C1275  C     0.20429   0.62502   0.58675   0.00000  Uiso   1.00
H1276  H     0.21017   0.66164   0.59152   0.00000  Uiso   1.00
H1277  H     0.24030   0.61063   0.57823   0.00000  Uiso   1.00
H1278  H     0.17341   0.61630   0.55625   0.00000  Uiso   1.00
H1279  H     0.18115   0.56932   0.62511   0.00000  Uiso   1.00
H1280  H     0.15037   0.61890   0.63832   0.00000  Uiso   1.00
H1281  H     0.23615   0.65305   0.68326   0.00000  Uiso   1.00
H1282  H     0.26543   0.60524   0.66918   0.00000  Uiso   1.00
C1283  C     0.16621   0.89513   0.84930   0.00000  Uiso   1.00
C1284  C     0.11813   0.91585   0.86459   0.00000  Uiso   1.00
C1285  C     0.11340   0.90826   0.91723   0.00000  Uiso   1.00
H1286  H     0.14606   0.92637   0.94092   0.00000  Uiso   1.00
H1287  H     0.07678   0.92080   0.92662   0.00000  Uiso   1.00
H1288  H     0.11355   0.87233   0.92375   0.00000  Uiso   1.00
H1289  H     0.11942   0.95213   0.85985   0.00000  Uiso   1.00
H1290  H     0.08311   0.90049   0.84164   0.00000  Uiso   1.00
H1291  H     0.15868   0.85942   0.85149   0.00000  Uiso   1.00
H1292  H     0.20004   0.90376   0.87688   0.00000  Uiso   1.00
C1293  C     0.25732   0.52597   0.70141   0.00000  Uiso   1.00
C1294  C     0.31145   0.54102   0.72715   0.00000  Uiso   1.00
C1295  C     0.01992   0.52115   0.70120   0.00000  Uiso   1.00
H1296  H     0.01613   0.98432   0.70065   0.00000  Uiso   1.00
H1297  H     0.01696   0.53177   0.66372   0.00000  Uiso   1.00
H1298  H     0.05852   0.53282   0.72014   0.00000  Uiso   1.00
H1299  H     0.31781   0.57773   0.72927   0.00000  Uiso   1.00
H1300  H     0.31537   0.53015   0.76458   0.00000  Uiso   1.00
H1301  H     0.25326   0.98945   0.70290   0.00000  Uiso   1.00
H1302  H     0.25400   0.53173   0.66248   0.00000  Uiso   1.00
C1303  C     0.22547   0.98158   0.84224   0.00000  Uiso   1.00
C1304  C     0.28008   0.96497   0.85091   0.00000  Uiso   1.00
C1305  C     0.31208   0.98975   0.89450   0.00000  Uiso   1.00
H1306  H     0.31483   0.52598   0.88948   0.00000  Uiso   1.00
H1307  H     0.29429   0.98355   0.92756   0.00000  Uiso   1.00
H1308  H     0.01836   0.97798   0.89899   0.00000  Uiso   1.00
H1309  H     0.27851   0.92889   0.85678   0.00000  Uiso   1.00
H1310  H     0.29978   0.97016   0.81871   0.00000  Uiso   1.00
H1311  H     0.23003   0.51764   0.83719   0.00000  Uiso   1.00
H1312  H     0.20604   0.97885   0.87486   0.00000  Uiso   1.00
C1313  C     0.19002   0.83463   0.54075   0.00000  Uiso   1.00
C1314  C     0.24378   0.85931   0.54219   0.00000  Uiso   1.00
C1315  C     0.24230   0.89608   0.50681   0.00000  Uiso   1.00
H1316  H     0.22830   0.88249   0.96977   0.00000  Uiso   1.00
H1317  H     0.21619   0.92159   0.51700   0.00000  Uiso   1.00
H1318  H     0.28166   0.91215   0.50742   0.00000  Uiso   1.00
H1319  H     0.25663   0.87579   0.57823   0.00000  Uiso   1.00
H1320  H     0.27358   0.83623   0.53471   0.00000  Uiso   1.00
H1321  H     0.16789   0.83448   0.50424   0.00000  Uiso   1.00
H1322  H     0.16688   0.85480   0.56310   0.00000  Uiso   1.00
C1323  C     0.14276   0.66359   0.95532   0.00000  Uiso   1.00
C1324  C     0.16920   0.63234   0.92251   0.00000  Uiso   1.00
C1325  C     0.16994   0.58545   0.94025   0.00000  Uiso   1.00
H1326  H     0.19312   0.58563   0.97629   0.00000  Uiso   1.00
H1327  H     0.13000   0.57175   0.94222   0.00000  Uiso   1.00
H1328  H     0.18767   0.56361   0.91487   0.00000  Uiso   1.00
H1329  H     0.14857   0.63016   0.88535   0.00000  Uiso   1.00
H1330  H     0.20960   0.64545   0.92141   0.00000  Uiso   1.00
H1331  H     0.16399   0.66168   0.99181   0.00000  Uiso   1.00
H1332  H     0.10198   0.65136   0.95577   0.00000  Uiso   1.00
C1333  C     0.23345   0.81588   0.63965   0.00000  Uiso   1.00
H1334  H     0.24328   0.80948   0.67720   0.00000  Uiso   1.00
H1335  H     0.27103   0.81650   0.62532   0.00000  Uiso   1.00
H1336  H     0.21799   0.84923   0.63930   0.00000  Uiso   1.00
C1337  C     0.08708   0.69739   0.86252   0.00000  Uiso   1.00
H1338  H     0.05962   0.72310   0.85498   0.00000  Uiso   1.00
H1339  H     0.09374   0.67957   0.82903   0.00000  Uiso   1.00
H1340  H     0.06726   0.67313   0.88334   0.00000  Uiso   1.00
C1341  C     0.09062   0.69187   0.61341   0.00000  Uiso   1.00
C1342  C     0.03744   0.71045   0.60120   0.00000  Uiso   1.00
C1343  C     0.32869   0.68108   0.61892   0.00000  Uiso   1.00
H1344  H     0.00468   0.67625   0.65793   0.00000  Uiso   1.00
H1345  H     0.32465   0.64817   0.59892   0.00000  Uiso   1.00
H1346  H     0.29161   0.69722   0.61294   0.00000  Uiso   1.00
H1347  H     0.03751   0.74458   0.61783   0.00000  Uiso   1.00
H1348  H     0.02803   0.71234   0.56165   0.00000  Uiso   1.00
H1349  H     0.09014   0.65882   0.59403   0.00000  Uiso   1.00
H1350  H     0.09711   0.68566   0.65162   0.00000  Uiso   1.00
C1351  C     0.24402   0.80752   0.88551   0.00000  Uiso   1.00
C1352  C     0.29882   0.79200   0.89800   0.00000  Uiso   1.00
C1353  C     0.00574   0.82458   0.88191   0.00000  Uiso   1.00
H1354  H     0.33063   0.82914   0.84276   0.00000  Uiso   1.00
H1355  H     0.00586   0.85729   0.90182   0.00000  Uiso   1.00
H1356  H     0.04463   0.81163   0.88938   0.00000  Uiso   1.00
H1357  H     0.30807   0.78942   0.93745   0.00000  Uiso   1.00
H1358  H     0.30160   0.75862   0.88053   0.00000  Uiso   1.00
H1359  H     0.23718   0.81358   0.84732   0.00000  Uiso   1.00
H1360  H     0.24231   0.84046   0.90413   0.00000  Uiso   1.00
C1361  C     0.50266   0.66515   0.74909   0.00000  Uiso   1.00
C1362  C     0.49896   0.83526   0.75154   0.00000  Uiso   1.00
C1363  C     0.52331   0.78734   0.55849   0.00000  Uiso   1.00
C1364  C     0.47892   0.71152   0.94058   0.00000  Uiso   1.00
C1365  C     0.52915   0.78254   0.60942   0.00000  Uiso   1.00
C1366  C     0.46882   0.71956   0.89076   0.00000  Uiso   1.00
C1367  C     0.46592   0.72220   0.59787   0.00000  Uiso   1.00
C1368  C     0.53687   0.77578   0.90165   0.00000  Uiso   1.00
C1369  C     0.46726   0.72184   0.54788   0.00000  Uiso   1.00
C1370  C     0.53761   0.77479   0.95177   0.00000  Uiso   1.00
C1371  C     0.50041   0.75090   0.52710   0.00000  Uiso   1.00
C1372  C     0.50455   0.74603   0.97276   0.00000  Uiso   1.00
C1373  C     0.40142   0.75042   0.73772   0.00000  Uiso   1.00
C1374  C     0.59856   0.75084   0.76223   0.00000  Uiso   1.00
C1375  C     0.34615   0.75119   0.73085   0.00000  Uiso   1.00
C1376  C     0.65378   0.75241   0.76873   0.00000  Uiso   1.00
C1377  C     0.48472   0.54760   0.78038   0.00000  Uiso   1.00
C1378  C     0.49679   0.95182   0.71277   0.00000  Uiso   1.00
C1379  C     0.48128   0.59280   0.77854   0.00000  Uiso   1.00
C1380  C     0.49182   0.90603   0.71260   0.00000  Uiso   1.00
C1381  C     0.50836   0.61693   0.74768   0.00000  Uiso   1.00
C1382  C     0.49957   0.88441   0.75569   0.00000  Uiso   1.00
C1383  C     0.54137   0.59491   0.71872   0.00000  Uiso   1.00
C1384  C     0.51082   0.91077   0.80038   0.00000  Uiso   1.00
C1385  C     0.54895   0.54912   0.72466   0.00000  Uiso   1.00
C1386  C     0.52722   0.95618   0.79864   0.00000  Uiso   1.00
C1387  C     0.51792   0.52551   0.75374   0.00000  Uiso   1.00
C1388  C     0.51606   0.97697   0.75504   0.00000  Uiso   1.00
Cu1389 Cu    0.50000   0.74999   0.79821   0.00000  Uiso   1.00
Cu1390 Cu    0.50000   0.75000   0.70178   0.00000  Uiso   1.00
H1391  H     0.65972   0.75036   0.69431   0.00000  Uiso   1.00
H1392  H     0.33999   0.75479   0.80505   0.00000  Uiso   1.00
H1393  H     0.46104   0.52950   0.80278   0.00000  Uiso   1.00
H1394  H     0.48742   0.96779   0.67935   0.00000  Uiso   1.00
H1395  H     0.45537   0.60873   0.80003   0.00000  Uiso   1.00
H1396  H     0.48053   0.88751   0.67844   0.00000  Uiso   1.00
H1397  H     0.43924   0.69996   0.52513   0.00000  Uiso   1.00
H1398  H     0.56641   0.79554   0.97424   0.00000  Uiso   1.00
N1399  N     0.50000   0.75001   0.62934   0.00000  Uiso   1.00
N1400  N     0.50000   0.74999   0.87065   0.00000  Uiso   1.00
O1401  O     0.50000   0.68572   0.79071   0.00000  Uiso   1.00
O1402  O     0.50000   0.81427   0.70928   0.00000  Uiso   1.00
O1403  O     0.50000   0.68573   0.70928   0.00000  Uiso   1.00
O1404  O     0.50000   0.81427   0.79072   0.00000  Uiso   1.00
O1405  O     0.42495   0.74999   0.78132   0.00000  Uiso   1.00
O1406  O     0.57505   0.75000   0.71868   0.00000  Uiso   1.00
O1407  O     0.42495   0.75000   0.69988   0.00000  Uiso   1.00
O1408  O     0.57505   0.75000   0.80011   0.00000  Uiso   1.00
C1409  C     0.56109   0.61685   0.67640   0.00000  Uiso   1.00
C1410  C     0.52103   0.60591   0.63177   0.00000  Uiso   1.00
C1411  C     0.53762   0.62502   0.58675   0.00000  Uiso   1.00
H1412  H     0.54350   0.66164   0.59152   0.00000  Uiso   1.00
H1413  H     0.57363   0.61063   0.57823   0.00000  Uiso   1.00
H1414  H     0.50674   0.61630   0.55625   0.00000  Uiso   1.00
H1415  H     0.51448   0.56932   0.62511   0.00000  Uiso   1.00
H1416  H     0.48371   0.61890   0.63832   0.00000  Uiso   1.00
H1417  H     0.56949   0.65305   0.68326   0.00000  Uiso   1.00
H1418  H     0.59876   0.60524   0.66918   0.00000  Uiso   1.00
C1419  C     0.49954   0.89513   0.84930   0.00000  Uiso   1.00
C1420  C     0.45146   0.91585   0.86459   0.00000  Uiso   1.00
C1421  C     0.44674   0.90826   0.91723   0.00000  Uiso   1.00
H1422  H     0.47939   0.92637   0.94092   0.00000  Uiso   1.00
H1423  H     0.41011   0.92080   0.92662   0.00000  Uiso   1.00
H1424  H     0.44688   0.87233   0.92375   0.00000  Uiso   1.00
H1425  H     0.45275   0.95213   0.85985   0.00000  Uiso   1.00
H1426  H     0.41645   0.90049   0.84164   0.00000  Uiso   1.00
H1427  H     0.49202   0.85942   0.85149   0.00000  Uiso   1.00
H1428  H     0.53337   0.90376   0.87688   0.00000  Uiso   1.00
C1429  C     0.59066   0.52597   0.70141   0.00000  Uiso   1.00
C1430  C     0.64479   0.54102   0.72715   0.00000  Uiso   1.00
C1431  C     0.35325   0.52115   0.70120   0.00000  Uiso   1.00
H1432  H     0.34947   0.98432   0.70065   0.00000  Uiso   1.00
H1433  H     0.35029   0.53177   0.66372   0.00000  Uiso   1.00
H1434  H     0.39185   0.53282   0.72014   0.00000  Uiso   1.00
H1435  H     0.65114   0.57773   0.72927   0.00000  Uiso   1.00
H1436  H     0.64871   0.53015   0.76458   0.00000  Uiso   1.00
H1437  H     0.58660   0.98945   0.70290   0.00000  Uiso   1.00
H1438  H     0.58733   0.53173   0.66248   0.00000  Uiso   1.00
C1439  C     0.55881   0.98158   0.84224   0.00000  Uiso   1.00
C1440  C     0.61341   0.96497   0.85091   0.00000  Uiso   1.00
C1441  C     0.64542   0.98975   0.89450   0.00000  Uiso   1.00
H1442  H     0.64817   0.52598   0.88948   0.00000  Uiso   1.00
H1443  H     0.62762   0.98355   0.92756   0.00000  Uiso   1.00
H1444  H     0.35169   0.97798   0.89899   0.00000  Uiso   1.00
H1445  H     0.61185   0.92889   0.85678   0.00000  Uiso   1.00
H1446  H     0.63311   0.97016   0.81871   0.00000  Uiso   1.00
H1447  H     0.56336   0.51764   0.83719   0.00000  Uiso   1.00
H1448  H     0.53937   0.97885   0.87486   0.00000  Uiso   1.00
C1449  C     0.52335   0.83463   0.54075   0.00000  Uiso   1.00
C1450  C     0.57711   0.85931   0.54219   0.00000  Uiso   1.00
C1451  C     0.57563   0.89608   0.50681   0.00000  Uiso   1.00
H1452  H     0.56163   0.88249   0.96977   0.00000  Uiso   1.00
H1453  H     0.54952   0.92159   0.51700   0.00000  Uiso   1.00
H1454  H     0.61499   0.91215   0.50742   0.00000  Uiso   1.00
H1455  H     0.58996   0.87579   0.57823   0.00000  Uiso   1.00
H1456  H     0.60691   0.83623   0.53471   0.00000  Uiso   1.00
H1457  H     0.50122   0.83448   0.50424   0.00000  Uiso   1.00
H1458  H     0.50022   0.85480   0.56310   0.00000  Uiso   1.00
C1459  C     0.47609   0.66359   0.95532   0.00000  Uiso   1.00
C1460  C     0.50253   0.63234   0.92251   0.00000  Uiso   1.00
C1461  C     0.50328   0.58545   0.94025   0.00000  Uiso   1.00
H1462  H     0.52645   0.58563   0.97629   0.00000  Uiso   1.00
H1463  H     0.46333   0.57175   0.94222   0.00000  Uiso   1.00
H1464  H     0.52100   0.56361   0.91487   0.00000  Uiso   1.00
H1465  H     0.48190   0.63016   0.88535   0.00000  Uiso   1.00
H1466  H     0.54294   0.64545   0.92141   0.00000  Uiso   1.00
H1467  H     0.49732   0.66168   0.99181   0.00000  Uiso   1.00
H1468  H     0.43531   0.65136   0.95577   0.00000  Uiso   1.00
C1469  C     0.56678   0.81588   0.63965   0.00000  Uiso   1.00
H1470  H     0.57661   0.80948   0.67720   0.00000  Uiso   1.00
H1471  H     0.60437   0.81650   0.62532   0.00000  Uiso   1.00
H1472  H     0.55132   0.84923   0.63930   0.00000  Uiso   1.00
C1473  C     0.42042   0.69739   0.86252   0.00000  Uiso   1.00
H1474  H     0.39295   0.72310   0.85498   0.00000  Uiso   1.00
H1475  H     0.42707   0.67957   0.82903   0.00000  Uiso   1.00
H1476  H     0.40059   0.67313   0.88334   0.00000  Uiso   1.00
C1477  C     0.42395   0.69187   0.61341   0.00000  Uiso   1.00
C1478  C     0.37078   0.71045   0.60120   0.00000  Uiso   1.00
C1479  C     0.66202   0.68108   0.61892   0.00000  Uiso   1.00
H1480  H     0.33801   0.67625   0.65793   0.00000  Uiso   1.00
H1481  H     0.65798   0.64817   0.59892   0.00000  Uiso   1.00
H1482  H     0.62494   0.69722   0.61294   0.00000  Uiso   1.00
H1483  H     0.37085   0.74458   0.61783   0.00000  Uiso   1.00
H1484  H     0.36136   0.71234   0.56165   0.00000  Uiso   1.00
H1485  H     0.42348   0.65882   0.59403   0.00000  Uiso   1.00
H1486  H     0.43044   0.68566   0.65162   0.00000  Uiso   1.00
C1487  C     0.57735   0.80752   0.88551   0.00000  Uiso   1.00
C1488  C     0.63215   0.79200   0.89800   0.00000  Uiso   1.00
C1489  C     0.33908   0.82458   0.88191   0.00000  Uiso   1.00
H1490  H     0.66396   0.82914   0.84276   0.00000  Uiso   1.00
H1491  H     0.33919   0.85729   0.90182   0.00000  Uiso   1.00
H1492  H     0.37797   0.81163   0.88938   0.00000  Uiso   1.00
H1493  H     0.64141   0.78942   0.93745   0.00000  Uiso   1.00
H1494  H     0.63493   0.75862   0.88053   0.00000  Uiso   1.00
H1495  H     0.57051   0.81358   0.84732   0.00000  Uiso   1.00
H1496  H     0.57564   0.84046   0.90413   0.00000  Uiso   1.00
C1497  C     0.83600   0.66515   0.74909   0.00000  Uiso   1.00
C1498  C     0.83229   0.83526   0.75154   0.00000  Uiso   1.00
C1499  C     0.85664   0.78734   0.55849   0.00000  Uiso   1.00
C1500  C     0.81225   0.71152   0.94058   0.00000  Uiso   1.00
C1501  C     0.86248   0.78254   0.60942   0.00000  Uiso   1.00
C1502  C     0.80215   0.71956   0.89076   0.00000  Uiso   1.00
C1503  C     0.79925   0.72220   0.59787   0.00000  Uiso   1.00
C1504  C     0.87020   0.77578   0.90165   0.00000  Uiso   1.00
C1505  C     0.80060   0.72184   0.54788   0.00000  Uiso   1.00
C1506  C     0.87095   0.77479   0.95177   0.00000  Uiso   1.00
C1507  C     0.83375   0.75090   0.52710   0.00000  Uiso   1.00
C1508  C     0.83788   0.74603   0.97276   0.00000  Uiso   1.00
C1509  C     0.73476   0.75042   0.73772   0.00000  Uiso   1.00
C1510  C     0.93190   0.75084   0.76223   0.00000  Uiso   1.00
C1511  C     0.67948   0.75119   0.73085   0.00000  Uiso   1.00
C1512  C     0.98712   0.75241   0.76873   0.00000  Uiso   1.00
C1513  C     0.81805   0.54760   0.78038   0.00000  Uiso   1.00
C1514  C     0.83013   0.95182   0.71277   0.00000  Uiso   1.00
C1515  C     0.81461   0.59280   0.77854   0.00000  Uiso   1.00
C1516  C     0.82516   0.90603   0.71260   0.00000  Uiso   1.00
C1517  C     0.84170   0.61693   0.74768   0.00000  Uiso   1.00
C1518  C     0.83291   0.88441   0.75569   0.00000  Uiso   1.00
C1519  C     0.87470   0.59491   0.71872   0.00000  Uiso   1.00
C1520  C     0.84415   0.91077   0.80038   0.00000  Uiso   1.00
C1521  C     0.88228   0.54912   0.72466   0.00000  Uiso   1.00
C1522  C     0.86055   0.95618   0.79864   0.00000  Uiso   1.00
C1523  C     0.85125   0.52551   0.75374   0.00000  Uiso   1.00
C1524  C     0.84939   0.97697   0.75504   0.00000  Uiso   1.00
Cu1525 Cu    0.83333   0.74999   0.79821   0.00000  Uiso   1.00
Cu1526 Cu    0.83333   0.75000   0.70178   0.00000  Uiso   1.00
H1527  H     0.99306   0.75036   0.69431   0.00000  Uiso   1.00
H1528  H     0.67333   0.75479   0.80505   0.00000  Uiso   1.00
H1529  H     0.79437   0.52950   0.80278   0.00000  Uiso   1.00
H1530  H     0.82075   0.96779   0.67935   0.00000  Uiso   1.00
H1531  H     0.78871   0.60873   0.80003   0.00000  Uiso   1.00
H1532  H     0.81386   0.88751   0.67844   0.00000  Uiso   1.00
H1533  H     0.77257   0.69996   0.52513   0.00000  Uiso   1.00
H1534  H     0.89974   0.79554   0.97424   0.00000  Uiso   1.00
N1535  N     0.83333   0.75001   0.62934   0.00000  Uiso   1.00
N1536  N     0.83333   0.74999   0.87065   0.00000  Uiso   1.00
O1537  O     0.83334   0.68572   0.79071   0.00000  Uiso   1.00
O1538  O     0.83333   0.81427   0.70928   0.00000  Uiso   1.00
O1539  O     0.83334   0.68573   0.70928   0.00000  Uiso   1.00
O1540  O     0.83333   0.81427   0.79072   0.00000  Uiso   1.00
O1541  O     0.75828   0.74999   0.78132   0.00000  Uiso   1.00
O1542  O     0.90839   0.75000   0.71868   0.00000  Uiso   1.00
O1543  O     0.75828   0.75000   0.69988   0.00000  Uiso   1.00
O1544  O     0.90839   0.75000   0.80011   0.00000  Uiso   1.00
C1545  C     0.89442   0.61685   0.67640   0.00000  Uiso   1.00
C1546  C     0.85437   0.60591   0.63177   0.00000  Uiso   1.00
C1547  C     0.87096   0.62502   0.58675   0.00000  Uiso   1.00
H1548  H     0.87684   0.66164   0.59152   0.00000  Uiso   1.00
H1549  H     0.90697   0.61063   0.57823   0.00000  Uiso   1.00
H1550  H     0.84007   0.61630   0.55625   0.00000  Uiso   1.00
H1551  H     0.84782   0.56932   0.62511   0.00000  Uiso   1.00
H1552  H     0.81704   0.61890   0.63832   0.00000  Uiso   1.00
H1553  H     0.90282   0.65305   0.68326   0.00000  Uiso   1.00
H1554  H     0.93210   0.60524   0.66918   0.00000  Uiso   1.00
C1555  C     0.83288   0.89513   0.84930   0.00000  Uiso   1.00
C1556  C     0.78480   0.91585   0.86459   0.00000  Uiso   1.00
C1557  C     0.78007   0.90826   0.91723   0.00000  Uiso   1.00
H1558  H     0.81272   0.92637   0.94092   0.00000  Uiso   1.00
H1559  H     0.74344   0.92080   0.92662   0.00000  Uiso   1.00
H1560  H     0.78021   0.87233   0.92375   0.00000  Uiso   1.00
H1561  H     0.78609   0.95213   0.85985   0.00000  Uiso   1.00
H1562  H     0.74978   0.90049   0.84164   0.00000  Uiso   1.00
H1563  H     0.82535   0.85942   0.85149   0.00000  Uiso   1.00
H1564  H     0.86671   0.90376   0.87688   0.00000  Uiso   1.00
C1565  C     0.92399   0.52597   0.70141   0.00000  Uiso   1.00
C1566  C     0.97812   0.54102   0.72715   0.00000  Uiso   1.00
C1567  C     0.68658   0.52115   0.70120   0.00000  Uiso   1.00
H1568  H     0.68280   0.98432   0.70065   0.00000  Uiso   1.00
H1569  H     0.68363   0.53177   0.66372   0.00000  Uiso   1.00
H1570  H     0.72519   0.53282   0.72014   0.00000  Uiso   1.00
H1571  H     0.98448   0.57773   0.72927   0.00000  Uiso   1.00
H1572  H     0.98204   0.53015   0.76458   0.00000  Uiso   1.00
H1573  H     0.91993   0.98945   0.70290   0.00000  Uiso   1.00
H1574  H     0.92067   0.53173   0.66248   0.00000  Uiso   1.00
C1575  C     0.89214   0.98158   0.84224   0.00000  Uiso   1.00
C1576  C     0.94674   0.96497   0.85091   0.00000  Uiso   1.00
C1577  C     0.97875   0.98975   0.89450   0.00000  Uiso   1.00
H1578  H     0.98150   0.52598   0.88948   0.00000  Uiso   1.00
H1579  H     0.96095   0.98355   0.92756   0.00000  Uiso   1.00
H1580  H     0.68502   0.97798   0.89899   0.00000  Uiso   1.00
H1581  H     0.94518   0.92889   0.85678   0.00000  Uiso   1.00
H1582  H     0.96645   0.97016   0.81871   0.00000  Uiso   1.00
H1583  H     0.89669   0.51764   0.83719   0.00000  Uiso   1.00
H1584  H     0.87270   0.97885   0.87486   0.00000  Uiso   1.00
C1585  C     0.85668   0.83463   0.54075   0.00000  Uiso   1.00
C1586  C     0.91044   0.85931   0.54219   0.00000  Uiso   1.00
C1587  C     0.90897   0.89608   0.50681   0.00000  Uiso   1.00
H1588  H     0.89497   0.88249   0.96977   0.00000  Uiso   1.00
H1589  H     0.88286   0.92159   0.51700   0.00000  Uiso   1.00
H1590  H     0.94833   0.91215   0.50742   0.00000  Uiso   1.00
H1591  H     0.92329   0.87579   0.57823   0.00000  Uiso   1.00
H1592  H     0.94025   0.83623   0.53471   0.00000  Uiso   1.00
H1593  H     0.83455   0.83448   0.50424   0.00000  Uiso   1.00
H1594  H     0.83355   0.85480   0.56310   0.00000  Uiso   1.00
C1595  C     0.80942   0.66359   0.95532   0.00000  Uiso   1.00
C1596  C     0.83586   0.63234   0.92251   0.00000  Uiso   1.00
C1597  C     0.83661   0.58545   0.94025   0.00000  Uiso   1.00
H1598  H     0.85978   0.58563   0.97629   0.00000  Uiso   1.00
H1599  H     0.79667   0.57175   0.94222   0.00000  Uiso   1.00
H1600  H     0.85434   0.56361   0.91487   0.00000  Uiso   1.00
H1601  H     0.81524   0.63016   0.88535   0.00000  Uiso   1.00
H1602  H     0.87627   0.64545   0.92141   0.00000  Uiso   1.00
H1603  H     0.83066   0.66168   0.99181   0.00000  Uiso   1.00
H1604  H     0.76865   0.65136   0.95577   0.00000  Uiso   1.00
C1605  C     0.90011   0.81588   0.63965   0.00000  Uiso   1.00
H1606  H     0.90994   0.80948   0.67720   0.00000  Uiso   1.00
H1607  H     0.93770   0.81650   0.62532   0.00000  Uiso   1.00
H1608  H     0.88465   0.84923   0.63930   0.00000  Uiso   1.00
C1609  C     0.75375   0.69739   0.86252   0.00000  Uiso   1.00
H1610  H     0.72629   0.72310   0.85498   0.00000  Uiso   1.00
H1611  H     0.76040   0.67957   0.82903   0.00000  Uiso   1.00
H1612  H     0.73392   0.67313   0.88334   0.00000  Uiso   1.00
C1613  C     0.75729   0.69187   0.61341   0.00000  Uiso   1.00
C1614  C     0.70411   0.71045   0.60120   0.00000  Uiso   1.00
C1615  C     0.99535   0.68108   0.61892   0.00000  Uiso   1.00
H1616  H     0.67134   0.67625   0.65793   0.00000  Uiso   1.00
H1617  H     0.99131   0.64817   0.59892   0.00000  Uiso   1.00
H1618  H     0.95828   0.69722   0.61294   0.00000  Uiso   1.00
H1619  H     0.70418   0.74458   0.61783   0.00000  Uiso   1.00
H1620  H     0.69469   0.71234   0.56165   0.00000  Uiso   1.00
H1621  H     0.75681   0.65882   0.59403   0.00000  Uiso   1.00
H1622  H     0.76378   0.68566   0.65162   0.00000  Uiso   1.00
C1623  C     0.91069   0.80752   0.88551   0.00000  Uiso   1.00
C1624  C     0.96549   0.79200   0.89800   0.00000  Uiso   1.00
C1625  C     0.67241   0.82458   0.88191   0.00000  Uiso   1.00
H1626  H     0.99729   0.82914   0.84276   0.00000  Uiso   1.00
H1627  H     0.67252   0.85729   0.90182   0.00000  Uiso   1.00
H1628  H     0.71130   0.81163   0.88938   0.00000  Uiso   1.00
H1629  H     0.97474   0.78942   0.93745   0.00000  Uiso   1.00
H1630  H     0.96826   0.75862   0.88053   0.00000  Uiso   1.00
H1631  H     0.90384   0.81358   0.84732   0.00000  Uiso   1.00
H1632  H     0.90897   0.84046   0.90413   0.00000  Uiso   1.00
loop_
_geom_bond_atom_site_label_1
_geom_bond_atom_site_label_2
_geom_bond_distance
_geom_bond_site_symmetry_2
_ccdc_geom_bond_type
C1     C21     1.473   .     S
C1     O43     1.303   .     A
C1     O41     1.308   .     A
C2     O44     1.296   .     A
C2     C22     1.484   .     S
C2     O42     1.321   .     A
C3     C5      1.435   .     A
C3     C89     1.538   .     S
C3     C11     1.427   .     A
C4     C12     1.421   .     A
C4     C6      1.426   .     A
C4     C99     1.527   .     S
C5     N39     1.393   .     A
C5     C109    1.512   .     S
C6     N40     1.384   .     A
C6     C113    1.506   .     S
C7     C117    1.511   .     S
C7     C9      1.409   .     A
C7     N39     1.384   .     A
C8     C127    1.516   .     S
C8     C10     1.407   .     A
C8     N40     1.386   .     A
C9     H37     1.078   .     S
C9     C11     1.400   .     A
C10    C12     1.396   .     A
C10    H38     1.068   .     S
C11    C828    1.545   1_554 S
C12    C827    1.545   .     S
C13    O47     1.296   .     A
C13    C15     1.436   .     S
C13    O45     1.298   .     A
C14    O46     1.294   .     A
C14    O48     1.297   .     A
C14    C16     1.431   .     S
C15    C288    1.331   1_455 S
C15    H303    1.086   1_455 S
C16    C151    1.331   .     S
C16    H168    1.077   .     S
C17    H33     1.084   .     S
C17    C27     1.396   .     A
C17    C19     1.378   .     A
C18    C20     1.383   .     A
C18    C28     1.396   .     A
C18    H34     1.084   .     S
C19    C21     1.396   .     A
C19    H35     1.082   .     S
C20    C22     1.402   .     A
C20    H36     1.083   .     S
C21    C23     1.431   .     A
C22    C24     1.439   .     A
C23    C49     1.523   .     S
C23    C25     1.425   .     A
C24    C26     1.419   .     A
C24    C59     1.534   .     S
C25    C69     1.529   .     S
C25    C27     1.414   .     A
C26    C28     1.410   .     A
C26    C79     1.529   .     S
C27    C436    1.468   1_545 S
C28    C435    1.468   .     S
Cu29   Cu30    2.709   .     S
Cu29   O48     1.958   .     S
Cu29   O44     1.965   .     S
Cu29   O41     1.944   .     S
Cu29   N40     2.035   .     S
Cu29   O45     1.960   .     S
Cu30   O47     1.958   .     S
Cu30   O43     1.965   .     S
Cu30   O46     1.960   .     S
Cu30   N39     2.035   .     S
Cu30   O42     1.944   .     S
H31    C151    1.086   .     S
H32    C288    1.077   1_455 S
C49    H57     1.105   .     S
C49    H58     1.106   .     S
C49    C50     1.535   .     S
C50    H56     1.108   .     S
C50    C51     1.520   .     S
C50    H55     1.112   .     S
C51    H52     1.108   .     S
C51    H53     1.110   .     S
C51    H54     1.108   .     S
C59    H67     1.092   .     S
C59    C60     1.538   .     S
C59    H68     1.107   .     S
C60    H66     1.112   .     S
C60    C61     1.528   .     S
C60    H65     1.111   .     S
C61    H63     1.109   .     S
C61    H64     1.111   .     S
C61    H62     1.110   .     S
C69    H78     1.109   .     S
C69    C70     1.536   .     S
C69    H485    1.107   1_545 S
C70    H76     1.111   .     S
C70    H75     1.110   .     S
C70    C207    1.526   .     S
C71    H73     1.111   .     S
C71    H74     1.108   .     S
C71    C342    1.526   1_455 S
C71    H480    1.111   1_545 S
H72    C479    1.111   .     S
H77    C477    1.107   .     S
C79    H88     1.109   .     S
C79    C80     1.536   .     S
C79    H495    1.108   .     S
C80    H86     1.111   .     S
C80    H85     1.111   .     S
C80    C81     1.526   .     S
C81    H83     1.111   .     S
C81    H490    1.111   .     S
C81    H220    1.110   .     S
H82    C489    1.111   1_545 S
H84    C353    1.110   1_455 S
H87    C487    1.108   1_545 S
C89    H97     1.110   .     S
C89    H98     1.112   .     S
C89    C90     1.548   .     S
C90    H95     1.107   .     S
C90    H96     1.110   .     S
C90    C91     1.527   .     S
C91    H93     1.111   .     S
C91    H94     1.110   .     S
C91    H908    1.107   1_554 S
H92    C907    1.107   .     S
C99    H108    1.111   .     S
C99    C100    1.541   .     S
C99    H107    1.106   .     S
C100   H105    1.108   .     S
C100   H106    1.112   .     S
C100   C101    1.527   .     S
C101   H102    1.110   .     S
C101   H103    1.111   .     S
C101   H104    1.111   .     S
C109   H111    1.110   .     S
C109   H112    1.109   .     S
C109   H110    1.083   .     S
C113   H116    1.108   .     S
C113   H114    1.099   .     S
C113   H115    1.099   .     S
C117   H126    1.092   .     S
C117   C118    1.535   .     S
C117   H125    1.112   .     S
C118   H124    1.112   .     S
C118   H123    1.111   .     S
C118   C391    1.524   1_455 S
C119   H121    1.110   .     S
C119   H122    1.109   .     S
C119   C254    1.524   .     S
C119   H256    1.110   .     S
H120   C391    1.110   1_455 S
C127   H136    1.107   .     S
C127   C128    1.538   .     S
C127   H135    1.091   .     S
C128   H133    1.111   .     S
C128   H134    1.110   .     S
C128   C265    1.527   .     S
C129   H132    1.111   .     S
C129   H131    1.111   .     S
C129   C400    1.527   1_455 S
C129   H402    1.110   1_455 S
H130   C265    1.110   .     S
C137   C157    1.473   .     S
C137   O179    1.303   .     A
C137   O177    1.308   .     A
C138   O180    1.296   .     A
C138   C158    1.484   .     S
C138   O178    1.321   .     A
C139   C141    1.435   .     A
C139   C225    1.538   .     S
C139   C147    1.427   .     A
C140   C148    1.421   .     A
C140   C142    1.426   .     A
C140   C235    1.527   .     S
C141   N175    1.393   .     A
C141   C245    1.512   .     S
C142   N176    1.384   .     A
C142   C249    1.506   .     S
C143   C253    1.511   .     S
C143   C145    1.409   .     A
C143   N175    1.384   .     A
C144   C263    1.516   .     S
C144   C146    1.407   .     A
C144   N176    1.386   .     A
C145   H173    1.078   .     S
C145   C147    1.400   .     A
C146   C148    1.396   .     A
C146   H174    1.068   .     S
C147   C964    1.545   1_554 S
C148   C963    1.545   .     S
C149   O183    1.296   .     A
C149   C151    1.436   .     S
C149   O181    1.298   .     A
C150   O182    1.294   .     A
C150   O184    1.297   .     A
C150   C152    1.431   .     S
C152   C287    1.331   .     S
C152   H304    1.077   .     S
C153   H169    1.084   .     S
C153   C163    1.396   .     A
C153   C155    1.378   .     A
C154   C156    1.383   .     A
C154   C164    1.396   .     A
C154   H170    1.084   .     S
C155   C157    1.396   .     A
C155   H171    1.082   .     S
C156   C158    1.402   .     A
C156   H172    1.083   .     S
C157   C159    1.431   .     A
C158   C160    1.439   .     A
C159   C185    1.523   .     S
C159   C161    1.425   .     A
C160   C162    1.419   .     A
C160   C195    1.534   .     S
C161   C205    1.529   .     S
C161   C163    1.414   .     A
C162   C164    1.410   .     A
C162   C215    1.529   .     S
C163   C572    1.468   1_545 S
C164   C571    1.468   .     S
Cu165  Cu166   2.709   .     S
Cu165  O184    1.958   .     S
Cu165  O180    1.965   .     S
Cu165  O177    1.944   .     S
Cu165  N176    2.035   .     S
Cu165  O181    1.960   .     S
Cu166  O183    1.958   .     S
Cu166  O179    1.965   .     S
Cu166  O182    1.960   .     S
Cu166  N175    2.035   .     S
Cu166  O178    1.944   .     S
H167   C287    1.086   .     S
C185   H193    1.105   .     S
C185   H194    1.106   .     S
C185   C186    1.535   .     S
C186   H192    1.108   .     S
C186   C187    1.520   .     S
C186   H191    1.112   .     S
C187   H188    1.108   .     S
C187   H189    1.110   .     S
C187   H190    1.108   .     S
C195   H203    1.092   .     S
C195   C196    1.538   .     S
C195   H204    1.107   .     S
C196   H202    1.112   .     S
C196   C197    1.528   .     S
C196   H201    1.111   .     S
C197   H199    1.109   .     S
C197   H200    1.111   .     S
C197   H198    1.110   .     S
C205   H214    1.109   .     S
C205   C206    1.536   .     S
C205   H621    1.107   1_545 S
C206   H212    1.111   .     S
C206   H211    1.110   .     S
C206   C343    1.526   .     S
C207   H209    1.111   .     S
C207   H210    1.108   .     S
C207   H616    1.111   1_545 S
H208   C615    1.111   .     S
H213   C613    1.107   .     S
C215   H224    1.109   .     S
C215   C216    1.536   .     S
C215   H631    1.108   .     S
C216   H222    1.111   .     S
C216   H221    1.111   .     S
C216   C217    1.526   .     S
C217   H219    1.111   .     S
C217   H626    1.111   .     S
C217   H356    1.110   .     S
H218   C625    1.111   1_545 S
H223   C623    1.108   1_545 S
C225   H233    1.110   .     S
C225   H234    1.112   .     S
C225   C226    1.548   .     S
C226   H231    1.107   .     S
C226   H232    1.110   .     S
C226   C227    1.527   .     S
C227   H229    1.111   .     S
C227   H230    1.110   .     S
C227   H1044   1.107   1_554 S
H228   C1043   1.107   .     S
C235   H244    1.111   .     S
C235   C236    1.541   .     S
C235   H243    1.106   .     S
C236   H241    1.108   .     S
C236   H242    1.112   .     S
C236   C237    1.527   .     S
C237   H238    1.110   .     S
C237   H239    1.111   .     S
C237   H240    1.111   .     S
C245   H247    1.110   .     S
C245   H248    1.109   .     S
C245   H246    1.083   .     S
C249   H252    1.108   .     S
C249   H250    1.099   .     S
C249   H251    1.099   .     S
C253   H262    1.092   .     S
C253   C254    1.535   .     S
C253   H261    1.112   .     S
C254   H260    1.112   .     S
C254   H259    1.111   .     S
C255   H257    1.110   .     S
C255   H258    1.109   .     S
C255   C390    1.524   .     S
C255   H392    1.110   .     S
C263   H272    1.107   .     S
C263   C264    1.538   .     S
C263   H271    1.091   .     S
C264   H269    1.111   .     S
C264   H270    1.110   .     S
C264   C401    1.527   .     S
C265   H268    1.111   .     S
C265   H267    1.111   .     S
H266   C401    1.110   .     S
C273   C293    1.473   .     S
C273   O315    1.303   .     A
C273   O313    1.308   .     A
C274   O316    1.296   .     A
C274   C294    1.484   .     S
C274   O314    1.321   .     A
C275   C277    1.435   .     A
C275   C361    1.538   .     S
C275   C283    1.427   .     A
C276   C284    1.421   .     A
C276   C278    1.426   .     A
C276   C371    1.527   .     S
C277   N311    1.393   .     A
C277   C381    1.512   .     S
C278   N312    1.384   .     A
C278   C385    1.506   .     S
C279   C389    1.511   .     S
C279   C281    1.409   .     A
C279   N311    1.384   .     A
C280   C399    1.516   .     S
C280   C282    1.407   .     A
C280   N312    1.386   .     A
C281   H309    1.078   .     S
C281   C283    1.400   .     A
C282   C284    1.396   .     A
C282   H310    1.068   .     S
C283   C1100   1.545   1_554 S
C284   C1099   1.545   .     S
C285   O319    1.296   .     A
C285   C287    1.436   .     S
C285   O317    1.298   .     A
C286   O318    1.294   .     A
C286   O320    1.297   .     A
C286   C288    1.431   .     S
C288   C15     1.331   1_655 S
C288   H32     1.077   1_655 S
C289   H305    1.084   .     S
C289   C299    1.396   .     A
C289   C291    1.378   .     A
C290   C292    1.383   .     A
C290   C300    1.396   .     A
C290   H306    1.084   .     S
C291   C293    1.396   .     A
C291   H307    1.082   .     S
C292   C294    1.402   .     A
C292   H308    1.083   .     S
C293   C295    1.431   .     A
C294   C296    1.439   .     A
C295   C321    1.523   .     S
C295   C297    1.425   .     A
C296   C298    1.419   .     A
C296   C331    1.534   .     S
C297   C341    1.529   .     S
C297   C299    1.414   .     A
C298   C300    1.410   .     A
C298   C351    1.529   .     S
C299   C708    1.468   1_545 S
C300   C707    1.468   .     S
Cu301  Cu302   2.709   .     S
Cu301  O320    1.958   .     S
Cu301  O316    1.965   .     S
Cu301  O313    1.944   .     S
Cu301  N312    2.035   .     S
Cu301  O317    1.960   .     S
Cu302  O319    1.958   .     S
Cu302  O315    1.965   .     S
Cu302  O318    1.960   .     S
Cu302  N311    2.035   .     S
Cu302  O314    1.944   .     S
H303   C15     1.086   1_655 S
C321   H329    1.105   .     S
C321   H330    1.106   .     S
C321   C322    1.535   .     S
C322   H328    1.108   .     S
C322   C323    1.520   .     S
C322   H327    1.112   .     S
C323   H324    1.108   .     S
C323   H325    1.110   .     S
C323   H326    1.108   .     S
C331   H339    1.092   .     S
C331   C332    1.538   .     S
C331   H340    1.107   .     S
C332   H338    1.112   .     S
C332   C333    1.528   .     S
C332   H337    1.111   .     S
C333   H335    1.109   .     S
C333   H336    1.111   .     S
C333   H334    1.110   .     S
C341   H350    1.109   .     S
C341   C342    1.536   .     S
C341   H757    1.107   1_545 S
C342   H348    1.111   .     S
C342   H347    1.110   .     S
C342   C71     1.526   1_655 S
C343   H345    1.111   .     S
C343   H346    1.108   .     S
C343   H752    1.111   1_545 S
H344   C751    1.111   .     S
H349   C749    1.107   .     S
C351   H360    1.109   .     S
C351   C352    1.536   .     S
C351   H767    1.108   .     S
C352   H358    1.111   .     S
C352   H357    1.111   .     S
C352   C353    1.526   .     S
C353   H355    1.111   .     S
C353   H762    1.111   .     S
C353   H84     1.110   1_655 S
H354   C761    1.111   1_545 S
H359   C759    1.108   1_545 S
C361   H369    1.110   .     S
C361   H370    1.112   .     S
C361   C362    1.548   .     S
C362   H367    1.107   .     S
C362   H368    1.110   .     S
C362   C363    1.527   .     S
C363   H365    1.111   .     S
C363   H366    1.110   .     S
C363   H1180   1.107   1_554 S
H364   C1179   1.107   .     S
C371   H380    1.111   .     S
C371   C372    1.541   .     S
C371   H379    1.106   .     S
C372   H377    1.108   .     S
C372   H378    1.112   .     S
C372   C373    1.527   .     S
C373   H374    1.110   .     S
C373   H375    1.111   .     S
C373   H376    1.111   .     S
C381   H383    1.110   .     S
C381   H384    1.109   .     S
C381   H382    1.083   .     S
C385   H388    1.108   .     S
C385   H386    1.099   .     S
C385   H387    1.099   .     S
C389   H398    1.092   .     S
C389   C390    1.535   .     S
C389   H397    1.112   .     S
C390   H396    1.112   .     S
C390   H395    1.111   .     S
C391   H393    1.110   .     S
C391   H394    1.109   .     S
C391   C118    1.524   1_655 S
C391   H120    1.110   1_655 S
C399   H408    1.107   .     S
C399   C400    1.538   .     S
C399   H407    1.091   .     S
C400   H405    1.111   .     S
C400   H406    1.110   .     S
C400   C129    1.527   1_655 S
C401   H404    1.111   .     S
C401   H403    1.111   .     S
H402   C129    1.110   1_655 S
C409   C429    1.473   .     S
C409   O451    1.303   .     A
C409   O449    1.308   .     A
C410   O452    1.296   .     A
C410   C430    1.484   .     S
C410   O450    1.321   .     A
C411   C413    1.435   .     A
C411   C497    1.538   .     S
C411   C419    1.427   .     A
C412   C420    1.421   .     A
C412   C414    1.426   .     A
C412   C507    1.527   .     S
C413   N447    1.393   .     A
C413   C517    1.512   .     S
C414   N448    1.384   .     A
C414   C521    1.506   .     S
C415   C525    1.511   .     S
C415   C417    1.409   .     A
C415   N447    1.384   .     A
C416   C535    1.516   .     S
C416   C418    1.407   .     A
C416   N448    1.386   .     A
C417   H445    1.078   .     S
C417   C419    1.400   .     A
C418   C420    1.396   .     A
C418   H446    1.068   .     S
C419   C1236   1.545   1_554 S
C420   C1235   1.545   .     S
C421   O455    1.296   .     A
C421   C423    1.436   .     S
C421   O453    1.298   .     A
C422   O454    1.294   .     A
C422   O456    1.297   .     A
C422   C424    1.431   .     S
C423   C696    1.331   1_455 S
C423   H711    1.086   1_455 S
C424   C559    1.331   .     S
C424   H576    1.077   .     S
C425   H441    1.084   .     S
C425   C435    1.396   .     A
C425   C427    1.378   .     A
C426   C428    1.383   .     A
C426   C436    1.396   .     A
C426   H442    1.084   .     S
C427   C429    1.396   .     A
C427   H443    1.082   .     S
C428   C430    1.402   .     A
C428   H444    1.083   .     S
C429   C431    1.431   .     A
C430   C432    1.439   .     A
C431   C457    1.523   .     S
C431   C433    1.425   .     A
C432   C434    1.419   .     A
C432   C467    1.534   .     S
C433   C477    1.529   .     S
C433   C435    1.414   .     A
C434   C436    1.410   .     A
C434   C487    1.529   .     S
C436   C27     1.468   1_565 S
Cu437  Cu438   2.709   .     S
Cu437  O456    1.958   .     S
Cu437  O452    1.965   .     S
Cu437  O449    1.944   .     S
Cu437  N448    2.035   .     S
Cu437  O453    1.960   .     S
Cu438  O455    1.958   .     S
Cu438  O451    1.965   .     S
Cu438  O454    1.960   .     S
Cu438  N447    2.035   .     S
Cu438  O450    1.944   .     S
H439   C559    1.086   .     S
H440   C696    1.077   1_455 S
C457   H465    1.105   .     S
C457   H466    1.106   .     S
C457   C458    1.535   .     S
C458   H464    1.108   .     S
C458   C459    1.520   .     S
C458   H463    1.112   .     S
C459   H460    1.108   .     S
C459   H461    1.110   .     S
C459   H462    1.108   .     S
C467   H475    1.092   .     S
C467   C468    1.538   .     S
C467   H476    1.107   .     S
C468   H474    1.112   .     S
C468   C469    1.528   .     S
C468   H473    1.111   .     S
C469   H471    1.109   .     S
C469   H472    1.111   .     S
C469   H470    1.110   .     S
C477   H486    1.109   .     S
C477   C478    1.536   .     S
C478   H484    1.111   .     S
C478   H483    1.110   .     S
C478   C615    1.526   .     S
C479   H481    1.111   .     S
C479   H482    1.108   .     S
C479   C750    1.526   1_455 S
H480   C71     1.111   1_565 S
H485   C69     1.107   1_565 S
C487   H496    1.109   .     S
C487   C488    1.536   .     S
C487   H87     1.108   1_565 S
C488   H494    1.111   .     S
C488   H493    1.111   .     S
C488   C489    1.526   .     S
C489   H491    1.111   .     S
C489   H82     1.111   1_565 S
C489   H628    1.110   .     S
H492   C761    1.110   1_455 S
C497   H505    1.110   .     S
C497   H506    1.112   .     S
C497   C498    1.548   .     S
C498   H503    1.107   .     S
C498   H504    1.110   .     S
C498   C499    1.527   .     S
C499   H501    1.111   .     S
C499   H502    1.110   .     S
C499   H1316   1.107   1_554 S
H500   C1315   1.107   .     S
C507   H516    1.111   .     S
C507   C508    1.541   .     S
C507   H515    1.106   .     S
C508   H513    1.108   .     S
C508   H514    1.112   .     S
C508   C509    1.527   .     S
C509   H510    1.110   .     S
C509   H511    1.111   .     S
C509   H512    1.111   .     S
C517   H519    1.110   .     S
C517   H520    1.109   .     S
C517   H518    1.083   .     S
C521   H524    1.108   .     S
C521   H522    1.099   .     S
C521   H523    1.099   .     S
C525   H534    1.092   .     S
C525   C526    1.535   .     S
C525   H533    1.112   .     S
C526   H532    1.112   .     S
C526   H531    1.111   .     S
C526   C799    1.524   1_455 S
C527   H529    1.110   .     S
C527   H530    1.109   .     S
C527   C662    1.524   .     S
C527   H664    1.110   .     S
H528   C799    1.110   1_455 S
C535   H544    1.107   .     S
C535   C536    1.538   .     S
C535   H543    1.091   .     S
C536   H541    1.111   .     S
C536   H542    1.110   .     S
C536   C673    1.527   .     S
C537   H540    1.111   .     S
C537   H539    1.111   .     S
C537   C808    1.527   1_455 S
C537   H810    1.110   1_455 S
H538   C673    1.110   .     S
C545   C565    1.473   .     S
C545   O587    1.303   .     A
C545   O585    1.308   .     A
C546   O588    1.296   .     A
C546   C566    1.484   .     S
C546   O586    1.321   .     A
C547   C549    1.435   .     A
C547   C633    1.538   .     S
C547   C555    1.427   .     A
C548   C556    1.421   .     A
C548   C550    1.426   .     A
C548   C643    1.527   .     S
C549   N583    1.393   .     A
C549   C653    1.512   .     S
C550   N584    1.384   .     A
C550   C657    1.506   .     S
C551   C661    1.511   .     S
C551   C553    1.409   .     A
C551   N583    1.384   .     A
C552   C671    1.516   .     S
C552   C554    1.407   .     A
C552   N584    1.386   .     A
C553   H581    1.078   .     S
C553   C555    1.400   .     A
C554   C556    1.396   .     A
C554   H582    1.068   .     S
C555   C1372   1.545   1_554 S
C556   C1371   1.545   .     S
C557   O591    1.296   .     A
C557   C559    1.436   .     S
C557   O589    1.298   .     A
C558   O590    1.294   .     A
C558   O592    1.297   .     A
C558   C560    1.431   .     S
C560   C695    1.331   .     S
C560   H712    1.077   .     S
C561   H577    1.084   .     S
C561   C571    1.396   .     A
C561   C563    1.378   .     A
C562   C564    1.383   .     A
C562   C572    1.396   .     A
C562   H578    1.084   .     S
C563   C565    1.396   .     A
C563   H579    1.082   .     S
C564   C566    1.402   .     A
C564   H580    1.083   .     S
C565   C567    1.431   .     A
C566   C568    1.439   .     A
C567   C593    1.523   .     S
C567   C569    1.425   .     A
C568   C570    1.419   .     A
C568   C603    1.534   .     S
C569   C613    1.529   .     S
C569   C571    1.414   .     A
C570   C572    1.410   .     A
C570   C623    1.529   .     S
C572   C163    1.468   1_565 S
Cu573  Cu574   2.709   .     S
Cu573  O592    1.958   .     S
Cu573  O588    1.965   .     S
Cu573  O585    1.944   .     S
Cu573  N584    2.035   .     S
Cu573  O589    1.960   .     S
Cu574  O591    1.958   .     S
Cu574  O587    1.965   .     S
Cu574  O590    1.960   .     S
Cu574  N583    2.035   .     S
Cu574  O586    1.944   .     S
H575   C695    1.086   .     S
C593   H601    1.105   .     S
C593   H602    1.106   .     S
C593   C594    1.535   .     S
C594   H600    1.108   .     S
C594   C595    1.520   .     S
C594   H599    1.112   .     S
C595   H596    1.108   .     S
C595   H597    1.110   .     S
C595   H598    1.108   .     S
C603   H611    1.092   .     S
C603   C604    1.538   .     S
C603   H612    1.107   .     S
C604   H610    1.112   .     S
C604   C605    1.528   .     S
C604   H609    1.111   .     S
C605   H607    1.109   .     S
C605   H608    1.111   .     S
C605   H606    1.110   .     S
C613   H622    1.109   .     S
C613   C614    1.536   .     S
C614   H620    1.111   .     S
C614   H619    1.110   .     S
C614   C751    1.526   .     S
C615   H617    1.111   .     S
C615   H618    1.108   .     S
H616   C207    1.111   1_565 S
H621   C205    1.107   1_565 S
C623   H632    1.109   .     S
C623   C624    1.536   .     S
C623   H223    1.108   1_565 S
C624   H630    1.111   .     S
C624   H629    1.111   .     S
C624   C625    1.526   .     S
C625   H627    1.111   .     S
C625   H218    1.111   1_565 S
C625   H764    1.110   .     S
C633   H641    1.110   .     S
C633   H642    1.112   .     S
C633   C634    1.548   .     S
C634   H639    1.107   .     S
C634   H640    1.110   .     S
C634   C635    1.527   .     S
C635   H637    1.111   .     S
C635   H638    1.110   .     S
C635   H1452   1.107   1_554 S
H636   C1451   1.107   .     S
C643   H652    1.111   .     S
C643   C644    1.541   .     S
C643   H651    1.106   .     S
C644   H649    1.108   .     S
C644   H650    1.112   .     S
C644   C645    1.527   .     S
C645   H646    1.110   .     S
C645   H647    1.111   .     S
C645   H648    1.111   .     S
C653   H655    1.110   .     S
C653   H656    1.109   .     S
C653   H654    1.083   .     S
C657   H660    1.108   .     S
C657   H658    1.099   .     S
C657   H659    1.099   .     S
C661   H670    1.092   .     S
C661   C662    1.535   .     S
C661   H669    1.112   .     S
C662   H668    1.112   .     S
C662   H667    1.111   .     S
C663   H665    1.110   .     S
C663   H666    1.109   .     S
C663   C798    1.524   .     S
C663   H800    1.110   .     S
C671   H680    1.107   .     S
C671   C672    1.538   .     S
C671   H679    1.091   .     S
C672   H677    1.111   .     S
C672   H678    1.110   .     S
C672   C809    1.527   .     S
C673   H676    1.111   .     S
C673   H675    1.111   .     S
H674   C809    1.110   .     S
C681   C701    1.473   .     S
C681   O723    1.303   .     A
C681   O721    1.308   .     A
C682   O724    1.296   .     A
C682   C702    1.484   .     S
C682   O722    1.321   .     A
C683   C685    1.435   .     A
C683   C769    1.538   .     S
C683   C691    1.427   .     A
C684   C692    1.421   .     A
C684   C686    1.426   .     A
C684   C779    1.527   .     S
C685   N719    1.393   .     A
C685   C789    1.512   .     S
C686   N720    1.384   .     A
C686   C793    1.506   .     S
C687   C797    1.511   .     S
C687   C689    1.409   .     A
C687   N719    1.384   .     A
C688   C807    1.516   .     S
C688   C690    1.407   .     A
C688   N720    1.386   .     A
C689   H717    1.078   .     S
C689   C691    1.400   .     A
C690   C692    1.396   .     A
C690   H718    1.068   .     S
C691   C1508   1.545   1_554 S
C692   C1507   1.545   .     S
C693   O727    1.296   .     A
C693   C695    1.436   .     S
C693   O725    1.298   .     A
C694   O726    1.294   .     A
C694   O728    1.297   .     A
C694   C696    1.431   .     S
C696   C423    1.331   1_655 S
C696   H440    1.077   1_655 S
C697   H713    1.084   .     S
C697   C707    1.396   .     A
C697   C699    1.378   .     A
C698   C700    1.383   .     A
C698   C708    1.396   .     A
C698   H714    1.084   .     S
C699   C701    1.396   .     A
C699   H715    1.082   .     S
C700   C702    1.402   .     A
C700   H716    1.083   .     S
C701   C703    1.431   .     A
C702   C704    1.439   .     A
C703   C729    1.523   .     S
C703   C705    1.425   .     A
C704   C706    1.419   .     A
C704   C739    1.534   .     S
C705   C749    1.529   .     S
C705   C707    1.414   .     A
C706   C708    1.410   .     A
C706   C759    1.529   .     S
C708   C299    1.468   1_565 S
Cu709  Cu710   2.709   .     S
Cu709  O728    1.958   .     S
Cu709  O724    1.965   .     S
Cu709  O721    1.944   .     S
Cu709  N720    2.035   .     S
Cu709  O725    1.960   .     S
Cu710  O727    1.958   .     S
Cu710  O723    1.965   .     S
Cu710  O726    1.960   .     S
Cu710  N719    2.035   .     S
Cu710  O722    1.944   .     S
H711   C423    1.086   1_655 S
C729   H737    1.105   .     S
C729   H738    1.106   .     S
C729   C730    1.535   .     S
C730   H736    1.108   .     S
C730   C731    1.520   .     S
C730   H735    1.112   .     S
C731   H732    1.108   .     S
C731   H733    1.110   .     S
C731   H734    1.108   .     S
C739   H747    1.092   .     S
C739   C740    1.538   .     S
C739   H748    1.107   .     S
C740   H746    1.112   .     S
C740   C741    1.528   .     S
C740   H745    1.111   .     S
C741   H743    1.109   .     S
C741   H744    1.111   .     S
C741   H742    1.110   .     S
C749   H758    1.109   .     S
C749   C750    1.536   .     S
C750   H756    1.111   .     S
C750   H755    1.110   .     S
C750   C479    1.526   1_655 S
C751   H753    1.111   .     S
C751   H754    1.108   .     S
H752   C343    1.111   1_565 S
H757   C341    1.107   1_565 S
C759   H768    1.109   .     S
C759   C760    1.536   .     S
C759   H359    1.108   1_565 S
C760   H766    1.111   .     S
C760   H765    1.111   .     S
C760   C761    1.526   .     S
C761   H763    1.111   .     S
C761   H354    1.111   1_565 S
C761   H492    1.110   1_655 S
C769   H777    1.110   .     S
C769   H778    1.112   .     S
C769   C770    1.548   .     S
C770   H775    1.107   .     S
C770   H776    1.110   .     S
C770   C771    1.527   .     S
C771   H773    1.111   .     S
C771   H774    1.110   .     S
C771   H1588   1.107   1_554 S
H772   C1587   1.107   .     S
C779   H788    1.111   .     S
C779   C780    1.541   .     S
C779   H787    1.106   .     S
C780   H785    1.108   .     S
C780   H786    1.112   .     S
C780   C781    1.527   .     S
C781   H782    1.110   .     S
C781   H783    1.111   .     S
C781   H784    1.111   .     S
C789   H791    1.110   .     S
C789   H792    1.109   .     S
C789   H790    1.083   .     S
C793   H796    1.108   .     S
C793   H794    1.099   .     S
C793   H795    1.099   .     S
C797   H806    1.092   .     S
C797   C798    1.535   .     S
C797   H805    1.112   .     S
C798   H804    1.112   .     S
C798   H803    1.111   .     S
C799   H801    1.110   .     S
C799   H802    1.109   .     S
C799   C526    1.524   1_655 S
C799   H528    1.110   1_655 S
C807   H816    1.107   .     S
C807   C808    1.538   .     S
C807   H815    1.091   .     S
C808   H813    1.111   .     S
C808   H814    1.110   .     S
C808   C537    1.527   1_655 S
C809   H812    1.111   .     S
C809   H811    1.111   .     S
H810   C537    1.110   1_655 S
C817   C837    1.473   .     S
C817   O859    1.303   .     A
C817   O857    1.308   .     A
C818   O860    1.296   .     A
C818   C838    1.484   .     S
C818   O858    1.321   .     A
C819   C821    1.435   .     A
C819   C905    1.538   .     S
C819   C827    1.427   .     A
C820   C828    1.421   .     A
C820   C822    1.426   .     A
C820   C915    1.527   .     S
C821   N855    1.393   .     A
C821   C925    1.512   .     S
C822   N856    1.384   .     A
C822   C929    1.506   .     S
C823   C933    1.511   .     S
C823   C825    1.409   .     A
C823   N855    1.384   .     A
C824   C943    1.516   .     S
C824   C826    1.407   .     A
C824   N856    1.386   .     A
C825   H853    1.078   .     S
C825   C827    1.400   .     A
C826   C828    1.396   .     A
C826   H854    1.068   .     S
C828   C11     1.545   1_556 S
C829   O863    1.296   .     A
C829   C831    1.436   .     S
C829   O861    1.298   .     A
C830   O862    1.294   .     A
C830   O864    1.297   .     A
C830   C832    1.431   .     S
C831   C1104   1.331   1_455 S
C831   H1119   1.086   1_455 S
C832   C967    1.331   .     S
C832   H984    1.077   .     S
C833   H849    1.084   .     S
C833   C843    1.396   .     A
C833   C835    1.378   .     A
C834   C836    1.383   .     A
C834   C844    1.396   .     A
C834   H850    1.084   .     S
C835   C837    1.396   .     A
C835   H851    1.082   .     S
C836   C838    1.402   .     A
C836   H852    1.083   .     S
C837   C839    1.431   .     A
C838   C840    1.439   .     A
C839   C865    1.523   .     S
C839   C841    1.425   .     A
C840   C842    1.419   .     A
C840   C875    1.534   .     S
C841   C885    1.529   .     S
C841   C843    1.414   .     A
C842   C844    1.410   .     A
C842   C895    1.529   .     S
C843   C1252   1.468   1_545 S
C844   C1251   1.468   .     S
Cu845  Cu846   2.709   .     S
Cu845  O864    1.958   .     S
Cu845  O860    1.965   .     S
Cu845  O857    1.944   .     S
Cu845  N856    2.035   .     S
Cu845  O861    1.960   .     S
Cu846  O863    1.958   .     S
Cu846  O859    1.965   .     S
Cu846  O862    1.960   .     S
Cu846  N855    2.035   .     S
Cu846  O858    1.944   .     S
H847   C967    1.086   .     S
H848   C1104   1.077   1_455 S
C865   H873    1.105   .     S
C865   H874    1.106   .     S
C865   C866    1.535   .     S
C866   H872    1.108   .     S
C866   C867    1.520   .     S
C866   H871    1.112   .     S
C867   H868    1.108   .     S
C867   H869    1.110   .     S
C867   H870    1.108   .     S
C875   H883    1.092   .     S
C875   C876    1.538   .     S
C875   H884    1.107   .     S
C876   H882    1.112   .     S
C876   C877    1.528   .     S
C876   H881    1.111   .     S
C877   H879    1.109   .     S
C877   H880    1.111   .     S
C877   H878    1.110   .     S
C885   H894    1.109   .     S
C885   C886    1.536   .     S
C885   H1301   1.107   1_545 S
C886   H892    1.111   .     S
C886   H891    1.110   .     S
C886   C1023   1.526   .     S
C887   H889    1.111   .     S
C887   H890    1.108   .     S
C887   C1158   1.526   1_455 S
C887   H1296   1.111   1_545 S
H888   C1295   1.111   .     S
H893   C1293   1.107   .     S
C895   H904    1.109   .     S
C895   C896    1.536   .     S
C895   H1311   1.108   .     S
C896   H902    1.111   .     S
C896   H901    1.111   .     S
C896   C897    1.526   .     S
C897   H899    1.111   .     S
C897   H1306   1.111   .     S
C897   H1036   1.110   .     S
H898   C1305   1.111   1_545 S
H900   C1169   1.110   1_455 S
H903   C1303   1.108   1_545 S
C905   H913    1.110   .     S
C905   H914    1.112   .     S
C905   C906    1.548   .     S
C906   H911    1.107   .     S
C906   H912    1.110   .     S
C906   C907    1.527   .     S
C907   H909    1.111   .     S
C907   H910    1.110   .     S
H908   C91     1.107   1_556 S
C915   H924    1.111   .     S
C915   C916    1.541   .     S
C915   H923    1.106   .     S
C916   H921    1.108   .     S
C916   H922    1.112   .     S
C916   C917    1.527   .     S
C917   H918    1.110   .     S
C917   H919    1.111   .     S
C917   H920    1.111   .     S
C925   H927    1.110   .     S
C925   H928    1.109   .     S
C925   H926    1.083   .     S
C929   H932    1.108   .     S
C929   H930    1.099   .     S
C929   H931    1.099   .     S
C933   H942    1.092   .     S
C933   C934    1.535   .     S
C933   H941    1.112   .     S
C934   H940    1.112   .     S
C934   H939    1.111   .     S
C934   C1207   1.524   1_455 S
C935   H937    1.110   .     S
C935   H938    1.109   .     S
C935   C1070   1.524   .     S
C935   H1072   1.110   .     S
H936   C1207   1.110   1_455 S
C943   H952    1.107   .     S
C943   C944    1.538   .     S
C943   H951    1.091   .     S
C944   H949    1.111   .     S
C944   H950    1.110   .     S
C944   C1081   1.527   .     S
C945   H948    1.111   .     S
C945   H947    1.111   .     S
C945   C1216   1.527   1_455 S
C945   H1218   1.110   1_455 S
H946   C1081   1.110   .     S
C953   C973    1.473   .     S
C953   O995    1.303   .     A
C953   O993    1.308   .     A
C954   O996    1.296   .     A
C954   C974    1.484   .     S
C954   O994    1.321   .     A
C955   C957    1.435   .     A
C955   C1041   1.538   .     S
C955   C963    1.427   .     A
C956   C964    1.421   .     A
C956   C958    1.426   .     A
C956   C1051   1.527   .     S
C957   N991    1.393   .     A
C957   C1061   1.512   .     S
C958   N992    1.384   .     A
C958   C1065   1.506   .     S
C959   C1069   1.511   .     S
C959   C961    1.409   .     A
C959   N991    1.384   .     A
C960   C1079   1.516   .     S
C960   C962    1.407   .     A
C960   N992    1.386   .     A
C961   H989    1.078   .     S
C961   C963    1.400   .     A
C962   C964    1.396   .     A
C962   H990    1.068   .     S
C964   C147    1.545   1_556 S
C965   O999    1.296   .     A
C965   C967    1.436   .     S
C965   O997    1.298   .     A
C966   O998    1.294   .     A
C966   O1000   1.297   .     A
C966   C968    1.431   .     S
C968   C1103   1.331   .     S
C968   H1120   1.077   .     S
C969   H985    1.084   .     S
C969   C979    1.396   .     A
C969   C971    1.378   .     A
C970   C972    1.383   .     A
C970   C980    1.396   .     A
C970   H986    1.084   .     S
C971   C973    1.396   .     A
C971   H987    1.082   .     S
C972   C974    1.402   .     A
C972   H988    1.083   .     S
C973   C975    1.431   .     A
C974   C976    1.439   .     A
C975   C1001   1.523   .     S
C975   C977    1.425   .     A
C976   C978    1.419   .     A
C976   C1011   1.534   .     S
C977   C1021   1.529   .     S
C977   C979    1.414   .     A
C978   C980    1.410   .     A
C978   C1031   1.529   .     S
C979   C1388   1.468   1_545 S
C980   C1387   1.468   .     S
Cu981  Cu982   2.709   .     S
Cu981  O1000   1.958   .     S
Cu981  O996    1.965   .     S
Cu981  O993    1.944   .     S
Cu981  N992    2.035   .     S
Cu981  O997    1.960   .     S
Cu982  O999    1.958   .     S
Cu982  O995    1.965   .     S
Cu982  O998    1.960   .     S
Cu982  N991    2.035   .     S
Cu982  O994    1.944   .     S
H983   C1103   1.086   .     S
C1001  H1009   1.105   .     S
C1001  H1010   1.106   .     S
C1001  C1002   1.535   .     S
C1002  H1008   1.108   .     S
C1002  C1003   1.520   .     S
C1002  H1007   1.112   .     S
C1003  H1004   1.108   .     S
C1003  H1005   1.110   .     S
C1003  H1006   1.108   .     S
C1011  H1019   1.092   .     S
C1011  C1012   1.538   .     S
C1011  H1020   1.107   .     S
C1012  H1018   1.112   .     S
C1012  C1013   1.528   .     S
C1012  H1017   1.111   .     S
C1013  H1015   1.109   .     S
C1013  H1016   1.111   .     S
C1013  H1014   1.110   .     S
C1021  H1030   1.109   .     S
C1021  C1022   1.536   .     S
C1021  H1437   1.107   1_545 S
C1022  H1028   1.111   .     S
C1022  H1027   1.110   .     S
C1022  C1159   1.526   .     S
C1023  H1025   1.111   .     S
C1023  H1026   1.108   .     S
C1023  H1432   1.111   1_545 S
H1024  C1431   1.111   .     S
H1029  C1429   1.107   .     S
C1031  H1040   1.109   .     S
C1031  C1032   1.536   .     S
C1031  H1447   1.108   .     S
C1032  H1038   1.111   .     S
C1032  H1037   1.111   .     S
C1032  C1033   1.526   .     S
C1033  H1035   1.111   .     S
C1033  H1442   1.111   .     S
C1033  H1172   1.110   .     S
H1034  C1441   1.111   1_545 S
H1039  C1439   1.108   1_545 S
C1041  H1049   1.110   .     S
C1041  H1050   1.112   .     S
C1041  C1042   1.548   .     S
C1042  H1047   1.107   .     S
C1042  H1048   1.110   .     S
C1042  C1043   1.527   .     S
C1043  H1045   1.111   .     S
C1043  H1046   1.110   .     S
H1044  C227    1.107   1_556 S
C1051  H1060   1.111   .     S
C1051  C1052   1.541   .     S
C1051  H1059   1.106   .     S
C1052  H1057   1.108   .     S
C1052  H1058   1.112   .     S
C1052  C1053   1.527   .     S
C1053  H1054   1.110   .     S
C1053  H1055   1.111   .     S
C1053  H1056   1.111   .     S
C1061  H1063   1.110   .     S
C1061  H1064   1.109   .     S
C1061  H1062   1.083   .     S
C1065  H1068   1.108   .     S
C1065  H1066   1.099   .     S
C1065  H1067   1.099   .     S
C1069  H1078   1.092   .     S
C1069  C1070   1.535   .     S
C1069  H1077   1.112   .     S
C1070  H1076   1.112   .     S
C1070  H1075   1.111   .     S
C1071  H1073   1.110   .     S
C1071  H1074   1.109   .     S
C1071  C1206   1.524   .     S
C1071  H1208   1.110   .     S
C1079  H1088   1.107   .     S
C1079  C1080   1.538   .     S
C1079  H1087   1.091   .     S
C1080  H1085   1.111   .     S
C1080  H1086   1.110   .     S
C1080  C1217   1.527   .     S
C1081  H1084   1.111   .     S
C1081  H1083   1.111   .     S
H1082  C1217   1.110   .     S
C1089  C1109   1.473   .     S
C1089  O1131   1.303   .     A
C1089  O1129   1.308   .     A
C1090  O1132   1.296   .     A
C1090  C1110   1.484   .     S
C1090  O1130   1.321   .     A
C1091  C1093   1.435   .     A
C1091  C1177   1.538   .     S
C1091  C1099   1.427   .     A
C1092  C1100   1.421   .     A
C1092  C1094   1.426   .     A
C1092  C1187   1.527   .     S
C1093  N1127   1.393   .     A
C1093  C1197   1.512   .     S
C1094  N1128   1.384   .     A
C1094  C1201   1.506   .     S
C1095  C1205   1.511   .     S
C1095  C1097   1.409   .     A
C1095  N1127   1.384   .     A
C1096  C1215   1.516   .     S
C1096  C1098   1.407   .     A
C1096  N1128   1.386   .     A
C1097  H1125   1.078   .     S
C1097  C1099   1.400   .     A
C1098  C1100   1.396   .     A
C1098  H1126   1.068   .     S
C1100  C283    1.545   1_556 S
C1101  O1135   1.296   .     A
C1101  C1103   1.436   .     S
C1101  O1133   1.298   .     A
C1102  O1134   1.294   .     A
C1102  O1136   1.297   .     A
C1102  C1104   1.431   .     S
C1104  C831    1.331   1_655 S
C1104  H848    1.077   1_655 S
C1105  H1121   1.084   .     S
C1105  C1115   1.396   .     A
C1105  C1107   1.378   .     A
C1106  C1108   1.383   .     A
C1106  C1116   1.396   .     A
C1106  H1122   1.084   .     S
C1107  C1109   1.396   .     A
C1107  H1123   1.082   .     S
C1108  C1110   1.402   .     A
C1108  H1124   1.083   .     S
C1109  C1111   1.431   .     A
C1110  C1112   1.439   .     A
C1111  C1137   1.523   .     S
C1111  C1113   1.425   .     A
C1112  C1114   1.419   .     A
C1112  C1147   1.534   .     S
C1113  C1157   1.529   .     S
C1113  C1115   1.414   .     A
C1114  C1116   1.410   .     A
C1114  C1167   1.529   .     S
C1115  C1524   1.468   1_545 S
C1116  C1523   1.468   .     S
Cu1117 Cu1118  2.709   .     S
Cu1117 O1136   1.958   .     S
Cu1117 O1132   1.965   .     S
Cu1117 O1129   1.944   .     S
Cu1117 N1128   2.035   .     S
Cu1117 O1133   1.960   .     S
Cu1118 O1135   1.958   .     S
Cu1118 O1131   1.965   .     S
Cu1118 O1134   1.960   .     S
Cu1118 N1127   2.035   .     S
Cu1118 O1130   1.944   .     S
H1119  C831    1.086   1_655 S
C1137  H1145   1.105   .     S
C1137  H1146   1.106   .     S
C1137  C1138   1.535   .     S
C1138  H1144   1.108   .     S
C1138  C1139   1.520   .     S
C1138  H1143   1.112   .     S
C1139  H1140   1.108   .     S
C1139  H1141   1.110   .     S
C1139  H1142   1.108   .     S
C1147  H1155   1.092   .     S
C1147  C1148   1.538   .     S
C1147  H1156   1.107   .     S
C1148  H1154   1.112   .     S
C1148  C1149   1.528   .     S
C1148  H1153   1.111   .     S
C1149  H1151   1.109   .     S
C1149  H1152   1.111   .     S
C1149  H1150   1.110   .     S
C1157  H1166   1.109   .     S
C1157  C1158   1.536   .     S
C1157  H1573   1.107   1_545 S
C1158  H1164   1.111   .     S
C1158  H1163   1.110   .     S
C1158  C887    1.526   1_655 S
C1159  H1161   1.111   .     S
C1159  H1162   1.108   .     S
C1159  H1568   1.111   1_545 S
H1160  C1567   1.111   .     S
H1165  C1565   1.107   .     S
C1167  H1176   1.109   .     S
C1167  C1168   1.536   .     S
C1167  H1583   1.108   .     S
C1168  H1174   1.111   .     S
C1168  H1173   1.111   .     S
C1168  C1169   1.526   .     S
C1169  H1171   1.111   .     S
C1169  H1578   1.111   .     S
C1169  H900    1.110   1_655 S
H1170  C1577   1.111   1_545 S
H1175  C1575   1.108   1_545 S
C1177  H1185   1.110   .     S
C1177  H1186   1.112   .     S
C1177  C1178   1.548   .     S
C1178  H1183   1.107   .     S
C1178  H1184   1.110   .     S
C1178  C1179   1.527   .     S
C1179  H1181   1.111   .     S
C1179  H1182   1.110   .     S
H1180  C363    1.107   1_556 S
C1187  H1196   1.111   .     S
C1187  C1188   1.541   .     S
C1187  H1195   1.106   .     S
C1188  H1193   1.108   .     S
C1188  H1194   1.112   .     S
C1188  C1189   1.527   .     S
C1189  H1190   1.110   .     S
C1189  H1191   1.111   .     S
C1189  H1192   1.111   .     S
C1197  H1199   1.110   .     S
C1197  H1200   1.109   .     S
C1197  H1198   1.083   .     S
C1201  H1204   1.108   .     S
C1201  H1202   1.099   .     S
C1201  H1203   1.099   .     S
C1205  H1214   1.092   .     S
C1205  C1206   1.535   .     S
C1205  H1213   1.112   .     S
C1206  H1212   1.112   .     S
C1206  H1211   1.111   .     S
C1207  H1209   1.110   .     S
C1207  H1210   1.109   .     S
C1207  C934    1.524   1_655 S
C1207  H936    1.110   1_655 S
C1215  H1224   1.107   .     S
C1215  C1216   1.538   .     S
C1215  H1223   1.091   .     S
C1216  H1221   1.111   .     S
C1216  H1222   1.110   .     S
C1216  C945    1.527   1_655 S
C1217  H1220   1.111   .     S
C1217  H1219   1.111   .     S
H1218  C945    1.110   1_655 S
C1225  C1245   1.473   .     S
C1225  O1267   1.303   .     A
C1225  O1265   1.308   .     A
C1226  O1268   1.296   .     A
C1226  C1246   1.484   .     S
C1226  O1266   1.321   .     A
C1227  C1229   1.435   .     A
C1227  C1313   1.538   .     S
C1227  C1235   1.427   .     A
C1228  C1236   1.421   .     A
C1228  C1230   1.426   .     A
C1228  C1323   1.527   .     S
C1229  N1263   1.393   .     A
C1229  C1333   1.512   .     S
C1230  N1264   1.384   .     A
C1230  C1337   1.506   .     S
C1231  C1341   1.511   .     S
C1231  C1233   1.409   .     A
C1231  N1263   1.384   .     A
C1232  C1351   1.516   .     S
C1232  C1234   1.407   .     A
C1232  N1264   1.386   .     A
C1233  H1261   1.078   .     S
C1233  C1235   1.400   .     A
C1234  C1236   1.396   .     A
C1234  H1262   1.068   .     S
C1236  C419    1.545   1_556 S
C1237  O1271   1.296   .     A
C1237  C1239   1.436   .     S
C1237  O1269   1.298   .     A
C1238  O1270   1.294   .     A
C1238  O1272   1.297   .     A
C1238  C1240   1.431   .     S
C1239  C1512   1.331   1_455 S
C1239  H1527   1.086   1_455 S
C1240  C1375   1.331   .     S
C1240  H1392   1.077   .     S
C1241  H1257   1.084   .     S
C1241  C1251   1.396   .     A
C1241  C1243   1.378   .     A
C1242  C1244   1.383   .     A
C1242  C1252   1.396   .     A
C1242  H1258   1.084   .     S
C1243  C1245   1.396   .     A
C1243  H1259   1.082   .     S
C1244  C1246   1.402   .     A
C1244  H1260   1.083   .     S
C1245  C1247   1.431   .     A
C1246  C1248   1.439   .     A
C1247  C1273   1.523   .     S
C1247  C1249   1.425   .     A
C1248  C1250   1.419   .     A
C1248  C1283   1.534   .     S
C1249  C1293   1.529   .     S
C1249  C1251   1.414   .     A
C1250  C1252   1.410   .     A
C1250  C1303   1.529   .     S
C1252  C843    1.468   1_565 S
Cu1253 Cu1254  2.709   .     S
Cu1253 O1272   1.958   .     S
Cu1253 O1268   1.965   .     S
Cu1253 O1265   1.944   .     S
Cu1253 N1264   2.035   .     S
Cu1253 O1269   1.960   .     S
Cu1254 O1271   1.958   .     S
Cu1254 O1267   1.965   .     S
Cu1254 O1270   1.960   .     S
Cu1254 N1263   2.035   .     S
Cu1254 O1266   1.944   .     S
H1255  C1375   1.086   .     S
H1256  C1512   1.077   1_455 S
C1273  H1281   1.105   .     S
C1273  H1282   1.106   .     S
C1273  C1274   1.535   .     S
C1274  H1280   1.108   .     S
C1274  C1275   1.520   .     S
C1274  H1279   1.112   .     S
C1275  H1276   1.108   .     S
C1275  H1277   1.110   .     S
C1275  H1278   1.108   .     S
C1283  H1291   1.092   .     S
C1283  C1284   1.538   .     S
C1283  H1292   1.107   .     S
C1284  H1290   1.112   .     S
C1284  C1285   1.528   .     S
C1284  H1289   1.111   .     S
C1285  H1287   1.109   .     S
C1285  H1288   1.111   .     S
C1285  H1286   1.110   .     S
C1293  H1302   1.109   .     S
C1293  C1294   1.536   .     S
C1294  H1300   1.111   .     S
C1294  H1299   1.110   .     S
C1294  C1431   1.526   .     S
C1295  H1297   1.111   .     S
C1295  H1298   1.108   .     S
C1295  C1566   1.526   1_455 S
H1296  C887    1.111   1_565 S
H1301  C885    1.107   1_565 S
C1303  H1312   1.109   .     S
C1303  C1304   1.536   .     S
C1303  H903    1.108   1_565 S
C1304  H1310   1.111   .     S
C1304  H1309   1.111   .     S
C1304  C1305   1.526   .     S
C1305  H1307   1.111   .     S
C1305  H898    1.111   1_565 S
C1305  H1444   1.110   .     S
H1308  C1577   1.110   1_455 S
C1313  H1321   1.110   .     S
C1313  H1322   1.112   .     S
C1313  C1314   1.548   .     S
C1314  H1319   1.107   .     S
C1314  H1320   1.110   .     S
C1314  C1315   1.527   .     S
C1315  H1317   1.111   .     S
C1315  H1318   1.110   .     S
H1316  C499    1.107   1_556 S
C1323  H1332   1.111   .     S
C1323  C1324   1.541   .     S
C1323  H1331   1.106   .     S
C1324  H1329   1.108   .     S
C1324  H1330   1.112   .     S
C1324  C1325   1.527   .     S
C1325  H1326   1.110   .     S
C1325  H1327   1.111   .     S
C1325  H1328   1.111   .     S
C1333  H1335   1.110   .     S
C1333  H1336   1.109   .     S
C1333  H1334   1.083   .     S
C1337  H1340   1.108   .     S
C1337  H1338   1.099   .     S
C1337  H1339   1.099   .     S
C1341  H1350   1.092   .     S
C1341  C1342   1.535   .     S
C1341  H1349   1.112   .     S
C1342  H1348   1.112   .     S
C1342  H1347   1.111   .     S
C1342  C1615   1.524   1_455 S
C1343  H1345   1.110   .     S
C1343  H1346   1.109   .     S
C1343  C1478   1.524   .     S
C1343  H1480   1.110   .     S
H1344  C1615   1.110   1_455 S
C1351  H1360   1.107   .     S
C1351  C1352   1.538   .     S
C1351  H1359   1.091   .     S
C1352  H1357   1.111   .     S
C1352  H1358   1.110   .     S
C1352  C1489   1.527   .     S
C1353  H1356   1.111   .     S
C1353  H1355   1.111   .     S
C1353  C1624   1.527   1_455 S
C1353  H1626   1.110   1_455 S
H1354  C1489   1.110   .     S
C1361  C1381   1.473   .     S
C1361  O1403   1.303   .     A
C1361  O1401   1.308   .     A
C1362  O1404   1.296   .     A
C1362  C1382   1.484   .     S
C1362  O1402   1.321   .     A
C1363  C1365   1.435   .     A
C1363  C1449   1.538   .     S
C1363  C1371   1.427   .     A
C1364  C1372   1.421   .     A
C1364  C1366   1.426   .     A
C1364  C1459   1.527   .     S
C1365  N1399   1.393   .     A
C1365  C1469   1.512   .     S
C1366  N1400   1.384   .     A
C1366  C1473   1.506   .     S
C1367  C1477   1.511   .     S
C1367  C1369   1.409   .     A
C1367  N1399   1.384   .     A
C1368  C1487   1.516   .     S
C1368  C1370   1.407   .     A
C1368  N1400   1.386   .     A
C1369  H1397   1.078   .     S
C1369  C1371   1.400   .     A
C1370  C1372   1.396   .     A
C1370  H1398   1.068   .     S
C1372  C555    1.545   1_556 S
C1373  O1407   1.296   .     A
C1373  C1375   1.436   .     S
C1373  O1405   1.298   .     A
C1374  O1406   1.294   .     A
C1374  O1408   1.297   .     A
C1374  C1376   1.431   .     S
C1376  C1511   1.331   .     S
C1376  H1528   1.077   .     S
C1377  H1393   1.084   .     S
C1377  C1387   1.396   .     A
C1377  C1379   1.378   .     A
C1378  C1380   1.383   .     A
C1378  C1388   1.396   .     A
C1378  H1394   1.084   .     S
C1379  C1381   1.396   .     A
C1379  H1395   1.082   .     S
C1380  C1382   1.402   .     A
C1380  H1396   1.083   .     S
C1381  C1383   1.431   .     A
C1382  C1384   1.439   .     A
C1383  C1409   1.523   .     S
C1383  C1385   1.425   .     A
C1384  C1386   1.419   .     A
C1384  C1419   1.534   .     S
C1385  C1429   1.529   .     S
C1385  C1387   1.414   .     A
C1386  C1388   1.410   .     A
C1386  C1439   1.529   .     S
C1388  C979    1.468   1_565 S
Cu1389 Cu1390  2.709   .     S
Cu1389 O1408   1.958   .     S
Cu1389 O1404   1.965   .     S
Cu1389 O1401   1.944   .     S
Cu1389 N1400   2.035   .     S
Cu1389 O1405   1.960   .     S
Cu1390 O1407   1.958   .     S
Cu1390 O1403   1.965   .     S
Cu1390 O1406   1.960   .     S
Cu1390 N1399   2.035   .     S
Cu1390 O1402   1.944   .     S
H1391  C1511   1.086   .     S
C1409  H1417   1.105   .     S
C1409  H1418   1.106   .     S
C1409  C1410   1.535   .     S
C1410  H1416   1.108   .     S
C1410  C1411   1.520   .     S
C1410  H1415   1.112   .     S
C1411  H1412   1.108   .     S
C1411  H1413   1.110   .     S
C1411  H1414   1.108   .     S
C1419  H1427   1.092   .     S
C1419  C1420   1.538   .     S
C1419  H1428   1.107   .     S
C1420  H1426   1.112   .     S
C1420  C1421   1.528   .     S
C1420  H1425   1.111   .     S
C1421  H1423   1.109   .     S
C1421  H1424   1.111   .     S
C1421  H1422   1.110   .     S
C1429  H1438   1.109   .     S
C1429  C1430   1.536   .     S
C1430  H1436   1.111   .     S
C1430  H1435   1.110   .     S
C1430  C1567   1.526   .     S
C1431  H1433   1.111   .     S
C1431  H1434   1.108   .     S
H1432  C1023   1.111   1_565 S
H1437  C1021   1.107   1_565 S
C1439  H1448   1.109   .     S
C1439  C1440   1.536   .     S
C1439  H1039   1.108   1_565 S
C1440  H1446   1.111   .     S
C1440  H1445   1.111   .     S
C1440  C1441   1.526   .     S
C1441  H1443   1.111   .     S
C1441  H1034   1.111   1_565 S
C1441  H1580   1.110   .     S
C1449  H1457   1.110   .     S
C1449  H1458   1.112   .     S
C1449  C1450   1.548   .     S
C1450  H1455   1.107   .     S
C1450  H1456   1.110   .     S
C1450  C1451   1.527   .     S
C1451  H1453   1.111   .     S
C1451  H1454   1.110   .     S
H1452  C635    1.107   1_556 S
C1459  H1468   1.111   .     S
C1459  C1460   1.541   .     S
C1459  H1467   1.106   .     S
C1460  H1465   1.108   .     S
C1460  H1466   1.112   .     S
C1460  C1461   1.527   .     S
C1461  H1462   1.110   .     S
C1461  H1463   1.111   .     S
C1461  H1464   1.111   .     S
C1469  H1471   1.110   .     S
C1469  H1472   1.109   .     S
C1469  H1470   1.083   .     S
C1473  H1476   1.108   .     S
C1473  H1474   1.099   .     S
C1473  H1475   1.099   .     S
C1477  H1486   1.092   .     S
C1477  C1478   1.535   .     S
C1477  H1485   1.112   .     S
C1478  H1484   1.112   .     S
C1478  H1483   1.111   .     S
C1479  H1481   1.110   .     S
C1479  H1482   1.109   .     S
C1479  C1614   1.524   .     S
C1479  H1616   1.110   .     S
C1487  H1496   1.107   .     S
C1487  C1488   1.538   .     S
C1487  H1495   1.091   .     S
C1488  H1493   1.111   .     S
C1488  H1494   1.110   .     S
C1488  C1625   1.527   .     S
C1489  H1492   1.111   .     S
C1489  H1491   1.111   .     S
H1490  C1625   1.110   .     S
C1497  C1517   1.473   .     S
C1497  O1539   1.303   .     A
C1497  O1537   1.308   .     A
C1498  O1540   1.296   .     A
C1498  C1518   1.484   .     S
C1498  O1538   1.321   .     A
C1499  C1501   1.435   .     A
C1499  C1585   1.538   .     S
C1499  C1507   1.427   .     A
C1500  C1508   1.421   .     A
C1500  C1502   1.426   .     A
C1500  C1595   1.527   .     S
C1501  N1535   1.393   .     A
C1501  C1605   1.512   .     S
C1502  N1536   1.384   .     A
C1502  C1609   1.506   .     S
C1503  C1613   1.511   .     S
C1503  C1505   1.409   .     A
C1503  N1535   1.384   .     A
C1504  C1623   1.516   .     S
C1504  C1506   1.407   .     A
C1504  N1536   1.386   .     A
C1505  H1533   1.078   .     S
C1505  C1507   1.400   .     A
C1506  C1508   1.396   .     A
C1506  H1534   1.068   .     S
C1508  C691    1.545   1_556 S
C1509  O1543   1.296   .     A
C1509  C1511   1.436   .     S
C1509  O1541   1.298   .     A
C1510  O1542   1.294   .     A
C1510  O1544   1.297   .     A
C1510  C1512   1.431   .     S
C1512  C1239   1.331   1_655 S
C1512  H1256   1.077   1_655 S
C1513  H1529   1.084   .     S
C1513  C1523   1.396   .     A
C1513  C1515   1.378   .     A
C1514  C1516   1.383   .     A
C1514  C1524   1.396   .     A
C1514  H1530   1.084   .     S
C1515  C1517   1.396   .     A
C1515  H1531   1.082   .     S
C1516  C1518   1.402   .     A
C1516  H1532   1.083   .     S
C1517  C1519   1.431   .     A
C1518  C1520   1.439   .     A
C1519  C1545   1.523   .     S
C1519  C1521   1.425   .     A
C1520  C1522   1.419   .     A
C1520  C1555   1.534   .     S
C1521  C1565   1.529   .     S
C1521  C1523   1.414   .     A
C1522  C1524   1.410   .     A
C1522  C1575   1.529   .     S
C1524  C1115   1.468   1_565 S
Cu1525 Cu1526  2.709   .     S
Cu1525 O1544   1.958   .     S
Cu1525 O1540   1.965   .     S
Cu1525 O1537   1.944   .     S
Cu1525 N1536   2.035   .     S
Cu1525 O1541   1.960   .     S
Cu1526 O1543   1.958   .     S
Cu1526 O1539   1.965   .     S
Cu1526 O1542   1.960   .     S
Cu1526 N1535   2.035   .     S
Cu1526 O1538   1.944   .     S
H1527  C1239   1.086   1_655 S
C1545  H1553   1.105   .     S
C1545  H1554   1.106   .     S
C1545  C1546   1.535   .     S
C1546  H1552   1.108   .     S
C1546  C1547   1.520   .     S
C1546  H1551   1.112   .     S
C1547  H1548   1.108   .     S
C1547  H1549   1.110   .     S
C1547  H1550   1.108   .     S
C1555  H1563   1.092   .     S
C1555  C1556   1.538   .     S
C1555  H1564   1.107   .     S
C1556  H1562   1.112   .     S
C1556  C1557   1.528   .     S
C1556  H1561   1.111   .     S
C1557  H1559   1.109   .     S
C1557  H1560   1.111   .     S
C1557  H1558   1.110   .     S
C1565  H1574   1.109   .     S
C1565  C1566   1.536   .     S
C1566  H1572   1.111   .     S
C1566  H1571   1.110   .     S
C1566  C1295   1.526   1_655 S
C1567  H1569   1.111   .     S
C1567  H1570   1.108   .     S
H1568  C1159   1.111   1_565 S
H1573  C1157   1.107   1_565 S
C1575  H1584   1.109   .     S
C1575  C1576   1.536   .     S
C1575  H1175   1.108   1_565 S
C1576  H1582   1.111   .     S
C1576  H1581   1.111   .     S
C1576  C1577   1.526   .     S
C1577  H1579   1.111   .     S
C1577  H1170   1.111   1_565 S
C1577  H1308   1.110   1_655 S
C1585  H1593   1.110   .     S
C1585  H1594   1.112   .     S
C1585  C1586   1.548   .     S
C1586  H1591   1.107   .     S
C1586  H1592   1.110   .     S
C1586  C1587   1.527   .     S
C1587  H1589   1.111   .     S
C1587  H1590   1.110   .     S
H1588  C771    1.107   1_556 S
C1595  H1604   1.111   .     S
C1595  C1596   1.541   .     S
C1595  H1603   1.106   .     S
C1596  H1601   1.108   .     S
C1596  H1602   1.112   .     S
C1596  C1597   1.527   .     S
C1597  H1598   1.110   .     S
C1597  H1599   1.111   .     S
C1597  H1600   1.111   .     S
C1605  H1607   1.110   .     S
C1605  H1608   1.109   .     S
C1605  H1606   1.083   .     S
C1609  H1612   1.108   .     S
C1609  H1610   1.099   .     S
C1609  H1611   1.099   .     S
C1613  H1622   1.092   .     S
C1613  C1614   1.535   .     S
C1613  H1621   1.112   .     S
C1614  H1620   1.112   .     S
C1614  H1619   1.111   .     S
C1615  H1617   1.110   .     S
C1615  H1618   1.109   .     S
C1615  C1342   1.524   1_655 S
C1615  H1344   1.110   1_655 S
C1623  H1632   1.107   .     S
C1623  C1624   1.538   .     S
C1623  H1631   1.091   .     S
C1624  H1629   1.111   .     S
C1624  H1630   1.110   .     S
C1624  C1353   1.527   1_655 S
C1625  H1628   1.111   .     S
C1625  H1627   1.111   .     S
H1626  C1353   1.110   1_655 S
