data_str_m3_o2_o10_pcu_sym.117
_audit_creation_date              2020-01-03
_audit_creation_method            'Materials Studio'
_symmetry_space_group_name_H-M    'P1'
_symmetry_Int_Tables_number       1
_symmetry_cell_setting            triclinic
loop_
_symmetry_equiv_pos_as_xyz
  x,y,z
_cell_length_a                    25.9130
_cell_length_b                    29.6509
_cell_length_c                    28.6098
_cell_angle_alpha                 90.4977
_cell_angle_beta                  98.6853
_cell_angle_gamma                 92.2034
loop_
_atom_site_label
_atom_site_type_symbol
_atom_site_fract_x
_atom_site_fract_y
_atom_site_fract_z
_atom_site_U_iso_or_equiv
_atom_site_adp_type
_atom_site_occupancy
C1     C     0.16975   0.16378   0.25026   0.00000  Uiso   1.00
C2     C     0.16488   0.33684   0.24963   0.00000  Uiso   1.00
C3     C     0.12038   0.24423   0.04395   0.00000  Uiso   1.00
C4     C     0.17012   0.29254   0.44705   0.00000  Uiso   1.00
C5     C     0.12199   0.24025   0.09369   0.00000  Uiso   1.00
C6     C     0.17784   0.28955   0.39927   0.00000  Uiso   1.00
C7     C     0.21179   0.26166   0.10811   0.00000  Uiso   1.00
C8     C     0.16346   0.21072   0.39847   0.00000  Uiso   1.00
C9     C     0.21319   0.26023   0.05851   0.00000  Uiso   1.00
C10    C     0.17227   0.21136   0.44865   0.00000  Uiso   1.00
C11    C     0.16729   0.25281   0.02578   0.00000  Uiso   1.00
C12    C     0.16942   0.25246   0.47334   0.00000  Uiso   1.00
C13    C     0.06701   0.24741   0.23810   0.00000  Uiso   1.00
C14    C     0.26609   0.25063   0.26214   0.00000  Uiso   1.00
C15    C     0.01244   0.23727   0.23547   0.00000  Uiso   1.00
C16    C     0.32047   0.25835   0.26648   0.00000  Uiso   1.00
C17    C     0.23536   0.05428   0.28352   0.00000  Uiso   1.00
C18    C     0.20824   0.45078   0.21200   0.00000  Uiso   1.00
C19    C     0.22366   0.10026   0.28436   0.00000  Uiso   1.00
C20    C     0.18384   0.40777   0.20779   0.00000  Uiso   1.00
C21    C     0.18198   0.11622   0.25122   0.00000  Uiso   1.00
C22    C     0.16997   0.38651   0.24875   0.00000  Uiso   1.00
C23    C     0.15403   0.08654   0.21718   0.00000  Uiso   1.00
C24    C     0.16804   0.41320   0.28953   0.00000  Uiso   1.00
C25    C     0.16564   0.04178   0.21719   0.00000  Uiso   1.00
C26    C     0.18647   0.45766   0.29118   0.00000  Uiso   1.00
C27    C     0.20560   0.02537   0.24989   0.00000  Uiso   1.00
C28    C     0.20681   0.47650   0.25308   0.00000  Uiso   1.00
H29    H     0.14154   0.01888   0.19249   0.00000  Uiso   1.00
H30    H     0.18071   0.47896   0.32082   0.00000  Uiso   1.00
N31    N     0.16667   0.24999   0.12624   0.00000  Uiso   1.00
N32    N     0.16667   0.25001   0.37377   0.00000  Uiso   1.00
O33    O     0.16667   0.18454   0.28974   0.00000  Uiso   1.00
O34    O     0.16666   0.31547   0.21026   0.00000  Uiso   1.00
O35    O     0.16667   0.18453   0.21026   0.00000  Uiso   1.00
O36    O     0.16666   0.31547   0.28974   0.00000  Uiso   1.00
O37    O     0.09058   0.25000   0.28045   0.00000  Uiso   1.00
O38    O     0.24275   0.25000   0.21956   0.00000  Uiso   1.00
O39    O     0.09058   0.25000   0.20097   0.00000  Uiso   1.00
O40    O     0.24275   0.25001   0.29904   0.00000  Uiso   1.00
Zn41   Zn    0.16667   0.25001   0.30307   0.00000  Uiso   1.00
Zn42   Zn    0.16667   0.25000   0.19693   0.00000  Uiso   1.00
I43    I     0.31592   0.17337   0.20511   0.00000  Uiso   1.00
I44    I     0.01458   0.31687   0.30719   0.00000  Uiso   1.00
I45    I     0.29711   0.02703   0.33194   0.00000  Uiso   1.00
I46    I     0.24396   0.47910   0.15552   0.00000  Uiso   1.00
I47    I     0.27073   0.14457   0.33460   0.00000  Uiso   1.00
I48    I     0.15119   0.38492   0.13750   0.00000  Uiso   1.00
I49    I     0.09062   0.10353   0.16594   0.00000  Uiso   1.00
I50    I     0.12393   0.39667   0.34399   0.00000  Uiso   1.00
O51    O     0.07173   0.25076   0.01688   0.00000  Uiso   1.00
C52    C     0.05495   0.21747   0.48124   0.00000  Uiso   1.00
H53    H     0.07871   0.21795   0.45278   0.00000  Uiso   1.00
H54    H     0.01621   0.22719   0.46291   0.00000  Uiso   1.00
C55    C     0.04731   0.16975   0.49966   0.00000  Uiso   1.00
H56    H     0.01305   0.16795   0.01869   0.00000  Uiso   1.00
H57    H     0.03927   0.14557   0.46937   0.00000  Uiso   1.00
H58    H     0.08251   0.15924   0.02335   0.00000  Uiso   1.00
O59    O     0.15312   0.33274   0.46334   0.00000  Uiso   1.00
C60    C     0.19302   0.35598   0.49439   0.00000  Uiso   1.00
H61    H     0.23251   0.35214   0.48448   0.00000  Uiso   1.00
H62    H     0.19260   0.34428   0.03100   0.00000  Uiso   1.00
C63    C     0.18235   0.40606   0.49376   0.00000  Uiso   1.00
H64    H     0.14346   0.41152   0.00421   0.00000  Uiso   1.00
H65    H     0.21272   0.42463   0.01904   0.00000  Uiso   1.00
H66    H     0.18312   0.41946   0.45774   0.00000  Uiso   1.00
I67    I     0.05159   0.21267   0.11108   0.00000  Uiso   1.00
I68    I     0.23872   0.33345   0.38266   0.00000  Uiso   1.00
O69    O     0.25788   0.27198   0.13799   0.00000  Uiso   1.00
C70    C     0.26593   0.31944   0.14229   0.00000  Uiso   1.00
H71    H     0.24671   0.33198   0.17162   0.00000  Uiso   1.00
H72    H     0.25091   0.33768   0.10938   0.00000  Uiso   1.00
C73    C     0.32406   0.33166   0.15433   0.00000  Uiso   1.00
H74    H     0.01241   0.31725   0.12749   0.00000  Uiso   1.00
H75    H     0.33029   0.36894   0.15515   0.00000  Uiso   1.00
H76    H     0.00643   0.31874   0.18958   0.00000  Uiso   1.00
O77    O     0.15603   0.16979   0.37484   0.00000  Uiso   1.00
C78    C     0.10209   0.15792   0.36800   0.00000  Uiso   1.00
H79    H     0.07932   0.18323   0.34588   0.00000  Uiso   1.00
H80    H     0.08731   0.15493   0.40240   0.00000  Uiso   1.00
C81    C     0.09286   0.11218   0.34309   0.00000  Uiso   1.00
H82    H     0.11753   0.08674   0.36288   0.00000  Uiso   1.00
H83    H     0.05126   0.10119   0.34111   0.00000  Uiso   1.00
H84    H     0.10204   0.11435   0.30659   0.00000  Uiso   1.00
I85    I     0.28497   0.27294   0.03271   0.00000  Uiso   1.00
I86    I     0.18568   0.14969   0.48528   0.00000  Uiso   1.00
C87    C     0.50309   0.16378   0.25026   0.00000  Uiso   1.00
C88    C     0.49821   0.33684   0.24963   0.00000  Uiso   1.00
C89    C     0.45371   0.24423   0.04395   0.00000  Uiso   1.00
C90    C     0.50346   0.29254   0.44705   0.00000  Uiso   1.00
C91    C     0.45533   0.24025   0.09369   0.00000  Uiso   1.00
C92    C     0.51117   0.28955   0.39927   0.00000  Uiso   1.00
C93    C     0.54513   0.26166   0.10811   0.00000  Uiso   1.00
C94    C     0.49680   0.21072   0.39847   0.00000  Uiso   1.00
C95    C     0.54653   0.26023   0.05851   0.00000  Uiso   1.00
C96    C     0.50560   0.21136   0.44865   0.00000  Uiso   1.00
C97    C     0.50063   0.25281   0.02578   0.00000  Uiso   1.00
C98    C     0.50275   0.25246   0.47334   0.00000  Uiso   1.00
C99    C     0.40035   0.24741   0.23810   0.00000  Uiso   1.00
C100   C     0.59943   0.25063   0.26214   0.00000  Uiso   1.00
C101   C     0.34577   0.23727   0.23547   0.00000  Uiso   1.00
C102   C     0.65381   0.25835   0.26648   0.00000  Uiso   1.00
C103   C     0.56869   0.05428   0.28352   0.00000  Uiso   1.00
C104   C     0.54157   0.45078   0.21200   0.00000  Uiso   1.00
C105   C     0.55699   0.10026   0.28436   0.00000  Uiso   1.00
C106   C     0.51717   0.40777   0.20779   0.00000  Uiso   1.00
C107   C     0.51531   0.11622   0.25122   0.00000  Uiso   1.00
C108   C     0.50330   0.38651   0.24875   0.00000  Uiso   1.00
C109   C     0.48737   0.08654   0.21718   0.00000  Uiso   1.00
C110   C     0.50137   0.41320   0.28953   0.00000  Uiso   1.00
C111   C     0.49897   0.04178   0.21719   0.00000  Uiso   1.00
C112   C     0.51980   0.45766   0.29118   0.00000  Uiso   1.00
C113   C     0.53893   0.02537   0.24989   0.00000  Uiso   1.00
C114   C     0.54014   0.47650   0.25308   0.00000  Uiso   1.00
H115   H     0.47487   0.01888   0.19249   0.00000  Uiso   1.00
H116   H     0.51404   0.47896   0.32082   0.00000  Uiso   1.00
N117   N     0.50000   0.24999   0.12624   0.00000  Uiso   1.00
N118   N     0.50000   0.25001   0.37377   0.00000  Uiso   1.00
O119   O     0.50000   0.18454   0.28974   0.00000  Uiso   1.00
O120   O     0.50000   0.31547   0.21026   0.00000  Uiso   1.00
O121   O     0.50000   0.18453   0.21026   0.00000  Uiso   1.00
O122   O     0.50000   0.31547   0.28974   0.00000  Uiso   1.00
O123   O     0.42392   0.25000   0.28045   0.00000  Uiso   1.00
O124   O     0.57608   0.25000   0.21956   0.00000  Uiso   1.00
O125   O     0.42392   0.25000   0.20097   0.00000  Uiso   1.00
O126   O     0.57608   0.25001   0.29904   0.00000  Uiso   1.00
Zn127  Zn    0.50000   0.25001   0.30307   0.00000  Uiso   1.00
Zn128  Zn    0.50000   0.25000   0.19693   0.00000  Uiso   1.00
I129   I     0.64925   0.17337   0.20511   0.00000  Uiso   1.00
I130   I     0.34792   0.31687   0.30719   0.00000  Uiso   1.00
I131   I     0.63044   0.02703   0.33194   0.00000  Uiso   1.00
I132   I     0.57729   0.47910   0.15552   0.00000  Uiso   1.00
I133   I     0.60406   0.14457   0.33460   0.00000  Uiso   1.00
I134   I     0.48452   0.38492   0.13750   0.00000  Uiso   1.00
I135   I     0.42395   0.10353   0.16594   0.00000  Uiso   1.00
I136   I     0.45726   0.39667   0.34399   0.00000  Uiso   1.00
O137   O     0.40507   0.25076   0.01688   0.00000  Uiso   1.00
C138   C     0.38829   0.21747   0.48124   0.00000  Uiso   1.00
H139   H     0.41205   0.21795   0.45278   0.00000  Uiso   1.00
H140   H     0.34954   0.22719   0.46291   0.00000  Uiso   1.00
C141   C     0.38064   0.16975   0.49966   0.00000  Uiso   1.00
H142   H     0.34639   0.16795   0.01869   0.00000  Uiso   1.00
H143   H     0.37260   0.14557   0.46937   0.00000  Uiso   1.00
H144   H     0.41584   0.15924   0.02335   0.00000  Uiso   1.00
O145   O     0.48645   0.33274   0.46334   0.00000  Uiso   1.00
C146   C     0.52635   0.35598   0.49439   0.00000  Uiso   1.00
H147   H     0.56585   0.35214   0.48448   0.00000  Uiso   1.00
H148   H     0.52593   0.34428   0.03100   0.00000  Uiso   1.00
C149   C     0.51568   0.40606   0.49376   0.00000  Uiso   1.00
H150   H     0.47679   0.41152   0.00421   0.00000  Uiso   1.00
H151   H     0.54605   0.42463   0.01904   0.00000  Uiso   1.00
H152   H     0.51645   0.41946   0.45774   0.00000  Uiso   1.00
I153   I     0.38492   0.21267   0.11108   0.00000  Uiso   1.00
I154   I     0.57205   0.33345   0.38266   0.00000  Uiso   1.00
O155   O     0.59121   0.27198   0.13799   0.00000  Uiso   1.00
C156   C     0.59926   0.31944   0.14229   0.00000  Uiso   1.00
H157   H     0.58004   0.33198   0.17162   0.00000  Uiso   1.00
H158   H     0.58424   0.33768   0.10938   0.00000  Uiso   1.00
C159   C     0.65739   0.33166   0.15433   0.00000  Uiso   1.00
H160   H     0.34574   0.31725   0.12749   0.00000  Uiso   1.00
H161   H     0.66363   0.36894   0.15515   0.00000  Uiso   1.00
H162   H     0.33976   0.31874   0.18958   0.00000  Uiso   1.00
O163   O     0.48936   0.16979   0.37484   0.00000  Uiso   1.00
C164   C     0.43543   0.15792   0.36800   0.00000  Uiso   1.00
H165   H     0.41266   0.18323   0.34588   0.00000  Uiso   1.00
H166   H     0.42065   0.15493   0.40240   0.00000  Uiso   1.00
C167   C     0.42619   0.11218   0.34309   0.00000  Uiso   1.00
H168   H     0.45087   0.08674   0.36288   0.00000  Uiso   1.00
H169   H     0.38459   0.10119   0.34111   0.00000  Uiso   1.00
H170   H     0.43538   0.11435   0.30659   0.00000  Uiso   1.00
I171   I     0.61831   0.27294   0.03271   0.00000  Uiso   1.00
I172   I     0.51901   0.14969   0.48528   0.00000  Uiso   1.00
C173   C     0.83642   0.16378   0.25026   0.00000  Uiso   1.00
C174   C     0.83155   0.33684   0.24963   0.00000  Uiso   1.00
C175   C     0.78704   0.24423   0.04395   0.00000  Uiso   1.00
C176   C     0.83679   0.29254   0.44705   0.00000  Uiso   1.00
C177   C     0.78866   0.24025   0.09369   0.00000  Uiso   1.00
C178   C     0.84451   0.28955   0.39927   0.00000  Uiso   1.00
C179   C     0.87846   0.26166   0.10811   0.00000  Uiso   1.00
C180   C     0.83013   0.21072   0.39847   0.00000  Uiso   1.00
C181   C     0.87986   0.26023   0.05851   0.00000  Uiso   1.00
C182   C     0.83893   0.21136   0.44865   0.00000  Uiso   1.00
C183   C     0.83396   0.25281   0.02578   0.00000  Uiso   1.00
C184   C     0.83608   0.25246   0.47334   0.00000  Uiso   1.00
C185   C     0.73368   0.24741   0.23810   0.00000  Uiso   1.00
C186   C     0.93276   0.25063   0.26214   0.00000  Uiso   1.00
C187   C     0.67911   0.23727   0.23547   0.00000  Uiso   1.00
C188   C     0.98714   0.25835   0.26648   0.00000  Uiso   1.00
C189   C     0.90203   0.05428   0.28352   0.00000  Uiso   1.00
C190   C     0.87491   0.45078   0.21200   0.00000  Uiso   1.00
C191   C     0.89032   0.10026   0.28436   0.00000  Uiso   1.00
C192   C     0.85050   0.40777   0.20779   0.00000  Uiso   1.00
C193   C     0.84864   0.11622   0.25122   0.00000  Uiso   1.00
C194   C     0.83663   0.38651   0.24875   0.00000  Uiso   1.00
C195   C     0.82070   0.08654   0.21718   0.00000  Uiso   1.00
C196   C     0.83471   0.41320   0.28953   0.00000  Uiso   1.00
C197   C     0.83231   0.04178   0.21719   0.00000  Uiso   1.00
C198   C     0.85314   0.45766   0.29118   0.00000  Uiso   1.00
C199   C     0.87227   0.02537   0.24989   0.00000  Uiso   1.00
C200   C     0.87348   0.47650   0.25308   0.00000  Uiso   1.00
H201   H     0.80820   0.01888   0.19249   0.00000  Uiso   1.00
H202   H     0.84738   0.47896   0.32082   0.00000  Uiso   1.00
N203   N     0.83333   0.24999   0.12624   0.00000  Uiso   1.00
N204   N     0.83333   0.25001   0.37377   0.00000  Uiso   1.00
O205   O     0.83334   0.18454   0.28974   0.00000  Uiso   1.00
O206   O     0.83333   0.31547   0.21026   0.00000  Uiso   1.00
O207   O     0.83334   0.18453   0.21026   0.00000  Uiso   1.00
O208   O     0.83333   0.31547   0.28974   0.00000  Uiso   1.00
O209   O     0.75725   0.25000   0.28045   0.00000  Uiso   1.00
O210   O     0.90942   0.25000   0.21956   0.00000  Uiso   1.00
O211   O     0.75725   0.25000   0.20097   0.00000  Uiso   1.00
O212   O     0.90942   0.25001   0.29904   0.00000  Uiso   1.00
Zn213  Zn    0.83333   0.25001   0.30307   0.00000  Uiso   1.00
Zn214  Zn    0.83333   0.25000   0.19693   0.00000  Uiso   1.00
I215   I     0.98258   0.17337   0.20511   0.00000  Uiso   1.00
I216   I     0.68125   0.31687   0.30719   0.00000  Uiso   1.00
I217   I     0.96377   0.02703   0.33194   0.00000  Uiso   1.00
I218   I     0.91063   0.47910   0.15552   0.00000  Uiso   1.00
I219   I     0.93740   0.14457   0.33460   0.00000  Uiso   1.00
I220   I     0.81786   0.38492   0.13750   0.00000  Uiso   1.00
I221   I     0.75729   0.10353   0.16594   0.00000  Uiso   1.00
I222   I     0.79059   0.39667   0.34399   0.00000  Uiso   1.00
O223   O     0.73840   0.25076   0.01688   0.00000  Uiso   1.00
C224   C     0.72162   0.21747   0.48124   0.00000  Uiso   1.00
H225   H     0.74538   0.21795   0.45278   0.00000  Uiso   1.00
H226   H     0.68288   0.22719   0.46291   0.00000  Uiso   1.00
C227   C     0.71398   0.16975   0.49966   0.00000  Uiso   1.00
H228   H     0.67972   0.16795   0.01869   0.00000  Uiso   1.00
H229   H     0.70593   0.14557   0.46937   0.00000  Uiso   1.00
H230   H     0.74918   0.15924   0.02335   0.00000  Uiso   1.00
O231   O     0.81978   0.33274   0.46334   0.00000  Uiso   1.00
C232   C     0.85969   0.35598   0.49439   0.00000  Uiso   1.00
H233   H     0.89918   0.35214   0.48448   0.00000  Uiso   1.00
H234   H     0.85927   0.34428   0.03100   0.00000  Uiso   1.00
C235   C     0.84901   0.40606   0.49376   0.00000  Uiso   1.00
H236   H     0.81013   0.41152   0.00421   0.00000  Uiso   1.00
H237   H     0.87938   0.42463   0.01904   0.00000  Uiso   1.00
H238   H     0.84979   0.41946   0.45774   0.00000  Uiso   1.00
I239   I     0.71826   0.21267   0.11108   0.00000  Uiso   1.00
I240   I     0.90539   0.33345   0.38266   0.00000  Uiso   1.00
O241   O     0.92454   0.27198   0.13799   0.00000  Uiso   1.00
C242   C     0.93260   0.31944   0.14229   0.00000  Uiso   1.00
H243   H     0.91337   0.33198   0.17162   0.00000  Uiso   1.00
H244   H     0.91758   0.33768   0.10938   0.00000  Uiso   1.00
C245   C     0.99073   0.33166   0.15433   0.00000  Uiso   1.00
H246   H     0.67907   0.31725   0.12749   0.00000  Uiso   1.00
H247   H     0.99696   0.36894   0.15515   0.00000  Uiso   1.00
H248   H     0.67310   0.31874   0.18958   0.00000  Uiso   1.00
O249   O     0.82269   0.16979   0.37484   0.00000  Uiso   1.00
C250   C     0.76876   0.15792   0.36800   0.00000  Uiso   1.00
H251   H     0.74599   0.18323   0.34588   0.00000  Uiso   1.00
H252   H     0.75398   0.15493   0.40240   0.00000  Uiso   1.00
C253   C     0.75953   0.11218   0.34309   0.00000  Uiso   1.00
H254   H     0.78420   0.08674   0.36288   0.00000  Uiso   1.00
H255   H     0.71792   0.10119   0.34111   0.00000  Uiso   1.00
H256   H     0.76871   0.11435   0.30659   0.00000  Uiso   1.00
I257   I     0.95164   0.27294   0.03271   0.00000  Uiso   1.00
I258   I     0.85235   0.14969   0.48528   0.00000  Uiso   1.00
C259   C     0.16975   0.66378   0.25026   0.00000  Uiso   1.00
C260   C     0.16488   0.83684   0.24963   0.00000  Uiso   1.00
C261   C     0.12038   0.74423   0.04395   0.00000  Uiso   1.00
C262   C     0.17012   0.79254   0.44705   0.00000  Uiso   1.00
C263   C     0.12199   0.74025   0.09369   0.00000  Uiso   1.00
C264   C     0.17784   0.78955   0.39927   0.00000  Uiso   1.00
C265   C     0.21179   0.76166   0.10811   0.00000  Uiso   1.00
C266   C     0.16346   0.71072   0.39847   0.00000  Uiso   1.00
C267   C     0.21319   0.76023   0.05851   0.00000  Uiso   1.00
C268   C     0.17227   0.71136   0.44865   0.00000  Uiso   1.00
C269   C     0.16729   0.75281   0.02578   0.00000  Uiso   1.00
C270   C     0.16942   0.75246   0.47334   0.00000  Uiso   1.00
C271   C     0.06701   0.74741   0.23810   0.00000  Uiso   1.00
C272   C     0.26609   0.75063   0.26214   0.00000  Uiso   1.00
C273   C     0.01244   0.73727   0.23547   0.00000  Uiso   1.00
C274   C     0.32047   0.75835   0.26648   0.00000  Uiso   1.00
C275   C     0.23536   0.55428   0.28352   0.00000  Uiso   1.00
C276   C     0.20824   0.95078   0.21200   0.00000  Uiso   1.00
C277   C     0.22366   0.60026   0.28436   0.00000  Uiso   1.00
C278   C     0.18384   0.90777   0.20779   0.00000  Uiso   1.00
C279   C     0.18198   0.61622   0.25122   0.00000  Uiso   1.00
C280   C     0.16997   0.88651   0.24875   0.00000  Uiso   1.00
C281   C     0.15403   0.58654   0.21718   0.00000  Uiso   1.00
C282   C     0.16804   0.91320   0.28953   0.00000  Uiso   1.00
C283   C     0.16564   0.54178   0.21719   0.00000  Uiso   1.00
C284   C     0.18647   0.95766   0.29118   0.00000  Uiso   1.00
C285   C     0.20560   0.52537   0.24989   0.00000  Uiso   1.00
C286   C     0.20681   0.97650   0.25308   0.00000  Uiso   1.00
H287   H     0.14154   0.51888   0.19249   0.00000  Uiso   1.00
H288   H     0.18071   0.97896   0.32082   0.00000  Uiso   1.00
N289   N     0.16667   0.74999   0.12624   0.00000  Uiso   1.00
N290   N     0.16667   0.75001   0.37377   0.00000  Uiso   1.00
O291   O     0.16667   0.68454   0.28974   0.00000  Uiso   1.00
O292   O     0.16666   0.81547   0.21026   0.00000  Uiso   1.00
O293   O     0.16667   0.68453   0.21026   0.00000  Uiso   1.00
O294   O     0.16666   0.81547   0.28974   0.00000  Uiso   1.00
O295   O     0.09058   0.75000   0.28045   0.00000  Uiso   1.00
O296   O     0.24275   0.75000   0.21956   0.00000  Uiso   1.00
O297   O     0.09058   0.75000   0.20097   0.00000  Uiso   1.00
O298   O     0.24275   0.75001   0.29904   0.00000  Uiso   1.00
Zn299  Zn    0.16667   0.75001   0.30307   0.00000  Uiso   1.00
Zn300  Zn    0.16667   0.75000   0.19693   0.00000  Uiso   1.00
I301   I     0.31592   0.67337   0.20511   0.00000  Uiso   1.00
I302   I     0.01458   0.81687   0.30719   0.00000  Uiso   1.00
I303   I     0.29711   0.52703   0.33194   0.00000  Uiso   1.00
I304   I     0.24396   0.97910   0.15552   0.00000  Uiso   1.00
I305   I     0.27073   0.64457   0.33460   0.00000  Uiso   1.00
I306   I     0.15119   0.88492   0.13750   0.00000  Uiso   1.00
I307   I     0.09062   0.60353   0.16594   0.00000  Uiso   1.00
I308   I     0.12393   0.89667   0.34399   0.00000  Uiso   1.00
O309   O     0.07173   0.75076   0.01688   0.00000  Uiso   1.00
C310   C     0.05495   0.71747   0.48124   0.00000  Uiso   1.00
H311   H     0.07871   0.71795   0.45278   0.00000  Uiso   1.00
H312   H     0.01621   0.72719   0.46291   0.00000  Uiso   1.00
C313   C     0.04731   0.66975   0.49966   0.00000  Uiso   1.00
H314   H     0.01305   0.66795   0.01869   0.00000  Uiso   1.00
H315   H     0.03927   0.64557   0.46937   0.00000  Uiso   1.00
H316   H     0.08251   0.65924   0.02335   0.00000  Uiso   1.00
O317   O     0.15312   0.83274   0.46334   0.00000  Uiso   1.00
C318   C     0.19302   0.85598   0.49439   0.00000  Uiso   1.00
H319   H     0.23251   0.85214   0.48448   0.00000  Uiso   1.00
H320   H     0.19260   0.84428   0.03100   0.00000  Uiso   1.00
C321   C     0.18235   0.90606   0.49376   0.00000  Uiso   1.00
H322   H     0.14346   0.91152   0.00421   0.00000  Uiso   1.00
H323   H     0.21272   0.92463   0.01904   0.00000  Uiso   1.00
H324   H     0.18312   0.91946   0.45774   0.00000  Uiso   1.00
I325   I     0.05159   0.71267   0.11108   0.00000  Uiso   1.00
I326   I     0.23872   0.83345   0.38266   0.00000  Uiso   1.00
O327   O     0.25788   0.77198   0.13799   0.00000  Uiso   1.00
C328   C     0.26593   0.81944   0.14229   0.00000  Uiso   1.00
H329   H     0.24671   0.83198   0.17162   0.00000  Uiso   1.00
H330   H     0.25091   0.83768   0.10938   0.00000  Uiso   1.00
C331   C     0.32406   0.83166   0.15433   0.00000  Uiso   1.00
H332   H     0.01241   0.81725   0.12749   0.00000  Uiso   1.00
H333   H     0.33029   0.86894   0.15515   0.00000  Uiso   1.00
H334   H     0.00643   0.81874   0.18958   0.00000  Uiso   1.00
O335   O     0.15603   0.66979   0.37484   0.00000  Uiso   1.00
C336   C     0.10209   0.65792   0.36800   0.00000  Uiso   1.00
H337   H     0.07932   0.68323   0.34588   0.00000  Uiso   1.00
H338   H     0.08731   0.65493   0.40240   0.00000  Uiso   1.00
C339   C     0.09286   0.61218   0.34309   0.00000  Uiso   1.00
H340   H     0.11753   0.58674   0.36288   0.00000  Uiso   1.00
H341   H     0.05126   0.60119   0.34111   0.00000  Uiso   1.00
H342   H     0.10204   0.61435   0.30659   0.00000  Uiso   1.00
I343   I     0.28497   0.77294   0.03271   0.00000  Uiso   1.00
I344   I     0.18568   0.64969   0.48528   0.00000  Uiso   1.00
C345   C     0.50309   0.66378   0.25026   0.00000  Uiso   1.00
C346   C     0.49821   0.83684   0.24963   0.00000  Uiso   1.00
C347   C     0.45371   0.74423   0.04395   0.00000  Uiso   1.00
C348   C     0.50346   0.79254   0.44705   0.00000  Uiso   1.00
C349   C     0.45533   0.74025   0.09369   0.00000  Uiso   1.00
C350   C     0.51117   0.78955   0.39927   0.00000  Uiso   1.00
C351   C     0.54513   0.76166   0.10811   0.00000  Uiso   1.00
C352   C     0.49680   0.71072   0.39847   0.00000  Uiso   1.00
C353   C     0.54653   0.76023   0.05851   0.00000  Uiso   1.00
C354   C     0.50560   0.71136   0.44865   0.00000  Uiso   1.00
C355   C     0.50063   0.75281   0.02578   0.00000  Uiso   1.00
C356   C     0.50275   0.75246   0.47334   0.00000  Uiso   1.00
C357   C     0.40035   0.74741   0.23810   0.00000  Uiso   1.00
C358   C     0.59943   0.75063   0.26214   0.00000  Uiso   1.00
C359   C     0.34577   0.73727   0.23547   0.00000  Uiso   1.00
C360   C     0.65381   0.75835   0.26648   0.00000  Uiso   1.00
C361   C     0.56869   0.55428   0.28352   0.00000  Uiso   1.00
C362   C     0.54157   0.95078   0.21200   0.00000  Uiso   1.00
C363   C     0.55699   0.60026   0.28436   0.00000  Uiso   1.00
C364   C     0.51717   0.90777   0.20779   0.00000  Uiso   1.00
C365   C     0.51531   0.61622   0.25122   0.00000  Uiso   1.00
C366   C     0.50330   0.88651   0.24875   0.00000  Uiso   1.00
C367   C     0.48737   0.58654   0.21718   0.00000  Uiso   1.00
C368   C     0.50137   0.91320   0.28953   0.00000  Uiso   1.00
C369   C     0.49897   0.54178   0.21719   0.00000  Uiso   1.00
C370   C     0.51980   0.95766   0.29118   0.00000  Uiso   1.00
C371   C     0.53893   0.52537   0.24989   0.00000  Uiso   1.00
C372   C     0.54014   0.97650   0.25308   0.00000  Uiso   1.00
H373   H     0.47487   0.51888   0.19249   0.00000  Uiso   1.00
H374   H     0.51404   0.97896   0.32082   0.00000  Uiso   1.00
N375   N     0.50000   0.74999   0.12624   0.00000  Uiso   1.00
N376   N     0.50000   0.75001   0.37377   0.00000  Uiso   1.00
O377   O     0.50000   0.68454   0.28974   0.00000  Uiso   1.00
O378   O     0.50000   0.81547   0.21026   0.00000  Uiso   1.00
O379   O     0.50000   0.68453   0.21026   0.00000  Uiso   1.00
O380   O     0.50000   0.81547   0.28974   0.00000  Uiso   1.00
O381   O     0.42392   0.75000   0.28045   0.00000  Uiso   1.00
O382   O     0.57608   0.75000   0.21956   0.00000  Uiso   1.00
O383   O     0.42392   0.75000   0.20097   0.00000  Uiso   1.00
O384   O     0.57608   0.75001   0.29904   0.00000  Uiso   1.00
Zn385  Zn    0.50000   0.75001   0.30307   0.00000  Uiso   1.00
Zn386  Zn    0.50000   0.75000   0.19693   0.00000  Uiso   1.00
I387   I     0.64925   0.67337   0.20511   0.00000  Uiso   1.00
I388   I     0.34792   0.81687   0.30719   0.00000  Uiso   1.00
I389   I     0.63044   0.52703   0.33194   0.00000  Uiso   1.00
I390   I     0.57729   0.97910   0.15552   0.00000  Uiso   1.00
I391   I     0.60406   0.64457   0.33460   0.00000  Uiso   1.00
I392   I     0.48452   0.88492   0.13750   0.00000  Uiso   1.00
I393   I     0.42395   0.60353   0.16594   0.00000  Uiso   1.00
I394   I     0.45726   0.89667   0.34399   0.00000  Uiso   1.00
O395   O     0.40507   0.75076   0.01688   0.00000  Uiso   1.00
C396   C     0.38829   0.71747   0.48124   0.00000  Uiso   1.00
H397   H     0.41205   0.71795   0.45278   0.00000  Uiso   1.00
H398   H     0.34954   0.72719   0.46291   0.00000  Uiso   1.00
C399   C     0.38064   0.66975   0.49966   0.00000  Uiso   1.00
H400   H     0.34639   0.66795   0.01869   0.00000  Uiso   1.00
H401   H     0.37260   0.64557   0.46937   0.00000  Uiso   1.00
H402   H     0.41584   0.65924   0.02335   0.00000  Uiso   1.00
O403   O     0.48645   0.83274   0.46334   0.00000  Uiso   1.00
C404   C     0.52635   0.85598   0.49439   0.00000  Uiso   1.00
H405   H     0.56585   0.85214   0.48448   0.00000  Uiso   1.00
H406   H     0.52593   0.84428   0.03100   0.00000  Uiso   1.00
C407   C     0.51568   0.90606   0.49376   0.00000  Uiso   1.00
H408   H     0.47679   0.91152   0.00421   0.00000  Uiso   1.00
H409   H     0.54605   0.92463   0.01904   0.00000  Uiso   1.00
H410   H     0.51645   0.91946   0.45774   0.00000  Uiso   1.00
I411   I     0.38492   0.71267   0.11108   0.00000  Uiso   1.00
I412   I     0.57205   0.83345   0.38266   0.00000  Uiso   1.00
O413   O     0.59121   0.77198   0.13799   0.00000  Uiso   1.00
C414   C     0.59926   0.81944   0.14229   0.00000  Uiso   1.00
H415   H     0.58004   0.83198   0.17162   0.00000  Uiso   1.00
H416   H     0.58424   0.83768   0.10938   0.00000  Uiso   1.00
C417   C     0.65739   0.83166   0.15433   0.00000  Uiso   1.00
H418   H     0.34574   0.81725   0.12749   0.00000  Uiso   1.00
H419   H     0.66363   0.86894   0.15515   0.00000  Uiso   1.00
H420   H     0.33976   0.81874   0.18958   0.00000  Uiso   1.00
O421   O     0.48936   0.66979   0.37484   0.00000  Uiso   1.00
C422   C     0.43543   0.65792   0.36800   0.00000  Uiso   1.00
H423   H     0.41266   0.68323   0.34588   0.00000  Uiso   1.00
H424   H     0.42065   0.65493   0.40240   0.00000  Uiso   1.00
C425   C     0.42619   0.61218   0.34309   0.00000  Uiso   1.00
H426   H     0.45087   0.58674   0.36288   0.00000  Uiso   1.00
H427   H     0.38459   0.60119   0.34111   0.00000  Uiso   1.00
H428   H     0.43538   0.61435   0.30659   0.00000  Uiso   1.00
I429   I     0.61831   0.77294   0.03271   0.00000  Uiso   1.00
I430   I     0.51901   0.64969   0.48528   0.00000  Uiso   1.00
C431   C     0.83642   0.66378   0.25026   0.00000  Uiso   1.00
C432   C     0.83155   0.83684   0.24963   0.00000  Uiso   1.00
C433   C     0.78704   0.74423   0.04395   0.00000  Uiso   1.00
C434   C     0.83679   0.79254   0.44705   0.00000  Uiso   1.00
C435   C     0.78866   0.74025   0.09369   0.00000  Uiso   1.00
C436   C     0.84451   0.78955   0.39927   0.00000  Uiso   1.00
C437   C     0.87846   0.76166   0.10811   0.00000  Uiso   1.00
C438   C     0.83013   0.71072   0.39847   0.00000  Uiso   1.00
C439   C     0.87986   0.76023   0.05851   0.00000  Uiso   1.00
C440   C     0.83893   0.71136   0.44865   0.00000  Uiso   1.00
C441   C     0.83396   0.75281   0.02578   0.00000  Uiso   1.00
C442   C     0.83608   0.75246   0.47334   0.00000  Uiso   1.00
C443   C     0.73368   0.74741   0.23810   0.00000  Uiso   1.00
C444   C     0.93276   0.75063   0.26214   0.00000  Uiso   1.00
C445   C     0.67911   0.73727   0.23547   0.00000  Uiso   1.00
C446   C     0.98714   0.75835   0.26648   0.00000  Uiso   1.00
C447   C     0.90203   0.55428   0.28352   0.00000  Uiso   1.00
C448   C     0.87491   0.95078   0.21200   0.00000  Uiso   1.00
C449   C     0.89032   0.60026   0.28436   0.00000  Uiso   1.00
C450   C     0.85050   0.90777   0.20779   0.00000  Uiso   1.00
C451   C     0.84864   0.61622   0.25122   0.00000  Uiso   1.00
C452   C     0.83663   0.88651   0.24875   0.00000  Uiso   1.00
C453   C     0.82070   0.58654   0.21718   0.00000  Uiso   1.00
C454   C     0.83471   0.91320   0.28953   0.00000  Uiso   1.00
C455   C     0.83231   0.54178   0.21719   0.00000  Uiso   1.00
C456   C     0.85314   0.95766   0.29118   0.00000  Uiso   1.00
C457   C     0.87227   0.52537   0.24989   0.00000  Uiso   1.00
C458   C     0.87348   0.97650   0.25308   0.00000  Uiso   1.00
H459   H     0.80820   0.51888   0.19249   0.00000  Uiso   1.00
H460   H     0.84738   0.97896   0.32082   0.00000  Uiso   1.00
N461   N     0.83333   0.74999   0.12624   0.00000  Uiso   1.00
N462   N     0.83333   0.75001   0.37377   0.00000  Uiso   1.00
O463   O     0.83334   0.68454   0.28974   0.00000  Uiso   1.00
O464   O     0.83333   0.81547   0.21026   0.00000  Uiso   1.00
O465   O     0.83334   0.68453   0.21026   0.00000  Uiso   1.00
O466   O     0.83333   0.81547   0.28974   0.00000  Uiso   1.00
O467   O     0.75725   0.75000   0.28045   0.00000  Uiso   1.00
O468   O     0.90942   0.75000   0.21956   0.00000  Uiso   1.00
O469   O     0.75725   0.75000   0.20097   0.00000  Uiso   1.00
O470   O     0.90942   0.75001   0.29904   0.00000  Uiso   1.00
Zn471  Zn    0.83333   0.75001   0.30307   0.00000  Uiso   1.00
Zn472  Zn    0.83333   0.75000   0.19693   0.00000  Uiso   1.00
I473   I     0.98258   0.67337   0.20511   0.00000  Uiso   1.00
I474   I     0.68125   0.81687   0.30719   0.00000  Uiso   1.00
I475   I     0.96377   0.52703   0.33194   0.00000  Uiso   1.00
I476   I     0.91063   0.97910   0.15552   0.00000  Uiso   1.00
I477   I     0.93740   0.64457   0.33460   0.00000  Uiso   1.00
I478   I     0.81786   0.88492   0.13750   0.00000  Uiso   1.00
I479   I     0.75729   0.60353   0.16594   0.00000  Uiso   1.00
I480   I     0.79059   0.89667   0.34399   0.00000  Uiso   1.00
O481   O     0.73840   0.75076   0.01688   0.00000  Uiso   1.00
C482   C     0.72162   0.71747   0.48124   0.00000  Uiso   1.00
H483   H     0.74538   0.71795   0.45278   0.00000  Uiso   1.00
H484   H     0.68288   0.72719   0.46291   0.00000  Uiso   1.00
C485   C     0.71398   0.66975   0.49966   0.00000  Uiso   1.00
H486   H     0.67972   0.66795   0.01869   0.00000  Uiso   1.00
H487   H     0.70593   0.64557   0.46937   0.00000  Uiso   1.00
H488   H     0.74918   0.65924   0.02335   0.00000  Uiso   1.00
O489   O     0.81978   0.83274   0.46334   0.00000  Uiso   1.00
C490   C     0.85969   0.85598   0.49439   0.00000  Uiso   1.00
H491   H     0.89918   0.85214   0.48448   0.00000  Uiso   1.00
H492   H     0.85927   0.84428   0.03100   0.00000  Uiso   1.00
C493   C     0.84901   0.90606   0.49376   0.00000  Uiso   1.00
H494   H     0.81013   0.91152   0.00421   0.00000  Uiso   1.00
H495   H     0.87938   0.92463   0.01904   0.00000  Uiso   1.00
H496   H     0.84979   0.91946   0.45774   0.00000  Uiso   1.00
I497   I     0.71826   0.71267   0.11108   0.00000  Uiso   1.00
I498   I     0.90539   0.83345   0.38266   0.00000  Uiso   1.00
O499   O     0.92454   0.77198   0.13799   0.00000  Uiso   1.00
C500   C     0.93260   0.81944   0.14229   0.00000  Uiso   1.00
H501   H     0.91337   0.83198   0.17162   0.00000  Uiso   1.00
H502   H     0.91758   0.83768   0.10938   0.00000  Uiso   1.00
C503   C     0.99073   0.83166   0.15433   0.00000  Uiso   1.00
H504   H     0.67907   0.81725   0.12749   0.00000  Uiso   1.00
H505   H     0.99696   0.86894   0.15515   0.00000  Uiso   1.00
H506   H     0.67310   0.81874   0.18958   0.00000  Uiso   1.00
O507   O     0.82269   0.66979   0.37484   0.00000  Uiso   1.00
C508   C     0.76876   0.65792   0.36800   0.00000  Uiso   1.00
H509   H     0.74599   0.68323   0.34588   0.00000  Uiso   1.00
H510   H     0.75398   0.65493   0.40240   0.00000  Uiso   1.00
C511   C     0.75953   0.61218   0.34309   0.00000  Uiso   1.00
H512   H     0.78420   0.58674   0.36288   0.00000  Uiso   1.00
H513   H     0.71792   0.60119   0.34111   0.00000  Uiso   1.00
H514   H     0.76871   0.61435   0.30659   0.00000  Uiso   1.00
I515   I     0.95164   0.77294   0.03271   0.00000  Uiso   1.00
I516   I     0.85235   0.64969   0.48528   0.00000  Uiso   1.00
C517   C     0.16975   0.16378   0.75026   0.00000  Uiso   1.00
C518   C     0.16488   0.33684   0.74963   0.00000  Uiso   1.00
C519   C     0.12038   0.24423   0.54395   0.00000  Uiso   1.00
C520   C     0.17012   0.29254   0.94705   0.00000  Uiso   1.00
C521   C     0.12199   0.24025   0.59369   0.00000  Uiso   1.00
C522   C     0.17784   0.28955   0.89927   0.00000  Uiso   1.00
C523   C     0.21179   0.26166   0.60811   0.00000  Uiso   1.00
C524   C     0.16346   0.21072   0.89847   0.00000  Uiso   1.00
C525   C     0.21319   0.26023   0.55851   0.00000  Uiso   1.00
C526   C     0.17227   0.21136   0.94865   0.00000  Uiso   1.00
C527   C     0.16729   0.25281   0.52578   0.00000  Uiso   1.00
C528   C     0.16942   0.25246   0.97334   0.00000  Uiso   1.00
C529   C     0.06701   0.24741   0.73810   0.00000  Uiso   1.00
C530   C     0.26609   0.25063   0.76214   0.00000  Uiso   1.00
C531   C     0.01244   0.23727   0.73547   0.00000  Uiso   1.00
C532   C     0.32047   0.25835   0.76648   0.00000  Uiso   1.00
C533   C     0.23536   0.05428   0.78352   0.00000  Uiso   1.00
C534   C     0.20824   0.45078   0.71200   0.00000  Uiso   1.00
C535   C     0.22366   0.10026   0.78436   0.00000  Uiso   1.00
C536   C     0.18384   0.40777   0.70779   0.00000  Uiso   1.00
C537   C     0.18198   0.11622   0.75122   0.00000  Uiso   1.00
C538   C     0.16997   0.38651   0.74875   0.00000  Uiso   1.00
C539   C     0.15403   0.08654   0.71718   0.00000  Uiso   1.00
C540   C     0.16804   0.41320   0.78953   0.00000  Uiso   1.00
C541   C     0.16564   0.04178   0.71719   0.00000  Uiso   1.00
C542   C     0.18647   0.45766   0.79118   0.00000  Uiso   1.00
C543   C     0.20560   0.02537   0.74989   0.00000  Uiso   1.00
C544   C     0.20681   0.47650   0.75308   0.00000  Uiso   1.00
H545   H     0.14154   0.01888   0.69249   0.00000  Uiso   1.00
H546   H     0.18071   0.47896   0.82082   0.00000  Uiso   1.00
N547   N     0.16667   0.24999   0.62624   0.00000  Uiso   1.00
N548   N     0.16667   0.25001   0.87377   0.00000  Uiso   1.00
O549   O     0.16667   0.18454   0.78974   0.00000  Uiso   1.00
O550   O     0.16666   0.31547   0.71026   0.00000  Uiso   1.00
O551   O     0.16667   0.18453   0.71026   0.00000  Uiso   1.00
O552   O     0.16666   0.31547   0.78974   0.00000  Uiso   1.00
O553   O     0.09058   0.25000   0.78045   0.00000  Uiso   1.00
O554   O     0.24275   0.25000   0.71956   0.00000  Uiso   1.00
O555   O     0.09058   0.25000   0.70097   0.00000  Uiso   1.00
O556   O     0.24275   0.25001   0.79904   0.00000  Uiso   1.00
Zn557  Zn    0.16667   0.25001   0.80307   0.00000  Uiso   1.00
Zn558  Zn    0.16667   0.25000   0.69693   0.00000  Uiso   1.00
I559   I     0.31592   0.17337   0.70511   0.00000  Uiso   1.00
I560   I     0.01458   0.31687   0.80719   0.00000  Uiso   1.00
I561   I     0.29711   0.02703   0.83194   0.00000  Uiso   1.00
I562   I     0.24396   0.47910   0.65552   0.00000  Uiso   1.00
I563   I     0.27073   0.14457   0.83460   0.00000  Uiso   1.00
I564   I     0.15119   0.38492   0.63750   0.00000  Uiso   1.00
I565   I     0.09062   0.10353   0.66594   0.00000  Uiso   1.00
I566   I     0.12393   0.39667   0.84399   0.00000  Uiso   1.00
O567   O     0.07173   0.25076   0.51688   0.00000  Uiso   1.00
C568   C     0.05495   0.21747   0.98124   0.00000  Uiso   1.00
H569   H     0.07871   0.21795   0.95278   0.00000  Uiso   1.00
H570   H     0.01621   0.22719   0.96291   0.00000  Uiso   1.00
C571   C     0.04731   0.16975   0.99966   0.00000  Uiso   1.00
H572   H     0.01305   0.16795   0.51869   0.00000  Uiso   1.00
H573   H     0.03927   0.14557   0.96937   0.00000  Uiso   1.00
H574   H     0.08251   0.15924   0.52335   0.00000  Uiso   1.00
O575   O     0.15312   0.33274   0.96334   0.00000  Uiso   1.00
C576   C     0.19302   0.35598   0.99439   0.00000  Uiso   1.00
H577   H     0.23251   0.35214   0.98448   0.00000  Uiso   1.00
H578   H     0.19260   0.34428   0.53100   0.00000  Uiso   1.00
C579   C     0.18235   0.40606   0.99376   0.00000  Uiso   1.00
H580   H     0.14346   0.41152   0.50421   0.00000  Uiso   1.00
H581   H     0.21272   0.42463   0.51904   0.00000  Uiso   1.00
H582   H     0.18312   0.41946   0.95774   0.00000  Uiso   1.00
I583   I     0.05159   0.21267   0.61108   0.00000  Uiso   1.00
I584   I     0.23872   0.33345   0.88266   0.00000  Uiso   1.00
O585   O     0.25788   0.27198   0.63799   0.00000  Uiso   1.00
C586   C     0.26593   0.31944   0.64229   0.00000  Uiso   1.00
H587   H     0.24671   0.33198   0.67162   0.00000  Uiso   1.00
H588   H     0.25091   0.33768   0.60938   0.00000  Uiso   1.00
C589   C     0.32406   0.33166   0.65433   0.00000  Uiso   1.00
H590   H     0.01241   0.31725   0.62749   0.00000  Uiso   1.00
H591   H     0.33029   0.36894   0.65515   0.00000  Uiso   1.00
H592   H     0.00643   0.31874   0.68958   0.00000  Uiso   1.00
O593   O     0.15603   0.16979   0.87484   0.00000  Uiso   1.00
C594   C     0.10209   0.15792   0.86800   0.00000  Uiso   1.00
H595   H     0.07932   0.18323   0.84588   0.00000  Uiso   1.00
H596   H     0.08731   0.15493   0.90240   0.00000  Uiso   1.00
C597   C     0.09286   0.11218   0.84309   0.00000  Uiso   1.00
H598   H     0.11753   0.08674   0.86288   0.00000  Uiso   1.00
H599   H     0.05126   0.10119   0.84111   0.00000  Uiso   1.00
H600   H     0.10204   0.11435   0.80659   0.00000  Uiso   1.00
I601   I     0.28497   0.27294   0.53271   0.00000  Uiso   1.00
I602   I     0.18568   0.14969   0.98528   0.00000  Uiso   1.00
C603   C     0.50309   0.16378   0.75026   0.00000  Uiso   1.00
C604   C     0.49821   0.33684   0.74963   0.00000  Uiso   1.00
C605   C     0.45371   0.24423   0.54395   0.00000  Uiso   1.00
C606   C     0.50346   0.29254   0.94705   0.00000  Uiso   1.00
C607   C     0.45533   0.24025   0.59369   0.00000  Uiso   1.00
C608   C     0.51117   0.28955   0.89927   0.00000  Uiso   1.00
C609   C     0.54513   0.26166   0.60811   0.00000  Uiso   1.00
C610   C     0.49680   0.21072   0.89847   0.00000  Uiso   1.00
C611   C     0.54653   0.26023   0.55851   0.00000  Uiso   1.00
C612   C     0.50560   0.21136   0.94865   0.00000  Uiso   1.00
C613   C     0.50063   0.25281   0.52578   0.00000  Uiso   1.00
C614   C     0.50275   0.25246   0.97334   0.00000  Uiso   1.00
C615   C     0.40035   0.24741   0.73810   0.00000  Uiso   1.00
C616   C     0.59943   0.25063   0.76214   0.00000  Uiso   1.00
C617   C     0.34577   0.23727   0.73547   0.00000  Uiso   1.00
C618   C     0.65381   0.25835   0.76648   0.00000  Uiso   1.00
C619   C     0.56869   0.05428   0.78352   0.00000  Uiso   1.00
C620   C     0.54157   0.45078   0.71200   0.00000  Uiso   1.00
C621   C     0.55699   0.10026   0.78436   0.00000  Uiso   1.00
C622   C     0.51717   0.40777   0.70779   0.00000  Uiso   1.00
C623   C     0.51531   0.11622   0.75122   0.00000  Uiso   1.00
C624   C     0.50330   0.38651   0.74875   0.00000  Uiso   1.00
C625   C     0.48737   0.08654   0.71718   0.00000  Uiso   1.00
C626   C     0.50137   0.41320   0.78953   0.00000  Uiso   1.00
C627   C     0.49897   0.04178   0.71719   0.00000  Uiso   1.00
C628   C     0.51980   0.45766   0.79118   0.00000  Uiso   1.00
C629   C     0.53893   0.02537   0.74989   0.00000  Uiso   1.00
C630   C     0.54014   0.47650   0.75308   0.00000  Uiso   1.00
H631   H     0.47487   0.01888   0.69249   0.00000  Uiso   1.00
H632   H     0.51404   0.47896   0.82082   0.00000  Uiso   1.00
N633   N     0.50000   0.24999   0.62624   0.00000  Uiso   1.00
N634   N     0.50000   0.25001   0.87377   0.00000  Uiso   1.00
O635   O     0.50000   0.18454   0.78974   0.00000  Uiso   1.00
O636   O     0.50000   0.31547   0.71026   0.00000  Uiso   1.00
O637   O     0.50000   0.18453   0.71026   0.00000  Uiso   1.00
O638   O     0.50000   0.31547   0.78974   0.00000  Uiso   1.00
O639   O     0.42392   0.25000   0.78045   0.00000  Uiso   1.00
O640   O     0.57608   0.25000   0.71956   0.00000  Uiso   1.00
O641   O     0.42392   0.25000   0.70097   0.00000  Uiso   1.00
O642   O     0.57608   0.25001   0.79904   0.00000  Uiso   1.00
Zn643  Zn    0.50000   0.25001   0.80307   0.00000  Uiso   1.00
Zn644  Zn    0.50000   0.25000   0.69693   0.00000  Uiso   1.00
I645   I     0.64925   0.17337   0.70511   0.00000  Uiso   1.00
I646   I     0.34792   0.31687   0.80719   0.00000  Uiso   1.00
I647   I     0.63044   0.02703   0.83194   0.00000  Uiso   1.00
I648   I     0.57729   0.47910   0.65552   0.00000  Uiso   1.00
I649   I     0.60406   0.14457   0.83460   0.00000  Uiso   1.00
I650   I     0.48452   0.38492   0.63750   0.00000  Uiso   1.00
I651   I     0.42395   0.10353   0.66594   0.00000  Uiso   1.00
I652   I     0.45726   0.39667   0.84399   0.00000  Uiso   1.00
O653   O     0.40507   0.25076   0.51688   0.00000  Uiso   1.00
C654   C     0.38829   0.21747   0.98124   0.00000  Uiso   1.00
H655   H     0.41205   0.21795   0.95278   0.00000  Uiso   1.00
H656   H     0.34954   0.22719   0.96291   0.00000  Uiso   1.00
C657   C     0.38064   0.16975   0.99966   0.00000  Uiso   1.00
H658   H     0.34639   0.16795   0.51869   0.00000  Uiso   1.00
H659   H     0.37260   0.14557   0.96937   0.00000  Uiso   1.00
H660   H     0.41584   0.15924   0.52335   0.00000  Uiso   1.00
O661   O     0.48645   0.33274   0.96334   0.00000  Uiso   1.00
C662   C     0.52635   0.35598   0.99439   0.00000  Uiso   1.00
H663   H     0.56585   0.35214   0.98448   0.00000  Uiso   1.00
H664   H     0.52593   0.34428   0.53100   0.00000  Uiso   1.00
C665   C     0.51568   0.40606   0.99376   0.00000  Uiso   1.00
H666   H     0.47679   0.41152   0.50421   0.00000  Uiso   1.00
H667   H     0.54605   0.42463   0.51904   0.00000  Uiso   1.00
H668   H     0.51645   0.41946   0.95774   0.00000  Uiso   1.00
I669   I     0.38492   0.21267   0.61108   0.00000  Uiso   1.00
I670   I     0.57205   0.33345   0.88266   0.00000  Uiso   1.00
O671   O     0.59121   0.27198   0.63799   0.00000  Uiso   1.00
C672   C     0.59926   0.31944   0.64229   0.00000  Uiso   1.00
H673   H     0.58004   0.33198   0.67162   0.00000  Uiso   1.00
H674   H     0.58424   0.33768   0.60938   0.00000  Uiso   1.00
C675   C     0.65739   0.33166   0.65433   0.00000  Uiso   1.00
H676   H     0.34574   0.31725   0.62749   0.00000  Uiso   1.00
H677   H     0.66363   0.36894   0.65515   0.00000  Uiso   1.00
H678   H     0.33976   0.31874   0.68958   0.00000  Uiso   1.00
O679   O     0.48936   0.16979   0.87484   0.00000  Uiso   1.00
C680   C     0.43543   0.15792   0.86800   0.00000  Uiso   1.00
H681   H     0.41266   0.18323   0.84588   0.00000  Uiso   1.00
H682   H     0.42065   0.15493   0.90240   0.00000  Uiso   1.00
C683   C     0.42619   0.11218   0.84309   0.00000  Uiso   1.00
H684   H     0.45087   0.08674   0.86288   0.00000  Uiso   1.00
H685   H     0.38459   0.10119   0.84111   0.00000  Uiso   1.00
H686   H     0.43538   0.11435   0.80659   0.00000  Uiso   1.00
I687   I     0.61831   0.27294   0.53271   0.00000  Uiso   1.00
I688   I     0.51901   0.14969   0.98528   0.00000  Uiso   1.00
C689   C     0.83642   0.16378   0.75026   0.00000  Uiso   1.00
C690   C     0.83155   0.33684   0.74963   0.00000  Uiso   1.00
C691   C     0.78704   0.24423   0.54395   0.00000  Uiso   1.00
C692   C     0.83679   0.29254   0.94705   0.00000  Uiso   1.00
C693   C     0.78866   0.24025   0.59369   0.00000  Uiso   1.00
C694   C     0.84451   0.28955   0.89927   0.00000  Uiso   1.00
C695   C     0.87846   0.26166   0.60811   0.00000  Uiso   1.00
C696   C     0.83013   0.21072   0.89847   0.00000  Uiso   1.00
C697   C     0.87986   0.26023   0.55851   0.00000  Uiso   1.00
C698   C     0.83893   0.21136   0.94865   0.00000  Uiso   1.00
C699   C     0.83396   0.25281   0.52578   0.00000  Uiso   1.00
C700   C     0.83608   0.25246   0.97334   0.00000  Uiso   1.00
C701   C     0.73368   0.24741   0.73810   0.00000  Uiso   1.00
C702   C     0.93276   0.25063   0.76214   0.00000  Uiso   1.00
C703   C     0.67911   0.23727   0.73547   0.00000  Uiso   1.00
C704   C     0.98714   0.25835   0.76648   0.00000  Uiso   1.00
C705   C     0.90203   0.05428   0.78352   0.00000  Uiso   1.00
C706   C     0.87491   0.45078   0.71200   0.00000  Uiso   1.00
C707   C     0.89032   0.10026   0.78436   0.00000  Uiso   1.00
C708   C     0.85050   0.40777   0.70779   0.00000  Uiso   1.00
C709   C     0.84864   0.11622   0.75122   0.00000  Uiso   1.00
C710   C     0.83663   0.38651   0.74875   0.00000  Uiso   1.00
C711   C     0.82070   0.08654   0.71718   0.00000  Uiso   1.00
C712   C     0.83471   0.41320   0.78953   0.00000  Uiso   1.00
C713   C     0.83231   0.04178   0.71719   0.00000  Uiso   1.00
C714   C     0.85314   0.45766   0.79118   0.00000  Uiso   1.00
C715   C     0.87227   0.02537   0.74989   0.00000  Uiso   1.00
C716   C     0.87348   0.47650   0.75308   0.00000  Uiso   1.00
H717   H     0.80820   0.01888   0.69249   0.00000  Uiso   1.00
H718   H     0.84738   0.47896   0.82082   0.00000  Uiso   1.00
N719   N     0.83333   0.24999   0.62624   0.00000  Uiso   1.00
N720   N     0.83333   0.25001   0.87377   0.00000  Uiso   1.00
O721   O     0.83334   0.18454   0.78974   0.00000  Uiso   1.00
O722   O     0.83333   0.31547   0.71026   0.00000  Uiso   1.00
O723   O     0.83334   0.18453   0.71026   0.00000  Uiso   1.00
O724   O     0.83333   0.31547   0.78974   0.00000  Uiso   1.00
O725   O     0.75725   0.25000   0.78045   0.00000  Uiso   1.00
O726   O     0.90942   0.25000   0.71956   0.00000  Uiso   1.00
O727   O     0.75725   0.25000   0.70097   0.00000  Uiso   1.00
O728   O     0.90942   0.25001   0.79904   0.00000  Uiso   1.00
Zn729  Zn    0.83333   0.25001   0.80307   0.00000  Uiso   1.00
Zn730  Zn    0.83333   0.25000   0.69693   0.00000  Uiso   1.00
I731   I     0.98258   0.17337   0.70511   0.00000  Uiso   1.00
I732   I     0.68125   0.31687   0.80719   0.00000  Uiso   1.00
I733   I     0.96377   0.02703   0.83194   0.00000  Uiso   1.00
I734   I     0.91063   0.47910   0.65552   0.00000  Uiso   1.00
I735   I     0.93740   0.14457   0.83460   0.00000  Uiso   1.00
I736   I     0.81786   0.38492   0.63750   0.00000  Uiso   1.00
I737   I     0.75729   0.10353   0.66594   0.00000  Uiso   1.00
I738   I     0.79059   0.39667   0.84399   0.00000  Uiso   1.00
O739   O     0.73840   0.25076   0.51688   0.00000  Uiso   1.00
C740   C     0.72162   0.21747   0.98124   0.00000  Uiso   1.00
H741   H     0.74538   0.21795   0.95278   0.00000  Uiso   1.00
H742   H     0.68288   0.22719   0.96291   0.00000  Uiso   1.00
C743   C     0.71398   0.16975   0.99966   0.00000  Uiso   1.00
H744   H     0.67972   0.16795   0.51869   0.00000  Uiso   1.00
H745   H     0.70593   0.14557   0.96937   0.00000  Uiso   1.00
H746   H     0.74918   0.15924   0.52335   0.00000  Uiso   1.00
O747   O     0.81978   0.33274   0.96334   0.00000  Uiso   1.00
C748   C     0.85969   0.35598   0.99439   0.00000  Uiso   1.00
H749   H     0.89918   0.35214   0.98448   0.00000  Uiso   1.00
H750   H     0.85927   0.34428   0.53100   0.00000  Uiso   1.00
C751   C     0.84901   0.40606   0.99376   0.00000  Uiso   1.00
H752   H     0.81013   0.41152   0.50421   0.00000  Uiso   1.00
H753   H     0.87938   0.42463   0.51904   0.00000  Uiso   1.00
H754   H     0.84979   0.41946   0.95774   0.00000  Uiso   1.00
I755   I     0.71826   0.21267   0.61108   0.00000  Uiso   1.00
I756   I     0.90539   0.33345   0.88266   0.00000  Uiso   1.00
O757   O     0.92454   0.27198   0.63799   0.00000  Uiso   1.00
C758   C     0.93260   0.31944   0.64229   0.00000  Uiso   1.00
H759   H     0.91337   0.33198   0.67162   0.00000  Uiso   1.00
H760   H     0.91758   0.33768   0.60938   0.00000  Uiso   1.00
C761   C     0.99073   0.33166   0.65433   0.00000  Uiso   1.00
H762   H     0.67907   0.31725   0.62749   0.00000  Uiso   1.00
H763   H     0.99696   0.36894   0.65515   0.00000  Uiso   1.00
H764   H     0.67310   0.31874   0.68958   0.00000  Uiso   1.00
O765   O     0.82269   0.16979   0.87484   0.00000  Uiso   1.00
C766   C     0.76876   0.15792   0.86800   0.00000  Uiso   1.00
H767   H     0.74599   0.18323   0.84588   0.00000  Uiso   1.00
H768   H     0.75398   0.15493   0.90240   0.00000  Uiso   1.00
C769   C     0.75953   0.11218   0.84309   0.00000  Uiso   1.00
H770   H     0.78420   0.08674   0.86288   0.00000  Uiso   1.00
H771   H     0.71792   0.10119   0.84111   0.00000  Uiso   1.00
H772   H     0.76871   0.11435   0.80659   0.00000  Uiso   1.00
I773   I     0.95164   0.27294   0.53271   0.00000  Uiso   1.00
I774   I     0.85235   0.14969   0.98528   0.00000  Uiso   1.00
C775   C     0.16975   0.66378   0.75026   0.00000  Uiso   1.00
C776   C     0.16488   0.83684   0.74963   0.00000  Uiso   1.00
C777   C     0.12038   0.74423   0.54395   0.00000  Uiso   1.00
C778   C     0.17012   0.79254   0.94705   0.00000  Uiso   1.00
C779   C     0.12199   0.74025   0.59369   0.00000  Uiso   1.00
C780   C     0.17784   0.78955   0.89927   0.00000  Uiso   1.00
C781   C     0.21179   0.76166   0.60811   0.00000  Uiso   1.00
C782   C     0.16346   0.71072   0.89847   0.00000  Uiso   1.00
C783   C     0.21319   0.76023   0.55851   0.00000  Uiso   1.00
C784   C     0.17227   0.71136   0.94865   0.00000  Uiso   1.00
C785   C     0.16729   0.75281   0.52578   0.00000  Uiso   1.00
C786   C     0.16942   0.75246   0.97334   0.00000  Uiso   1.00
C787   C     0.06701   0.74741   0.73810   0.00000  Uiso   1.00
C788   C     0.26609   0.75063   0.76214   0.00000  Uiso   1.00
C789   C     0.01244   0.73727   0.73547   0.00000  Uiso   1.00
C790   C     0.32047   0.75835   0.76648   0.00000  Uiso   1.00
C791   C     0.23536   0.55428   0.78352   0.00000  Uiso   1.00
C792   C     0.20824   0.95078   0.71200   0.00000  Uiso   1.00
C793   C     0.22366   0.60026   0.78436   0.00000  Uiso   1.00
C794   C     0.18384   0.90777   0.70779   0.00000  Uiso   1.00
C795   C     0.18198   0.61622   0.75122   0.00000  Uiso   1.00
C796   C     0.16997   0.88651   0.74875   0.00000  Uiso   1.00
C797   C     0.15403   0.58654   0.71718   0.00000  Uiso   1.00
C798   C     0.16804   0.91320   0.78953   0.00000  Uiso   1.00
C799   C     0.16564   0.54178   0.71719   0.00000  Uiso   1.00
C800   C     0.18647   0.95766   0.79118   0.00000  Uiso   1.00
C801   C     0.20560   0.52537   0.74989   0.00000  Uiso   1.00
C802   C     0.20681   0.97650   0.75308   0.00000  Uiso   1.00
H803   H     0.14154   0.51888   0.69249   0.00000  Uiso   1.00
H804   H     0.18071   0.97896   0.82082   0.00000  Uiso   1.00
N805   N     0.16667   0.74999   0.62624   0.00000  Uiso   1.00
N806   N     0.16667   0.75001   0.87377   0.00000  Uiso   1.00
O807   O     0.16667   0.68454   0.78974   0.00000  Uiso   1.00
O808   O     0.16666   0.81547   0.71026   0.00000  Uiso   1.00
O809   O     0.16667   0.68453   0.71026   0.00000  Uiso   1.00
O810   O     0.16666   0.81547   0.78974   0.00000  Uiso   1.00
O811   O     0.09058   0.75000   0.78045   0.00000  Uiso   1.00
O812   O     0.24275   0.75000   0.71956   0.00000  Uiso   1.00
O813   O     0.09058   0.75000   0.70097   0.00000  Uiso   1.00
O814   O     0.24275   0.75001   0.79904   0.00000  Uiso   1.00
Zn815  Zn    0.16667   0.75001   0.80307   0.00000  Uiso   1.00
Zn816  Zn    0.16667   0.75000   0.69693   0.00000  Uiso   1.00
I817   I     0.31592   0.67337   0.70511   0.00000  Uiso   1.00
I818   I     0.01458   0.81687   0.80719   0.00000  Uiso   1.00
I819   I     0.29711   0.52703   0.83194   0.00000  Uiso   1.00
I820   I     0.24396   0.97910   0.65552   0.00000  Uiso   1.00
I821   I     0.27073   0.64457   0.83460   0.00000  Uiso   1.00
I822   I     0.15119   0.88492   0.63750   0.00000  Uiso   1.00
I823   I     0.09062   0.60353   0.66594   0.00000  Uiso   1.00
I824   I     0.12393   0.89667   0.84399   0.00000  Uiso   1.00
O825   O     0.07173   0.75076   0.51688   0.00000  Uiso   1.00
C826   C     0.05495   0.71747   0.98124   0.00000  Uiso   1.00
H827   H     0.07871   0.71795   0.95278   0.00000  Uiso   1.00
H828   H     0.01621   0.72719   0.96291   0.00000  Uiso   1.00
C829   C     0.04731   0.66975   0.99966   0.00000  Uiso   1.00
H830   H     0.01305   0.66795   0.51869   0.00000  Uiso   1.00
H831   H     0.03927   0.64557   0.96937   0.00000  Uiso   1.00
H832   H     0.08251   0.65924   0.52335   0.00000  Uiso   1.00
O833   O     0.15312   0.83274   0.96334   0.00000  Uiso   1.00
C834   C     0.19302   0.85598   0.99439   0.00000  Uiso   1.00
H835   H     0.23251   0.85214   0.98448   0.00000  Uiso   1.00
H836   H     0.19260   0.84428   0.53100   0.00000  Uiso   1.00
C837   C     0.18235   0.90606   0.99376   0.00000  Uiso   1.00
H838   H     0.14346   0.91152   0.50421   0.00000  Uiso   1.00
H839   H     0.21272   0.92463   0.51904   0.00000  Uiso   1.00
H840   H     0.18312   0.91946   0.95774   0.00000  Uiso   1.00
I841   I     0.05159   0.71267   0.61108   0.00000  Uiso   1.00
I842   I     0.23872   0.83345   0.88266   0.00000  Uiso   1.00
O843   O     0.25788   0.77198   0.63799   0.00000  Uiso   1.00
C844   C     0.26593   0.81944   0.64229   0.00000  Uiso   1.00
H845   H     0.24671   0.83198   0.67162   0.00000  Uiso   1.00
H846   H     0.25091   0.83768   0.60938   0.00000  Uiso   1.00
C847   C     0.32406   0.83166   0.65433   0.00000  Uiso   1.00
H848   H     0.01241   0.81725   0.62749   0.00000  Uiso   1.00
H849   H     0.33029   0.86894   0.65515   0.00000  Uiso   1.00
H850   H     0.00643   0.81874   0.68958   0.00000  Uiso   1.00
O851   O     0.15603   0.66979   0.87484   0.00000  Uiso   1.00
C852   C     0.10209   0.65792   0.86800   0.00000  Uiso   1.00
H853   H     0.07932   0.68323   0.84588   0.00000  Uiso   1.00
H854   H     0.08731   0.65493   0.90240   0.00000  Uiso   1.00
C855   C     0.09286   0.61218   0.84309   0.00000  Uiso   1.00
H856   H     0.11753   0.58674   0.86288   0.00000  Uiso   1.00
H857   H     0.05126   0.60119   0.84111   0.00000  Uiso   1.00
H858   H     0.10204   0.61435   0.80659   0.00000  Uiso   1.00
I859   I     0.28497   0.77294   0.53271   0.00000  Uiso   1.00
I860   I     0.18568   0.64969   0.98528   0.00000  Uiso   1.00
C861   C     0.50309   0.66378   0.75026   0.00000  Uiso   1.00
C862   C     0.49821   0.83684   0.74963   0.00000  Uiso   1.00
C863   C     0.45371   0.74423   0.54395   0.00000  Uiso   1.00
C864   C     0.50346   0.79254   0.94705   0.00000  Uiso   1.00
C865   C     0.45533   0.74025   0.59369   0.00000  Uiso   1.00
C866   C     0.51117   0.78955   0.89927   0.00000  Uiso   1.00
C867   C     0.54513   0.76166   0.60811   0.00000  Uiso   1.00
C868   C     0.49680   0.71072   0.89847   0.00000  Uiso   1.00
C869   C     0.54653   0.76023   0.55851   0.00000  Uiso   1.00
C870   C     0.50560   0.71136   0.94865   0.00000  Uiso   1.00
C871   C     0.50063   0.75281   0.52578   0.00000  Uiso   1.00
C872   C     0.50275   0.75246   0.97334   0.00000  Uiso   1.00
C873   C     0.40035   0.74741   0.73810   0.00000  Uiso   1.00
C874   C     0.59943   0.75063   0.76214   0.00000  Uiso   1.00
C875   C     0.34577   0.73727   0.73547   0.00000  Uiso   1.00
C876   C     0.65381   0.75835   0.76648   0.00000  Uiso   1.00
C877   C     0.56869   0.55428   0.78352   0.00000  Uiso   1.00
C878   C     0.54157   0.95078   0.71200   0.00000  Uiso   1.00
C879   C     0.55699   0.60026   0.78436   0.00000  Uiso   1.00
C880   C     0.51717   0.90777   0.70779   0.00000  Uiso   1.00
C881   C     0.51531   0.61622   0.75122   0.00000  Uiso   1.00
C882   C     0.50330   0.88651   0.74875   0.00000  Uiso   1.00
C883   C     0.48737   0.58654   0.71718   0.00000  Uiso   1.00
C884   C     0.50137   0.91320   0.78953   0.00000  Uiso   1.00
C885   C     0.49897   0.54178   0.71719   0.00000  Uiso   1.00
C886   C     0.51980   0.95766   0.79118   0.00000  Uiso   1.00
C887   C     0.53893   0.52537   0.74989   0.00000  Uiso   1.00
C888   C     0.54014   0.97650   0.75308   0.00000  Uiso   1.00
H889   H     0.47487   0.51888   0.69249   0.00000  Uiso   1.00
H890   H     0.51404   0.97896   0.82082   0.00000  Uiso   1.00
N891   N     0.50000   0.74999   0.62624   0.00000  Uiso   1.00
N892   N     0.50000   0.75001   0.87377   0.00000  Uiso   1.00
O893   O     0.50000   0.68454   0.78974   0.00000  Uiso   1.00
O894   O     0.50000   0.81547   0.71026   0.00000  Uiso   1.00
O895   O     0.50000   0.68453   0.71026   0.00000  Uiso   1.00
O896   O     0.50000   0.81547   0.78974   0.00000  Uiso   1.00
O897   O     0.42392   0.75000   0.78045   0.00000  Uiso   1.00
O898   O     0.57608   0.75000   0.71956   0.00000  Uiso   1.00
O899   O     0.42392   0.75000   0.70097   0.00000  Uiso   1.00
O900   O     0.57608   0.75001   0.79904   0.00000  Uiso   1.00
Zn901  Zn    0.50000   0.75001   0.80307   0.00000  Uiso   1.00
Zn902  Zn    0.50000   0.75000   0.69693   0.00000  Uiso   1.00
I903   I     0.64925   0.67337   0.70511   0.00000  Uiso   1.00
I904   I     0.34792   0.81687   0.80719   0.00000  Uiso   1.00
I905   I     0.63044   0.52703   0.83194   0.00000  Uiso   1.00
I906   I     0.57729   0.97910   0.65552   0.00000  Uiso   1.00
I907   I     0.60406   0.64457   0.83460   0.00000  Uiso   1.00
I908   I     0.48452   0.88492   0.63750   0.00000  Uiso   1.00
I909   I     0.42395   0.60353   0.66594   0.00000  Uiso   1.00
I910   I     0.45726   0.89667   0.84399   0.00000  Uiso   1.00
O911   O     0.40507   0.75076   0.51688   0.00000  Uiso   1.00
C912   C     0.38829   0.71747   0.98124   0.00000  Uiso   1.00
H913   H     0.41205   0.71795   0.95278   0.00000  Uiso   1.00
H914   H     0.34954   0.72719   0.96291   0.00000  Uiso   1.00
C915   C     0.38064   0.66975   0.99966   0.00000  Uiso   1.00
H916   H     0.34639   0.66795   0.51869   0.00000  Uiso   1.00
H917   H     0.37260   0.64557   0.96937   0.00000  Uiso   1.00
H918   H     0.41584   0.65924   0.52335   0.00000  Uiso   1.00
O919   O     0.48645   0.83274   0.96334   0.00000  Uiso   1.00
C920   C     0.52635   0.85598   0.99439   0.00000  Uiso   1.00
H921   H     0.56585   0.85214   0.98448   0.00000  Uiso   1.00
H922   H     0.52593   0.84428   0.53100   0.00000  Uiso   1.00
C923   C     0.51568   0.90606   0.99376   0.00000  Uiso   1.00
H924   H     0.47679   0.91152   0.50421   0.00000  Uiso   1.00
H925   H     0.54605   0.92463   0.51904   0.00000  Uiso   1.00
H926   H     0.51645   0.91946   0.95774   0.00000  Uiso   1.00
I927   I     0.38492   0.71267   0.61108   0.00000  Uiso   1.00
I928   I     0.57205   0.83345   0.88266   0.00000  Uiso   1.00
O929   O     0.59121   0.77198   0.63799   0.00000  Uiso   1.00
C930   C     0.59926   0.81944   0.64229   0.00000  Uiso   1.00
H931   H     0.58004   0.83198   0.67162   0.00000  Uiso   1.00
H932   H     0.58424   0.83768   0.60938   0.00000  Uiso   1.00
C933   C     0.65739   0.83166   0.65433   0.00000  Uiso   1.00
H934   H     0.34574   0.81725   0.62749   0.00000  Uiso   1.00
H935   H     0.66363   0.86894   0.65515   0.00000  Uiso   1.00
H936   H     0.33976   0.81874   0.68958   0.00000  Uiso   1.00
O937   O     0.48936   0.66979   0.87484   0.00000  Uiso   1.00
C938   C     0.43543   0.65792   0.86800   0.00000  Uiso   1.00
H939   H     0.41266   0.68323   0.84588   0.00000  Uiso   1.00
H940   H     0.42065   0.65493   0.90240   0.00000  Uiso   1.00
C941   C     0.42619   0.61218   0.84309   0.00000  Uiso   1.00
H942   H     0.45087   0.58674   0.86288   0.00000  Uiso   1.00
H943   H     0.38459   0.60119   0.84111   0.00000  Uiso   1.00
H944   H     0.43538   0.61435   0.80659   0.00000  Uiso   1.00
I945   I     0.61831   0.77294   0.53271   0.00000  Uiso   1.00
I946   I     0.51901   0.64969   0.98528   0.00000  Uiso   1.00
C947   C     0.83642   0.66378   0.75026   0.00000  Uiso   1.00
C948   C     0.83155   0.83684   0.74963   0.00000  Uiso   1.00
C949   C     0.78704   0.74423   0.54395   0.00000  Uiso   1.00
C950   C     0.83679   0.79254   0.94705   0.00000  Uiso   1.00
C951   C     0.78866   0.74025   0.59369   0.00000  Uiso   1.00
C952   C     0.84451   0.78955   0.89927   0.00000  Uiso   1.00
C953   C     0.87846   0.76166   0.60811   0.00000  Uiso   1.00
C954   C     0.83013   0.71072   0.89847   0.00000  Uiso   1.00
C955   C     0.87986   0.76023   0.55851   0.00000  Uiso   1.00
C956   C     0.83893   0.71136   0.94865   0.00000  Uiso   1.00
C957   C     0.83396   0.75281   0.52578   0.00000  Uiso   1.00
C958   C     0.83608   0.75246   0.97334   0.00000  Uiso   1.00
C959   C     0.73368   0.74741   0.73810   0.00000  Uiso   1.00
C960   C     0.93276   0.75063   0.76214   0.00000  Uiso   1.00
C961   C     0.67911   0.73727   0.73547   0.00000  Uiso   1.00
C962   C     0.98714   0.75835   0.76648   0.00000  Uiso   1.00
C963   C     0.90203   0.55428   0.78352   0.00000  Uiso   1.00
C964   C     0.87491   0.95078   0.71200   0.00000  Uiso   1.00
C965   C     0.89032   0.60026   0.78436   0.00000  Uiso   1.00
C966   C     0.85050   0.90777   0.70779   0.00000  Uiso   1.00
C967   C     0.84864   0.61622   0.75122   0.00000  Uiso   1.00
C968   C     0.83663   0.88651   0.74875   0.00000  Uiso   1.00
C969   C     0.82070   0.58654   0.71718   0.00000  Uiso   1.00
C970   C     0.83471   0.91320   0.78953   0.00000  Uiso   1.00
C971   C     0.83231   0.54178   0.71719   0.00000  Uiso   1.00
C972   C     0.85314   0.95766   0.79118   0.00000  Uiso   1.00
C973   C     0.87227   0.52537   0.74989   0.00000  Uiso   1.00
C974   C     0.87348   0.97650   0.75308   0.00000  Uiso   1.00
H975   H     0.80820   0.51888   0.69249   0.00000  Uiso   1.00
H976   H     0.84738   0.97896   0.82082   0.00000  Uiso   1.00
N977   N     0.83333   0.74999   0.62624   0.00000  Uiso   1.00
N978   N     0.83333   0.75001   0.87377   0.00000  Uiso   1.00
O979   O     0.83334   0.68454   0.78974   0.00000  Uiso   1.00
O980   O     0.83333   0.81547   0.71026   0.00000  Uiso   1.00
O981   O     0.83334   0.68453   0.71026   0.00000  Uiso   1.00
O982   O     0.83333   0.81547   0.78974   0.00000  Uiso   1.00
O983   O     0.75725   0.75000   0.78045   0.00000  Uiso   1.00
O984   O     0.90942   0.75000   0.71956   0.00000  Uiso   1.00
O985   O     0.75725   0.75000   0.70097   0.00000  Uiso   1.00
O986   O     0.90942   0.75001   0.79904   0.00000  Uiso   1.00
Zn987  Zn    0.83333   0.75001   0.80307   0.00000  Uiso   1.00
Zn988  Zn    0.83333   0.75000   0.69693   0.00000  Uiso   1.00
I989   I     0.98258   0.67337   0.70511   0.00000  Uiso   1.00
I990   I     0.68125   0.81687   0.80719   0.00000  Uiso   1.00
I991   I     0.96377   0.52703   0.83194   0.00000  Uiso   1.00
I992   I     0.91063   0.97910   0.65552   0.00000  Uiso   1.00
I993   I     0.93740   0.64457   0.83460   0.00000  Uiso   1.00
I994   I     0.81786   0.88492   0.63750   0.00000  Uiso   1.00
I995   I     0.75729   0.60353   0.66594   0.00000  Uiso   1.00
I996   I     0.79059   0.89667   0.84399   0.00000  Uiso   1.00
O997   O     0.73840   0.75076   0.51688   0.00000  Uiso   1.00
C998   C     0.72162   0.71747   0.98124   0.00000  Uiso   1.00
H999   H     0.74538   0.71795   0.95278   0.00000  Uiso   1.00
H1000  H     0.68288   0.72719   0.96291   0.00000  Uiso   1.00
C1001  C     0.71398   0.66975   0.99966   0.00000  Uiso   1.00
H1002  H     0.67972   0.66795   0.51869   0.00000  Uiso   1.00
H1003  H     0.70593   0.64557   0.96937   0.00000  Uiso   1.00
H1004  H     0.74918   0.65924   0.52335   0.00000  Uiso   1.00
O1005  O     0.81978   0.83274   0.96334   0.00000  Uiso   1.00
C1006  C     0.85969   0.85598   0.99439   0.00000  Uiso   1.00
H1007  H     0.89918   0.85214   0.98448   0.00000  Uiso   1.00
H1008  H     0.85927   0.84428   0.53100   0.00000  Uiso   1.00
C1009  C     0.84901   0.90606   0.99376   0.00000  Uiso   1.00
H1010  H     0.81013   0.91152   0.50421   0.00000  Uiso   1.00
H1011  H     0.87938   0.92463   0.51904   0.00000  Uiso   1.00
H1012  H     0.84979   0.91946   0.95774   0.00000  Uiso   1.00
I1013  I     0.71826   0.71267   0.61108   0.00000  Uiso   1.00
I1014  I     0.90539   0.83345   0.88266   0.00000  Uiso   1.00
O1015  O     0.92454   0.77198   0.63799   0.00000  Uiso   1.00
C1016  C     0.93260   0.81944   0.64229   0.00000  Uiso   1.00
H1017  H     0.91337   0.83198   0.67162   0.00000  Uiso   1.00
H1018  H     0.91758   0.83768   0.60938   0.00000  Uiso   1.00
C1019  C     0.99073   0.83166   0.65433   0.00000  Uiso   1.00
H1020  H     0.67907   0.81725   0.62749   0.00000  Uiso   1.00
H1021  H     0.99696   0.86894   0.65515   0.00000  Uiso   1.00
H1022  H     0.67310   0.81874   0.68958   0.00000  Uiso   1.00
O1023  O     0.82269   0.66979   0.87484   0.00000  Uiso   1.00
C1024  C     0.76876   0.65792   0.86800   0.00000  Uiso   1.00
H1025  H     0.74599   0.68323   0.84588   0.00000  Uiso   1.00
H1026  H     0.75398   0.65493   0.90240   0.00000  Uiso   1.00
C1027  C     0.75953   0.61218   0.84309   0.00000  Uiso   1.00
H1028  H     0.78420   0.58674   0.86288   0.00000  Uiso   1.00
H1029  H     0.71792   0.60119   0.84111   0.00000  Uiso   1.00
H1030  H     0.76871   0.61435   0.80659   0.00000  Uiso   1.00
I1031  I     0.95164   0.77294   0.53271   0.00000  Uiso   1.00
I1032  I     0.85235   0.64969   0.98528   0.00000  Uiso   1.00
loop_
_geom_bond_atom_site_label_1
_geom_bond_atom_site_label_2
_geom_bond_distance
_geom_bond_site_symmetry_2
_ccdc_geom_bond_type
C1     C21     1.457   .     S
C1     O33     1.296   .     A
C1     O35     1.297   .     A
C2     C22     1.474   .     S
C2     O34     1.296   .     A
C2     O36     1.311   .     A
C3     O51     1.397   .     S
C3     C5      1.423   .     A
C3     C11     1.408   .     A
C4     C12     1.413   .     A
C4     C6      1.414   .     A
C4     O59     1.387   .     S
C5     I67     2.100   .     S
C5     N31     1.391   .     A
C6     N32     1.373   .     A
C6     I68     2.119   .     S
C7     N31     1.382   .     A
C7     C9      1.425   .     A
C7     O69     1.382   .     S
C8     N32     1.374   .     A
C8     O77     1.377   .     S
C8     C10     1.419   .     A
C9     I85     2.124   .     S
C9     C11     1.407   .     A
C10    C12     1.413   .     A
C10    I86     2.130   .     S
C11    C528    1.510   1_554 S
C12    C527    1.510   .     S
C13    O37     1.272   .     A
C13    C15     1.425   .     S
C13    O39     1.304   .     A
C14    O38     1.275   .     A
C14    C16     1.406   .     S
C14    O40     1.293   .     A
C15    C188    1.344   1_455 S
C15    I215    2.144   1_455 S
C16    C101    1.344   .     S
C16    I130    2.120   .     S
C17    I45     2.140   .     S
C17    C27     1.402   .     A
C17    C19     1.409   .     A
C18    C20     1.398   .     A
C18    I46     2.142   .     S
C18    C28     1.401   .     A
C19    C21     1.424   .     A
C19    I47     2.144   .     S
C20    I48     2.154   .     S
C20    C22     1.422   .     A
C21    C23     1.404   .     A
C22    C24     1.412   .     A
C23    I49     2.110   .     S
C23    C25     1.372   .     A
C24    I50     2.117   .     S
C24    C26     1.383   .     A
C25    H29     1.085   .     S
C25    C27     1.392   .     A
C26    H30     1.085   .     S
C26    C28     1.393   .     A
C27    C286    1.454   1_545 S
C28    C285    1.454   .     S
N31    Zn42    2.023   .     S
N32    Zn41    2.023   .     S
O33    Zn41    1.975   .     S
O34    Zn42    1.975   .     S
O35    Zn42    1.981   .     S
O36    Zn41    1.981   .     S
O37    Zn41    1.980   .     S
O38    Zn42    1.980   .     S
O39    Zn42    1.992   .     S
O40    Zn41    1.992   .     S
I43    C101    2.144   .     S
I44    C188    2.120   1_455 S
O51    C568    1.421   1_554 S
C52    C55     1.530   .     S
C52    H54     1.110   .     S
C52    H53     1.092   .     S
C52    O567    1.421   .     S
C55    H57     1.110   .     S
C55    H572    1.109   .     S
C55    H574    1.108   .     S
H56    C571    1.109   1_554 S
H58    C571    1.108   1_554 S
O59    C60     1.411   .     S
C60    C63     1.521   .     S
C60    H61     1.112   .     S
C60    H578    1.108   .     S
H62    C576    1.108   1_554 S
C63    H66     1.111   .     S
C63    H580    1.111   .     S
C63    H581    1.111   .     S
H64    C579    1.111   1_554 S
H65    C579    1.111   1_554 S
O69    C70     1.416   .     S
C70    H71     1.107   .     S
C70    C73     1.523   .     S
C70    H72     1.116   .     S
C73    H75     1.111   .     S
C73    H160    1.109   .     S
C73    H162    1.106   .     S
H74    C245    1.109   1_455 S
H76    C245    1.106   1_455 S
O77    C78     1.412   .     S
C78    H79     1.114   .     S
C78    H80     1.112   .     S
C78    C81     1.520   .     S
C81    H82     1.111   .     S
C81    H83     1.107   .     S
C81    H84     1.107   .     S
C87    C107    1.457   .     S
C87    O119    1.296   .     A
C87    O121    1.297   .     A
C88    C108    1.474   .     S
C88    O120    1.296   .     A
C88    O122    1.311   .     A
C89    O137    1.397   .     S
C89    C91     1.423   .     A
C89    C97     1.408   .     A
C90    C98     1.413   .     A
C90    C92     1.414   .     A
C90    O145    1.387   .     S
C91    I153    2.100   .     S
C91    N117    1.391   .     A
C92    N118    1.373   .     A
C92    I154    2.119   .     S
C93    N117    1.382   .     A
C93    C95     1.425   .     A
C93    O155    1.382   .     S
C94    N118    1.374   .     A
C94    O163    1.377   .     S
C94    C96     1.419   .     A
C95    I171    2.124   .     S
C95    C97     1.407   .     A
C96    C98     1.413   .     A
C96    I172    2.130   .     S
C97    C614    1.510   1_554 S
C98    C613    1.510   .     S
C99    O123    1.272   .     A
C99    C101    1.425   .     S
C99    O125    1.304   .     A
C100   O124    1.275   .     A
C100   C102    1.406   .     S
C100   O126    1.293   .     A
C102   C187    1.344   .     S
C102   I216    2.120   .     S
C103   I131    2.140   .     S
C103   C113    1.402   .     A
C103   C105    1.409   .     A
C104   C106    1.398   .     A
C104   I132    2.142   .     S
C104   C114    1.401   .     A
C105   C107    1.424   .     A
C105   I133    2.144   .     S
C106   I134    2.154   .     S
C106   C108    1.422   .     A
C107   C109    1.404   .     A
C108   C110    1.412   .     A
C109   I135    2.110   .     S
C109   C111    1.372   .     A
C110   I136    2.117   .     S
C110   C112    1.383   .     A
C111   H115    1.085   .     S
C111   C113    1.392   .     A
C112   H116    1.085   .     S
C112   C114    1.393   .     A
C113   C372    1.454   1_545 S
C114   C371    1.454   .     S
N117   Zn128   2.023   .     S
N118   Zn127   2.023   .     S
O119   Zn127   1.975   .     S
O120   Zn128   1.975   .     S
O121   Zn128   1.981   .     S
O122   Zn127   1.981   .     S
O123   Zn127   1.980   .     S
O124   Zn128   1.980   .     S
O125   Zn128   1.992   .     S
O126   Zn127   1.992   .     S
I129   C187    2.144   .     S
O137   C654    1.421   1_554 S
C138   C141    1.530   .     S
C138   H140    1.110   .     S
C138   H139    1.092   .     S
C138   O653    1.421   .     S
C141   H143    1.110   .     S
C141   H658    1.109   .     S
C141   H660    1.108   .     S
H142   C657    1.109   1_554 S
H144   C657    1.108   1_554 S
O145   C146    1.411   .     S
C146   C149    1.521   .     S
C146   H147    1.112   .     S
C146   H664    1.108   .     S
H148   C662    1.108   1_554 S
C149   H152    1.111   .     S
C149   H666    1.111   .     S
C149   H667    1.111   .     S
H150   C665    1.111   1_554 S
H151   C665    1.111   1_554 S
O155   C156    1.416   .     S
C156   H157    1.107   .     S
C156   C159    1.523   .     S
C156   H158    1.116   .     S
C159   H161    1.111   .     S
C159   H246    1.109   .     S
C159   H248    1.106   .     S
O163   C164    1.412   .     S
C164   H165    1.114   .     S
C164   H166    1.112   .     S
C164   C167    1.520   .     S
C167   H168    1.111   .     S
C167   H169    1.107   .     S
C167   H170    1.107   .     S
C173   C193    1.457   .     S
C173   O205    1.296   .     A
C173   O207    1.297   .     A
C174   C194    1.474   .     S
C174   O206    1.296   .     A
C174   O208    1.311   .     A
C175   O223    1.397   .     S
C175   C177    1.423   .     A
C175   C183    1.408   .     A
C176   C184    1.413   .     A
C176   C178    1.414   .     A
C176   O231    1.387   .     S
C177   I239    2.100   .     S
C177   N203    1.391   .     A
C178   N204    1.373   .     A
C178   I240    2.119   .     S
C179   N203    1.382   .     A
C179   C181    1.425   .     A
C179   O241    1.382   .     S
C180   N204    1.374   .     A
C180   O249    1.377   .     S
C180   C182    1.419   .     A
C181   I257    2.124   .     S
C181   C183    1.407   .     A
C182   C184    1.413   .     A
C182   I258    2.130   .     S
C183   C700    1.510   1_554 S
C184   C699    1.510   .     S
C185   O209    1.272   .     A
C185   C187    1.425   .     S
C185   O211    1.304   .     A
C186   O210    1.275   .     A
C186   C188    1.406   .     S
C186   O212    1.293   .     A
C188   C15     1.344   1_655 S
C188   I44     2.120   1_655 S
C189   I217    2.140   .     S
C189   C199    1.402   .     A
C189   C191    1.409   .     A
C190   C192    1.398   .     A
C190   I218    2.142   .     S
C190   C200    1.401   .     A
C191   C193    1.424   .     A
C191   I219    2.144   .     S
C192   I220    2.154   .     S
C192   C194    1.422   .     A
C193   C195    1.404   .     A
C194   C196    1.412   .     A
C195   I221    2.110   .     S
C195   C197    1.372   .     A
C196   I222    2.117   .     S
C196   C198    1.383   .     A
C197   H201    1.085   .     S
C197   C199    1.392   .     A
C198   H202    1.085   .     S
C198   C200    1.393   .     A
C199   C458    1.454   1_545 S
C200   C457    1.454   .     S
N203   Zn214   2.023   .     S
N204   Zn213   2.023   .     S
O205   Zn213   1.975   .     S
O206   Zn214   1.975   .     S
O207   Zn214   1.981   .     S
O208   Zn213   1.981   .     S
O209   Zn213   1.980   .     S
O210   Zn214   1.980   .     S
O211   Zn214   1.992   .     S
O212   Zn213   1.992   .     S
I215   C15     2.144   1_655 S
O223   C740    1.421   1_554 S
C224   C227    1.530   .     S
C224   H226    1.110   .     S
C224   H225    1.092   .     S
C224   O739    1.421   .     S
C227   H229    1.110   .     S
C227   H744    1.109   .     S
C227   H746    1.108   .     S
H228   C743    1.109   1_554 S
H230   C743    1.108   1_554 S
O231   C232    1.411   .     S
C232   C235    1.521   .     S
C232   H233    1.112   .     S
C232   H750    1.108   .     S
H234   C748    1.108   1_554 S
C235   H238    1.111   .     S
C235   H752    1.111   .     S
C235   H753    1.111   .     S
H236   C751    1.111   1_554 S
H237   C751    1.111   1_554 S
O241   C242    1.416   .     S
C242   H243    1.107   .     S
C242   C245    1.523   .     S
C242   H244    1.116   .     S
C245   H247    1.111   .     S
C245   H74     1.109   1_655 S
C245   H76     1.106   1_655 S
O249   C250    1.412   .     S
C250   H251    1.114   .     S
C250   H252    1.112   .     S
C250   C253    1.520   .     S
C253   H254    1.111   .     S
C253   H255    1.107   .     S
C253   H256    1.107   .     S
C259   C279    1.457   .     S
C259   O291    1.296   .     A
C259   O293    1.297   .     A
C260   C280    1.474   .     S
C260   O292    1.296   .     A
C260   O294    1.311   .     A
C261   O309    1.397   .     S
C261   C263    1.423   .     A
C261   C269    1.408   .     A
C262   C270    1.413   .     A
C262   C264    1.414   .     A
C262   O317    1.387   .     S
C263   I325    2.100   .     S
C263   N289    1.391   .     A
C264   N290    1.373   .     A
C264   I326    2.119   .     S
C265   N289    1.382   .     A
C265   C267    1.425   .     A
C265   O327    1.382   .     S
C266   N290    1.374   .     A
C266   O335    1.377   .     S
C266   C268    1.419   .     A
C267   I343    2.124   .     S
C267   C269    1.407   .     A
C268   C270    1.413   .     A
C268   I344    2.130   .     S
C269   C786    1.510   1_554 S
C270   C785    1.510   .     S
C271   O295    1.272   .     A
C271   C273    1.425   .     S
C271   O297    1.304   .     A
C272   O296    1.275   .     A
C272   C274    1.406   .     S
C272   O298    1.293   .     A
C273   C446    1.344   1_455 S
C273   I473    2.144   1_455 S
C274   C359    1.344   .     S
C274   I388    2.120   .     S
C275   I303    2.140   .     S
C275   C285    1.402   .     A
C275   C277    1.409   .     A
C276   C278    1.398   .     A
C276   I304    2.142   .     S
C276   C286    1.401   .     A
C277   C279    1.424   .     A
C277   I305    2.144   .     S
C278   I306    2.154   .     S
C278   C280    1.422   .     A
C279   C281    1.404   .     A
C280   C282    1.412   .     A
C281   I307    2.110   .     S
C281   C283    1.372   .     A
C282   I308    2.117   .     S
C282   C284    1.383   .     A
C283   H287    1.085   .     S
C283   C285    1.392   .     A
C284   H288    1.085   .     S
C284   C286    1.393   .     A
C286   C27     1.454   1_565 S
N289   Zn300   2.023   .     S
N290   Zn299   2.023   .     S
O291   Zn299   1.975   .     S
O292   Zn300   1.975   .     S
O293   Zn300   1.981   .     S
O294   Zn299   1.981   .     S
O295   Zn299   1.980   .     S
O296   Zn300   1.980   .     S
O297   Zn300   1.992   .     S
O298   Zn299   1.992   .     S
I301   C359    2.144   .     S
I302   C446    2.120   1_455 S
O309   C826    1.421   1_554 S
C310   C313    1.530   .     S
C310   H312    1.110   .     S
C310   H311    1.092   .     S
C310   O825    1.421   .     S
C313   H315    1.110   .     S
C313   H830    1.109   .     S
C313   H832    1.108   .     S
H314   C829    1.109   1_554 S
H316   C829    1.108   1_554 S
O317   C318    1.411   .     S
C318   C321    1.521   .     S
C318   H319    1.112   .     S
C318   H836    1.108   .     S
H320   C834    1.108   1_554 S
C321   H324    1.111   .     S
C321   H838    1.111   .     S
C321   H839    1.111   .     S
H322   C837    1.111   1_554 S
H323   C837    1.111   1_554 S
O327   C328    1.416   .     S
C328   H329    1.107   .     S
C328   C331    1.523   .     S
C328   H330    1.116   .     S
C331   H333    1.111   .     S
C331   H418    1.109   .     S
C331   H420    1.106   .     S
H332   C503    1.109   1_455 S
H334   C503    1.106   1_455 S
O335   C336    1.412   .     S
C336   H337    1.114   .     S
C336   H338    1.112   .     S
C336   C339    1.520   .     S
C339   H340    1.111   .     S
C339   H341    1.107   .     S
C339   H342    1.107   .     S
C345   C365    1.457   .     S
C345   O377    1.296   .     A
C345   O379    1.297   .     A
C346   C366    1.474   .     S
C346   O378    1.296   .     A
C346   O380    1.311   .     A
C347   O395    1.397   .     S
C347   C349    1.423   .     A
C347   C355    1.408   .     A
C348   C356    1.413   .     A
C348   C350    1.414   .     A
C348   O403    1.387   .     S
C349   I411    2.100   .     S
C349   N375    1.391   .     A
C350   N376    1.373   .     A
C350   I412    2.119   .     S
C351   N375    1.382   .     A
C351   C353    1.425   .     A
C351   O413    1.382   .     S
C352   N376    1.374   .     A
C352   O421    1.377   .     S
C352   C354    1.419   .     A
C353   I429    2.124   .     S
C353   C355    1.407   .     A
C354   C356    1.413   .     A
C354   I430    2.130   .     S
C355   C872    1.510   1_554 S
C356   C871    1.510   .     S
C357   O381    1.272   .     A
C357   C359    1.425   .     S
C357   O383    1.304   .     A
C358   O382    1.275   .     A
C358   C360    1.406   .     S
C358   O384    1.293   .     A
C360   C445    1.344   .     S
C360   I474    2.120   .     S
C361   I389    2.140   .     S
C361   C371    1.402   .     A
C361   C363    1.409   .     A
C362   C364    1.398   .     A
C362   I390    2.142   .     S
C362   C372    1.401   .     A
C363   C365    1.424   .     A
C363   I391    2.144   .     S
C364   I392    2.154   .     S
C364   C366    1.422   .     A
C365   C367    1.404   .     A
C366   C368    1.412   .     A
C367   I393    2.110   .     S
C367   C369    1.372   .     A
C368   I394    2.117   .     S
C368   C370    1.383   .     A
C369   H373    1.085   .     S
C369   C371    1.392   .     A
C370   H374    1.085   .     S
C370   C372    1.393   .     A
C372   C113    1.454   1_565 S
N375   Zn386   2.023   .     S
N376   Zn385   2.023   .     S
O377   Zn385   1.975   .     S
O378   Zn386   1.975   .     S
O379   Zn386   1.981   .     S
O380   Zn385   1.981   .     S
O381   Zn385   1.980   .     S
O382   Zn386   1.980   .     S
O383   Zn386   1.992   .     S
O384   Zn385   1.992   .     S
I387   C445    2.144   .     S
O395   C912    1.421   1_554 S
C396   C399    1.530   .     S
C396   H398    1.110   .     S
C396   H397    1.092   .     S
C396   O911    1.421   .     S
C399   H401    1.110   .     S
C399   H916    1.109   .     S
C399   H918    1.108   .     S
H400   C915    1.109   1_554 S
H402   C915    1.108   1_554 S
O403   C404    1.411   .     S
C404   C407    1.521   .     S
C404   H405    1.112   .     S
C404   H922    1.108   .     S
H406   C920    1.108   1_554 S
C407   H410    1.111   .     S
C407   H924    1.111   .     S
C407   H925    1.111   .     S
H408   C923    1.111   1_554 S
H409   C923    1.111   1_554 S
O413   C414    1.416   .     S
C414   H415    1.107   .     S
C414   C417    1.523   .     S
C414   H416    1.116   .     S
C417   H419    1.111   .     S
C417   H504    1.109   .     S
C417   H506    1.106   .     S
O421   C422    1.412   .     S
C422   H423    1.114   .     S
C422   H424    1.112   .     S
C422   C425    1.520   .     S
C425   H426    1.111   .     S
C425   H427    1.107   .     S
C425   H428    1.107   .     S
C431   C451    1.457   .     S
C431   O463    1.296   .     A
C431   O465    1.297   .     A
C432   C452    1.474   .     S
C432   O464    1.296   .     A
C432   O466    1.311   .     A
C433   O481    1.397   .     S
C433   C435    1.423   .     A
C433   C441    1.408   .     A
C434   C442    1.413   .     A
C434   C436    1.414   .     A
C434   O489    1.387   .     S
C435   I497    2.100   .     S
C435   N461    1.391   .     A
C436   N462    1.373   .     A
C436   I498    2.119   .     S
C437   N461    1.382   .     A
C437   C439    1.425   .     A
C437   O499    1.382   .     S
C438   N462    1.374   .     A
C438   O507    1.377   .     S
C438   C440    1.419   .     A
C439   I515    2.124   .     S
C439   C441    1.407   .     A
C440   C442    1.413   .     A
C440   I516    2.130   .     S
C441   C958    1.510   1_554 S
C442   C957    1.510   .     S
C443   O467    1.272   .     A
C443   C445    1.425   .     S
C443   O469    1.304   .     A
C444   O468    1.275   .     A
C444   C446    1.406   .     S
C444   O470    1.293   .     A
C446   C273    1.344   1_655 S
C446   I302    2.120   1_655 S
C447   I475    2.140   .     S
C447   C457    1.402   .     A
C447   C449    1.409   .     A
C448   C450    1.398   .     A
C448   I476    2.142   .     S
C448   C458    1.401   .     A
C449   C451    1.424   .     A
C449   I477    2.144   .     S
C450   I478    2.154   .     S
C450   C452    1.422   .     A
C451   C453    1.404   .     A
C452   C454    1.412   .     A
C453   I479    2.110   .     S
C453   C455    1.372   .     A
C454   I480    2.117   .     S
C454   C456    1.383   .     A
C455   H459    1.085   .     S
C455   C457    1.392   .     A
C456   H460    1.085   .     S
C456   C458    1.393   .     A
C458   C199    1.454   1_565 S
N461   Zn472   2.023   .     S
N462   Zn471   2.023   .     S
O463   Zn471   1.975   .     S
O464   Zn472   1.975   .     S
O465   Zn472   1.981   .     S
O466   Zn471   1.981   .     S
O467   Zn471   1.980   .     S
O468   Zn472   1.980   .     S
O469   Zn472   1.992   .     S
O470   Zn471   1.992   .     S
I473   C273    2.144   1_655 S
O481   C998    1.421   1_554 S
C482   C485    1.530   .     S
C482   H484    1.110   .     S
C482   H483    1.092   .     S
C482   O997    1.421   .     S
C485   H487    1.110   .     S
C485   H1002   1.109   .     S
C485   H1004   1.108   .     S
H486   C1001   1.109   1_554 S
H488   C1001   1.108   1_554 S
O489   C490    1.411   .     S
C490   C493    1.521   .     S
C490   H491    1.112   .     S
C490   H1008   1.108   .     S
H492   C1006   1.108   1_554 S
C493   H496    1.111   .     S
C493   H1010   1.111   .     S
C493   H1011   1.111   .     S
H494   C1009   1.111   1_554 S
H495   C1009   1.111   1_554 S
O499   C500    1.416   .     S
C500   H501    1.107   .     S
C500   C503    1.523   .     S
C500   H502    1.116   .     S
C503   H505    1.111   .     S
C503   H332    1.109   1_655 S
C503   H334    1.106   1_655 S
O507   C508    1.412   .     S
C508   H509    1.114   .     S
C508   H510    1.112   .     S
C508   C511    1.520   .     S
C511   H512    1.111   .     S
C511   H513    1.107   .     S
C511   H514    1.107   .     S
C517   C537    1.457   .     S
C517   O549    1.296   .     A
C517   O551    1.297   .     A
C518   C538    1.474   .     S
C518   O550    1.296   .     A
C518   O552    1.311   .     A
C519   O567    1.397   .     S
C519   C521    1.423   .     A
C519   C527    1.408   .     A
C520   C528    1.413   .     A
C520   C522    1.414   .     A
C520   O575    1.387   .     S
C521   I583    2.100   .     S
C521   N547    1.391   .     A
C522   N548    1.373   .     A
C522   I584    2.119   .     S
C523   N547    1.382   .     A
C523   C525    1.425   .     A
C523   O585    1.382   .     S
C524   N548    1.374   .     A
C524   O593    1.377   .     S
C524   C526    1.419   .     A
C525   I601    2.124   .     S
C525   C527    1.407   .     A
C526   C528    1.413   .     A
C526   I602    2.130   .     S
C528   C11     1.510   1_556 S
C529   O553    1.272   .     A
C529   C531    1.425   .     S
C529   O555    1.304   .     A
C530   O554    1.275   .     A
C530   C532    1.406   .     S
C530   O556    1.293   .     A
C531   C704    1.344   1_455 S
C531   I731    2.144   1_455 S
C532   C617    1.344   .     S
C532   I646    2.120   .     S
C533   I561    2.140   .     S
C533   C543    1.402   .     A
C533   C535    1.409   .     A
C534   C536    1.398   .     A
C534   I562    2.142   .     S
C534   C544    1.401   .     A
C535   C537    1.424   .     A
C535   I563    2.144   .     S
C536   I564    2.154   .     S
C536   C538    1.422   .     A
C537   C539    1.404   .     A
C538   C540    1.412   .     A
C539   I565    2.110   .     S
C539   C541    1.372   .     A
C540   I566    2.117   .     S
C540   C542    1.383   .     A
C541   H545    1.085   .     S
C541   C543    1.392   .     A
C542   H546    1.085   .     S
C542   C544    1.393   .     A
C543   C802    1.454   1_545 S
C544   C801    1.454   .     S
N547   Zn558   2.023   .     S
N548   Zn557   2.023   .     S
O549   Zn557   1.975   .     S
O550   Zn558   1.975   .     S
O551   Zn558   1.981   .     S
O552   Zn557   1.981   .     S
O553   Zn557   1.980   .     S
O554   Zn558   1.980   .     S
O555   Zn558   1.992   .     S
O556   Zn557   1.992   .     S
I559   C617    2.144   .     S
I560   C704    2.120   1_455 S
C568   C571    1.530   .     S
C568   H570    1.110   .     S
C568   H569    1.092   .     S
C568   O51     1.421   1_556 S
C571   H573    1.110   .     S
C571   H56     1.109   1_556 S
C571   H58     1.108   1_556 S
O575   C576    1.411   .     S
C576   C579    1.521   .     S
C576   H577    1.112   .     S
C576   H62     1.108   1_556 S
C579   H582    1.111   .     S
C579   H64     1.111   1_556 S
C579   H65     1.111   1_556 S
O585   C586    1.416   .     S
C586   H587    1.107   .     S
C586   C589    1.523   .     S
C586   H588    1.116   .     S
C589   H591    1.111   .     S
C589   H676    1.109   .     S
C589   H678    1.106   .     S
H590   C761    1.109   1_455 S
H592   C761    1.106   1_455 S
O593   C594    1.412   .     S
C594   H595    1.114   .     S
C594   H596    1.112   .     S
C594   C597    1.520   .     S
C597   H598    1.111   .     S
C597   H599    1.107   .     S
C597   H600    1.107   .     S
C603   C623    1.457   .     S
C603   O635    1.296   .     A
C603   O637    1.297   .     A
C604   C624    1.474   .     S
C604   O636    1.296   .     A
C604   O638    1.311   .     A
C605   O653    1.397   .     S
C605   C607    1.423   .     A
C605   C613    1.408   .     A
C606   C614    1.413   .     A
C606   C608    1.414   .     A
C606   O661    1.387   .     S
C607   I669    2.100   .     S
C607   N633    1.391   .     A
C608   N634    1.373   .     A
C608   I670    2.119   .     S
C609   N633    1.382   .     A
C609   C611    1.425   .     A
C609   O671    1.382   .     S
C610   N634    1.374   .     A
C610   O679    1.377   .     S
C610   C612    1.419   .     A
C611   I687    2.124   .     S
C611   C613    1.407   .     A
C612   C614    1.413   .     A
C612   I688    2.130   .     S
C614   C97     1.510   1_556 S
C615   O639    1.272   .     A
C615   C617    1.425   .     S
C615   O641    1.304   .     A
C616   O640    1.275   .     A
C616   C618    1.406   .     S
C616   O642    1.293   .     A
C618   C703    1.344   .     S
C618   I732    2.120   .     S
C619   I647    2.140   .     S
C619   C629    1.402   .     A
C619   C621    1.409   .     A
C620   C622    1.398   .     A
C620   I648    2.142   .     S
C620   C630    1.401   .     A
C621   C623    1.424   .     A
C621   I649    2.144   .     S
C622   I650    2.154   .     S
C622   C624    1.422   .     A
C623   C625    1.404   .     A
C624   C626    1.412   .     A
C625   I651    2.110   .     S
C625   C627    1.372   .     A
C626   I652    2.117   .     S
C626   C628    1.383   .     A
C627   H631    1.085   .     S
C627   C629    1.392   .     A
C628   H632    1.085   .     S
C628   C630    1.393   .     A
C629   C888    1.454   1_545 S
C630   C887    1.454   .     S
N633   Zn644   2.023   .     S
N634   Zn643   2.023   .     S
O635   Zn643   1.975   .     S
O636   Zn644   1.975   .     S
O637   Zn644   1.981   .     S
O638   Zn643   1.981   .     S
O639   Zn643   1.980   .     S
O640   Zn644   1.980   .     S
O641   Zn644   1.992   .     S
O642   Zn643   1.992   .     S
I645   C703    2.144   .     S
C654   C657    1.530   .     S
C654   H656    1.110   .     S
C654   H655    1.092   .     S
C654   O137    1.421   1_556 S
C657   H659    1.110   .     S
C657   H142    1.109   1_556 S
C657   H144    1.108   1_556 S
O661   C662    1.411   .     S
C662   C665    1.521   .     S
C662   H663    1.112   .     S
C662   H148    1.108   1_556 S
C665   H668    1.111   .     S
C665   H150    1.111   1_556 S
C665   H151    1.111   1_556 S
O671   C672    1.416   .     S
C672   H673    1.107   .     S
C672   C675    1.523   .     S
C672   H674    1.116   .     S
C675   H677    1.111   .     S
C675   H762    1.109   .     S
C675   H764    1.106   .     S
O679   C680    1.412   .     S
C680   H681    1.114   .     S
C680   H682    1.112   .     S
C680   C683    1.520   .     S
C683   H684    1.111   .     S
C683   H685    1.107   .     S
C683   H686    1.107   .     S
C689   C709    1.457   .     S
C689   O721    1.296   .     A
C689   O723    1.297   .     A
C690   C710    1.474   .     S
C690   O722    1.296   .     A
C690   O724    1.311   .     A
C691   O739    1.397   .     S
C691   C693    1.423   .     A
C691   C699    1.408   .     A
C692   C700    1.413   .     A
C692   C694    1.414   .     A
C692   O747    1.387   .     S
C693   I755    2.100   .     S
C693   N719    1.391   .     A
C694   N720    1.373   .     A
C694   I756    2.119   .     S
C695   N719    1.382   .     A
C695   C697    1.425   .     A
C695   O757    1.382   .     S
C696   N720    1.374   .     A
C696   O765    1.377   .     S
C696   C698    1.419   .     A
C697   I773    2.124   .     S
C697   C699    1.407   .     A
C698   C700    1.413   .     A
C698   I774    2.130   .     S
C700   C183    1.510   1_556 S
C701   O725    1.272   .     A
C701   C703    1.425   .     S
C701   O727    1.304   .     A
C702   O726    1.275   .     A
C702   C704    1.406   .     S
C702   O728    1.293   .     A
C704   C531    1.344   1_655 S
C704   I560    2.120   1_655 S
C705   I733    2.140   .     S
C705   C715    1.402   .     A
C705   C707    1.409   .     A
C706   C708    1.398   .     A
C706   I734    2.142   .     S
C706   C716    1.401   .     A
C707   C709    1.424   .     A
C707   I735    2.144   .     S
C708   I736    2.154   .     S
C708   C710    1.422   .     A
C709   C711    1.404   .     A
C710   C712    1.412   .     A
C711   I737    2.110   .     S
C711   C713    1.372   .     A
C712   I738    2.117   .     S
C712   C714    1.383   .     A
C713   H717    1.085   .     S
C713   C715    1.392   .     A
C714   H718    1.085   .     S
C714   C716    1.393   .     A
C715   C974    1.454   1_545 S
C716   C973    1.454   .     S
N719   Zn730   2.023   .     S
N720   Zn729   2.023   .     S
O721   Zn729   1.975   .     S
O722   Zn730   1.975   .     S
O723   Zn730   1.981   .     S
O724   Zn729   1.981   .     S
O725   Zn729   1.980   .     S
O726   Zn730   1.980   .     S
O727   Zn730   1.992   .     S
O728   Zn729   1.992   .     S
I731   C531    2.144   1_655 S
C740   C743    1.530   .     S
C740   H742    1.110   .     S
C740   H741    1.092   .     S
C740   O223    1.421   1_556 S
C743   H745    1.110   .     S
C743   H228    1.109   1_556 S
C743   H230    1.108   1_556 S
O747   C748    1.411   .     S
C748   C751    1.521   .     S
C748   H749    1.112   .     S
C748   H234    1.108   1_556 S
C751   H754    1.111   .     S
C751   H236    1.111   1_556 S
C751   H237    1.111   1_556 S
O757   C758    1.416   .     S
C758   H759    1.107   .     S
C758   C761    1.523   .     S
C758   H760    1.116   .     S
C761   H763    1.111   .     S
C761   H590    1.109   1_655 S
C761   H592    1.106   1_655 S
O765   C766    1.412   .     S
C766   H767    1.114   .     S
C766   H768    1.112   .     S
C766   C769    1.520   .     S
C769   H770    1.111   .     S
C769   H771    1.107   .     S
C769   H772    1.107   .     S
C775   C795    1.457   .     S
C775   O807    1.296   .     A
C775   O809    1.297   .     A
C776   C796    1.474   .     S
C776   O808    1.296   .     A
C776   O810    1.311   .     A
C777   O825    1.397   .     S
C777   C779    1.423   .     A
C777   C785    1.408   .     A
C778   C786    1.413   .     A
C778   C780    1.414   .     A
C778   O833    1.387   .     S
C779   I841    2.100   .     S
C779   N805    1.391   .     A
C780   N806    1.373   .     A
C780   I842    2.119   .     S
C781   N805    1.382   .     A
C781   C783    1.425   .     A
C781   O843    1.382   .     S
C782   N806    1.374   .     A
C782   O851    1.377   .     S
C782   C784    1.419   .     A
C783   I859    2.124   .     S
C783   C785    1.407   .     A
C784   C786    1.413   .     A
C784   I860    2.130   .     S
C786   C269    1.510   1_556 S
C787   O811    1.272   .     A
C787   C789    1.425   .     S
C787   O813    1.304   .     A
C788   O812    1.275   .     A
C788   C790    1.406   .     S
C788   O814    1.293   .     A
C789   C962    1.344   1_455 S
C789   I989    2.144   1_455 S
C790   C875    1.344   .     S
C790   I904    2.120   .     S
C791   I819    2.140   .     S
C791   C801    1.402   .     A
C791   C793    1.409   .     A
C792   C794    1.398   .     A
C792   I820    2.142   .     S
C792   C802    1.401   .     A
C793   C795    1.424   .     A
C793   I821    2.144   .     S
C794   I822    2.154   .     S
C794   C796    1.422   .     A
C795   C797    1.404   .     A
C796   C798    1.412   .     A
C797   I823    2.110   .     S
C797   C799    1.372   .     A
C798   I824    2.117   .     S
C798   C800    1.383   .     A
C799   H803    1.085   .     S
C799   C801    1.392   .     A
C800   H804    1.085   .     S
C800   C802    1.393   .     A
C802   C543    1.454   1_565 S
N805   Zn816   2.023   .     S
N806   Zn815   2.023   .     S
O807   Zn815   1.975   .     S
O808   Zn816   1.975   .     S
O809   Zn816   1.981   .     S
O810   Zn815   1.981   .     S
O811   Zn815   1.980   .     S
O812   Zn816   1.980   .     S
O813   Zn816   1.992   .     S
O814   Zn815   1.992   .     S
I817   C875    2.144   .     S
I818   C962    2.120   1_455 S
C826   C829    1.530   .     S
C826   H828    1.110   .     S
C826   H827    1.092   .     S
C826   O309    1.421   1_556 S
C829   H831    1.110   .     S
C829   H314    1.109   1_556 S
C829   H316    1.108   1_556 S
O833   C834    1.411   .     S
C834   C837    1.521   .     S
C834   H835    1.112   .     S
C834   H320    1.108   1_556 S
C837   H840    1.111   .     S
C837   H322    1.111   1_556 S
C837   H323    1.111   1_556 S
O843   C844    1.416   .     S
C844   H845    1.107   .     S
C844   C847    1.523   .     S
C844   H846    1.116   .     S
C847   H849    1.111   .     S
C847   H934    1.109   .     S
C847   H936    1.106   .     S
H848   C1019   1.109   1_455 S
H850   C1019   1.106   1_455 S
O851   C852    1.412   .     S
C852   H853    1.114   .     S
C852   H854    1.112   .     S
C852   C855    1.520   .     S
C855   H856    1.111   .     S
C855   H857    1.107   .     S
C855   H858    1.107   .     S
C861   C881    1.457   .     S
C861   O893    1.296   .     A
C861   O895    1.297   .     A
C862   C882    1.474   .     S
C862   O894    1.296   .     A
C862   O896    1.311   .     A
C863   O911    1.397   .     S
C863   C865    1.423   .     A
C863   C871    1.408   .     A
C864   C872    1.413   .     A
C864   C866    1.414   .     A
C864   O919    1.387   .     S
C865   I927    2.100   .     S
C865   N891    1.391   .     A
C866   N892    1.373   .     A
C866   I928    2.119   .     S
C867   N891    1.382   .     A
C867   C869    1.425   .     A
C867   O929    1.382   .     S
C868   N892    1.374   .     A
C868   O937    1.377   .     S
C868   C870    1.419   .     A
C869   I945    2.124   .     S
C869   C871    1.407   .     A
C870   C872    1.413   .     A
C870   I946    2.130   .     S
C872   C355    1.510   1_556 S
C873   O897    1.272   .     A
C873   C875    1.425   .     S
C873   O899    1.304   .     A
C874   O898    1.275   .     A
C874   C876    1.406   .     S
C874   O900    1.293   .     A
C876   C961    1.344   .     S
C876   I990    2.120   .     S
C877   I905    2.140   .     S
C877   C887    1.402   .     A
C877   C879    1.409   .     A
C878   C880    1.398   .     A
C878   I906    2.142   .     S
C878   C888    1.401   .     A
C879   C881    1.424   .     A
C879   I907    2.144   .     S
C880   I908    2.154   .     S
C880   C882    1.422   .     A
C881   C883    1.404   .     A
C882   C884    1.412   .     A
C883   I909    2.110   .     S
C883   C885    1.372   .     A
C884   I910    2.117   .     S
C884   C886    1.383   .     A
C885   H889    1.085   .     S
C885   C887    1.392   .     A
C886   H890    1.085   .     S
C886   C888    1.393   .     A
C888   C629    1.454   1_565 S
N891   Zn902   2.023   .     S
N892   Zn901   2.023   .     S
O893   Zn901   1.975   .     S
O894   Zn902   1.975   .     S
O895   Zn902   1.981   .     S
O896   Zn901   1.981   .     S
O897   Zn901   1.980   .     S
O898   Zn902   1.980   .     S
O899   Zn902   1.992   .     S
O900   Zn901   1.992   .     S
I903   C961    2.144   .     S
C912   C915    1.530   .     S
C912   H914    1.110   .     S
C912   H913    1.092   .     S
C912   O395    1.421   1_556 S
C915   H917    1.110   .     S
C915   H400    1.109   1_556 S
C915   H402    1.108   1_556 S
O919   C920    1.411   .     S
C920   C923    1.521   .     S
C920   H921    1.112   .     S
C920   H406    1.108   1_556 S
C923   H926    1.111   .     S
C923   H408    1.111   1_556 S
C923   H409    1.111   1_556 S
O929   C930    1.416   .     S
C930   H931    1.107   .     S
C930   C933    1.523   .     S
C930   H932    1.116   .     S
C933   H935    1.111   .     S
C933   H1020   1.109   .     S
C933   H1022   1.106   .     S
O937   C938    1.412   .     S
C938   H939    1.114   .     S
C938   H940    1.112   .     S
C938   C941    1.520   .     S
C941   H942    1.111   .     S
C941   H943    1.107   .     S
C941   H944    1.107   .     S
C947   C967    1.457   .     S
C947   O979    1.296   .     A
C947   O981    1.297   .     A
C948   C968    1.474   .     S
C948   O980    1.296   .     A
C948   O982    1.311   .     A
C949   O997    1.397   .     S
C949   C951    1.423   .     A
C949   C957    1.408   .     A
C950   C958    1.413   .     A
C950   C952    1.414   .     A
C950   O1005   1.387   .     S
C951   I1013   2.100   .     S
C951   N977    1.391   .     A
C952   N978    1.373   .     A
C952   I1014   2.119   .     S
C953   N977    1.382   .     A
C953   C955    1.425   .     A
C953   O1015   1.382   .     S
C954   N978    1.374   .     A
C954   O1023   1.377   .     S
C954   C956    1.419   .     A
C955   I1031   2.124   .     S
C955   C957    1.407   .     A
C956   C958    1.413   .     A
C956   I1032   2.130   .     S
C958   C441    1.510   1_556 S
C959   O983    1.272   .     A
C959   C961    1.425   .     S
C959   O985    1.304   .     A
C960   O984    1.275   .     A
C960   C962    1.406   .     S
C960   O986    1.293   .     A
C962   C789    1.344   1_655 S
C962   I818    2.120   1_655 S
C963   I991    2.140   .     S
C963   C973    1.402   .     A
C963   C965    1.409   .     A
C964   C966    1.398   .     A
C964   I992    2.142   .     S
C964   C974    1.401   .     A
C965   C967    1.424   .     A
C965   I993    2.144   .     S
C966   I994    2.154   .     S
C966   C968    1.422   .     A
C967   C969    1.404   .     A
C968   C970    1.412   .     A
C969   I995    2.110   .     S
C969   C971    1.372   .     A
C970   I996    2.117   .     S
C970   C972    1.383   .     A
C971   H975    1.085   .     S
C971   C973    1.392   .     A
C972   H976    1.085   .     S
C972   C974    1.393   .     A
C974   C715    1.454   1_565 S
N977   Zn988   2.023   .     S
N978   Zn987   2.023   .     S
O979   Zn987   1.975   .     S
O980   Zn988   1.975   .     S
O981   Zn988   1.981   .     S
O982   Zn987   1.981   .     S
O983   Zn987   1.980   .     S
O984   Zn988   1.980   .     S
O985   Zn988   1.992   .     S
O986   Zn987   1.992   .     S
I989   C789    2.144   1_655 S
C998   C1001   1.530   .     S
C998   H1000   1.110   .     S
C998   H999    1.092   .     S
C998   O481    1.421   1_556 S
C1001  H1003   1.110   .     S
C1001  H486    1.109   1_556 S
C1001  H488    1.108   1_556 S
O1005  C1006   1.411   .     S
C1006  C1009   1.521   .     S
C1006  H1007   1.112   .     S
C1006  H492    1.108   1_556 S
C1009  H1012   1.111   .     S
C1009  H494    1.111   1_556 S
C1009  H495    1.111   1_556 S
O1015  C1016   1.416   .     S
C1016  H1017   1.107   .     S
C1016  C1019   1.523   .     S
C1016  H1018   1.116   .     S
C1019  H1021   1.111   .     S
C1019  H848    1.109   1_655 S
C1019  H850    1.106   1_655 S
O1023  C1024   1.412   .     S
C1024  H1025   1.114   .     S
C1024  H1026   1.112   .     S
C1024  C1027   1.520   .     S
C1027  H1028   1.111   .     S
C1027  H1029   1.107   .     S
C1027  H1030   1.107   .     S
