data_str_m3_o1_o17_pcu_sym.129
_audit_creation_date              2020-01-03
_audit_creation_method            'Materials Studio'
_symmetry_space_group_name_H-M    'P1'
_symmetry_Int_Tables_number       1
_symmetry_cell_setting            triclinic
loop_
_symmetry_equiv_pos_as_xyz
  x,y,z
_cell_length_a                    32.4953
_cell_length_b                    29.6621
_cell_length_c                    29.6637
_cell_angle_alpha                 90.4308
_cell_angle_beta                  91.3773
_cell_angle_gamma                 89.6035
loop_
_atom_site_label
_atom_site_type_symbol
_atom_site_fract_x
_atom_site_fract_y
_atom_site_fract_z
_atom_site_U_iso_or_equiv
_atom_site_adp_type
_atom_site_occupancy
O1     O     0.10559   0.20487   0.24999   0.00000  Uiso   1.00
O2     O     0.22774   0.12846   0.25000   0.00000  Uiso   1.00
O3     O     0.22774   0.20487   0.25000   0.00000  Uiso   1.00
O4     O     0.10559   0.12846   0.24999   0.00000  Uiso   1.00
C5     C     0.08675   0.16686   0.25514   0.00000  Uiso   1.00
C6     C     0.24659   0.16658   0.24482   0.00000  Uiso   1.00
O7     O     0.16666   0.20489   0.18392   0.00000  Uiso   1.00
O8     O     0.16667   0.12844   0.31607   0.00000  Uiso   1.00
O9     O     0.16667   0.20489   0.31607   0.00000  Uiso   1.00
O10    O     0.16666   0.12844   0.18392   0.00000  Uiso   1.00
C11    C     0.16532   0.16651   0.16330   0.00000  Uiso   1.00
C12    C     0.16793   0.16686   0.33676   0.00000  Uiso   1.00
Zn13   Zn    0.16667   0.21771   0.25000   0.00000  Uiso   1.00
Zn14   Zn    0.16667   0.11563   0.25000   0.00000  Uiso   1.00
C15    C     0.20712   0.17477   0.40906   0.00000  Uiso   1.00
C16    C     0.12684   0.17441   0.09098   0.00000  Uiso   1.00
C17    C     0.16940   0.16861   0.38526   0.00000  Uiso   1.00
C18    C     0.16425   0.16719   0.11490   0.00000  Uiso   1.00
C19    C     0.13175   0.17029   0.40690   0.00000  Uiso   1.00
C20    C     0.20201   0.16690   0.09353   0.00000  Uiso   1.00
C21    C     0.13083   0.18507   0.45181   0.00000  Uiso   1.00
C22    C     0.20363   0.18217   0.04899   0.00000  Uiso   1.00
C23    C     0.16788   0.18650   0.47693   0.00000  Uiso   1.00
C24    C     0.16664   0.18619   0.02393   0.00000  Uiso   1.00
C25    C     0.20605   0.18518   0.45551   0.00000  Uiso   1.00
C26    C     0.12835   0.18619   0.04521   0.00000  Uiso   1.00
C27    C     0.09417   0.19840   0.47261   0.00000  Uiso   1.00
C28    C     0.24077   0.19376   0.02852   0.00000  Uiso   1.00
C29    C     0.09326   0.20032   0.01982   0.00000  Uiso   1.00
C30    C     0.24133   0.19759   0.48128   0.00000  Uiso   1.00
C31    C     0.01994   0.12646   0.26050   0.00000  Uiso   1.00
C32    C     0.31239   0.20879   0.24235   0.00000  Uiso   1.00
C33    C     0.31395   0.12604   0.24049   0.00000  Uiso   1.00
C34    C     0.02040   0.20912   0.25665   0.00000  Uiso   1.00
C35    C     0.29145   0.16701   0.23917   0.00000  Uiso   1.00
C36    C     0.04190   0.16754   0.26082   0.00000  Uiso   1.00
C37    C     0.18705   0.02414   0.28333   0.00000  Uiso   1.00
C38    C     0.14826   0.30947   0.21531   0.00000  Uiso   1.00
C39    C     0.14654   0.02402   0.21647   0.00000  Uiso   1.00
C40    C     0.18527   0.30968   0.28447   0.00000  Uiso   1.00
N41    N     0.16667   0.28573   0.25000   0.00000  Uiso   1.00
N42    N     0.16667   0.04760   0.25000   0.00000  Uiso   1.00
C43    C     0.24657   0.16156   0.38779   0.00000  Uiso   1.00
O44    O     0.25393   0.17295   0.34935   0.00000  Uiso   1.00
O45    O     0.27474   0.13434   0.41163   0.00000  Uiso   1.00
H46    H     0.29997   0.12663   0.39358   0.00000  Uiso   1.00
C47    C     0.08767   0.15845   0.11017   0.00000  Uiso   1.00
O48    O     0.07869   0.16773   0.14891   0.00000  Uiso   1.00
O49    O     0.06228   0.12996   0.08424   0.00000  Uiso   1.00
H50    H     0.03772   0.11895   0.10138   0.00000  Uiso   1.00
O51    O     0.09684   0.15413   0.38424   0.00000  Uiso   1.00
C52    C     0.08297   0.11388   0.40477   0.00000  Uiso   1.00
H53    H     0.05308   0.10487   0.38832   0.00000  Uiso   1.00
H54    H     0.07625   0.11867   0.44102   0.00000  Uiso   1.00
C55    C     0.11330   0.07416   0.39962   0.00000  Uiso   1.00
H56    H     0.12232   0.07074   0.36400   0.00000  Uiso   1.00
H57    H     0.14153   0.08042   0.42055   0.00000  Uiso   1.00
C58    C     0.09440   0.02991   0.41459   0.00000  Uiso   1.00
H59    H     0.08551   0.03226   0.45046   0.00000  Uiso   1.00
H60    H     0.11724   0.00215   0.41105   0.00000  Uiso   1.00
H61    H     0.06680   0.02181   0.39331   0.00000  Uiso   1.00
O62    O     0.23636   0.14962   0.11652   0.00000  Uiso   1.00
C63    C     0.24972   0.10869   0.09596   0.00000  Uiso   1.00
H64    H     0.28026   0.09999   0.11122   0.00000  Uiso   1.00
H65    H     0.25493   0.11214   0.05927   0.00000  Uiso   1.00
C66    C     0.21985   0.06961   0.10337   0.00000  Uiso   1.00
H67    H     0.21080   0.06885   0.13910   0.00000  Uiso   1.00
H68    H     0.19163   0.07463   0.08204   0.00000  Uiso   1.00
C69    C     0.23922   0.02421   0.09125   0.00000  Uiso   1.00
H70    H     0.24880   0.02400   0.05562   0.00000  Uiso   1.00
H71    H     0.21646   0.33029   0.09575   0.00000  Uiso   1.00
H72    H     0.26647   0.01731   0.11353   0.00000  Uiso   1.00
C73    C     0.05827   0.21317   0.44509   0.00000  Uiso   1.00
O74    O     0.06140   0.24519   0.41969   0.00000  Uiso   1.00
O75    O     0.02205   0.18842   0.44555   0.00000  Uiso   1.00
H76    H     0.00307   0.19682   0.41932   0.00000  Uiso   1.00
C77    C     0.27814   0.20275   0.05618   0.00000  Uiso   1.00
O78    O     0.27667   0.22909   0.08805   0.00000  Uiso   1.00
O79    O     0.31436   0.17944   0.04725   0.00000  Uiso   1.00
H80    H     0.00176   0.18349   0.07285   0.00000  Uiso   1.00
O81    O     0.05981   0.21955   0.04069   0.00000  Uiso   1.00
C82    C     0.06839   0.26558   0.04912   0.00000  Uiso   1.00
H83    H     0.07270   0.28378   0.01683   0.00000  Uiso   1.00
H84    H     0.09675   0.26928   0.07061   0.00000  Uiso   1.00
C85    C     0.03235   0.28739   0.07353   0.00000  Uiso   1.00
H86    H     0.00481   0.28733   0.05093   0.00000  Uiso   1.00
H87    H     0.02516   0.26768   0.10401   0.00000  Uiso   1.00
C88    C     0.04172   0.00264   0.08731   0.00000  Uiso   1.00
H89    H     0.06864   0.00359   0.11100   0.00000  Uiso   1.00
H90    H     0.01478   0.01759   0.10440   0.00000  Uiso   1.00
H91    H     0.04830   0.02314   0.05715   0.00000  Uiso   1.00
O92    O     0.27466   0.21572   0.45979   0.00000  Uiso   1.00
C93    C     0.27786   0.26291   0.46780   0.00000  Uiso   1.00
H94    H     0.30315   0.27521   0.44665   0.00000  Uiso   1.00
H95    H     0.28724   0.27021   0.00309   0.00000  Uiso   1.00
C96    C     0.23834   0.28976   0.45612   0.00000  Uiso   1.00
H97    H     0.22334   0.27510   0.42574   0.00000  Uiso   1.00
H98    H     0.21658   0.28728   0.48435   0.00000  Uiso   1.00
C99    C     0.24733   0.00607   0.44777   0.00000  Uiso   1.00
H100   H     0.26499   0.02084   0.47671   0.00000  Uiso   1.00
H101   H     0.21791   0.02498   0.44346   0.00000  Uiso   1.00
H102   H     0.26537   0.00970   0.41667   0.00000  Uiso   1.00
C103   C     0.03351   0.08638   0.28792   0.00000  Uiso   1.00
O104   O     0.06772   0.08448   0.30553   0.00000  Uiso   1.00
O105   O     0.00558   0.05206   0.29681   0.00000  Uiso   1.00
H106   H     0.01770   0.02777   0.31712   0.00000  Uiso   1.00
C107   C     0.29211   0.25142   0.22690   0.00000  Uiso   1.00
O108   O     0.27531   0.25271   0.18959   0.00000  Uiso   1.00
O109   O     0.29131   0.28942   0.25502   0.00000  Uiso   1.00
H110   H     0.27512   0.31540   0.24120   0.00000  Uiso   1.00
C111   C     0.30089   0.08497   0.21399   0.00000  Uiso   1.00
O112   O     0.26714   0.08308   0.19534   0.00000  Uiso   1.00
O113   O     0.32882   0.04966   0.20699   0.00000  Uiso   1.00
H114   H     0.31717   0.02490   0.18678   0.00000  Uiso   1.00
C115   C     0.03998   0.25233   0.27135   0.00000  Uiso   1.00
O116   O     0.05719   0.25469   0.30842   0.00000  Uiso   1.00
O117   O     0.03944   0.28974   0.24296   0.00000  Uiso   1.00
H118   H     0.05504   0.31629   0.25642   0.00000  Uiso   1.00
C119   C     0.21230   0.04811   0.31763   0.00000  Uiso   1.00
O120   O     0.20037   0.05164   0.35624   0.00000  Uiso   1.00
O121   O     0.25124   0.06341   0.30669   0.00000  Uiso   1.00
H122   H     0.26623   0.07792   0.33331   0.00000  Uiso   1.00
C123   C     0.13025   0.28591   0.17595   0.00000  Uiso   1.00
O124   O     0.14738   0.28768   0.13975   0.00000  Uiso   1.00
O125   O     0.09304   0.26343   0.17945   0.00000  Uiso   1.00
H126   H     0.08282   0.25109   0.14944   0.00000  Uiso   1.00
C127   C     0.12081   0.04799   0.18269   0.00000  Uiso   1.00
O128   O     0.13274   0.05223   0.14423   0.00000  Uiso   1.00
O129   O     0.08143   0.06242   0.19391   0.00000  Uiso   1.00
H130   H     0.06607   0.07696   0.16765   0.00000  Uiso   1.00
C131   C     0.20204   0.28656   0.32437   0.00000  Uiso   1.00
O132   O     0.18111   0.28447   0.35795   0.00000  Uiso   1.00
O133   O     0.24230   0.26999   0.32488   0.00000  Uiso   1.00
H134   H     0.25158   0.25860   0.35557   0.00000  Uiso   1.00
O135   O     0.43892   0.20487   0.24999   0.00000  Uiso   1.00
O136   O     0.56108   0.12846   0.25000   0.00000  Uiso   1.00
O137   O     0.56108   0.20487   0.25000   0.00000  Uiso   1.00
O138   O     0.43892   0.12846   0.24999   0.00000  Uiso   1.00
C139   C     0.42008   0.16686   0.25514   0.00000  Uiso   1.00
C140   C     0.57992   0.16658   0.24482   0.00000  Uiso   1.00
O141   O     0.49999   0.20489   0.18392   0.00000  Uiso   1.00
O142   O     0.50001   0.12844   0.31607   0.00000  Uiso   1.00
O143   O     0.50001   0.20489   0.31607   0.00000  Uiso   1.00
O144   O     0.49999   0.12844   0.18392   0.00000  Uiso   1.00
C145   C     0.49865   0.16651   0.16330   0.00000  Uiso   1.00
C146   C     0.50126   0.16686   0.33676   0.00000  Uiso   1.00
Zn147  Zn    0.50000   0.21771   0.25000   0.00000  Uiso   1.00
Zn148  Zn    0.50000   0.11563   0.25000   0.00000  Uiso   1.00
C149   C     0.54045   0.17477   0.40906   0.00000  Uiso   1.00
C150   C     0.46018   0.17441   0.09098   0.00000  Uiso   1.00
C151   C     0.50273   0.16861   0.38526   0.00000  Uiso   1.00
C152   C     0.49758   0.16719   0.11490   0.00000  Uiso   1.00
C153   C     0.46508   0.17029   0.40690   0.00000  Uiso   1.00
C154   C     0.53535   0.16690   0.09353   0.00000  Uiso   1.00
C155   C     0.46416   0.18507   0.45181   0.00000  Uiso   1.00
C156   C     0.53697   0.18217   0.04899   0.00000  Uiso   1.00
C157   C     0.50121   0.18650   0.47693   0.00000  Uiso   1.00
C158   C     0.49998   0.18619   0.02393   0.00000  Uiso   1.00
C159   C     0.53939   0.18518   0.45551   0.00000  Uiso   1.00
C160   C     0.46168   0.18619   0.04521   0.00000  Uiso   1.00
C161   C     0.42751   0.19840   0.47261   0.00000  Uiso   1.00
C162   C     0.57411   0.19376   0.02852   0.00000  Uiso   1.00
C163   C     0.42660   0.20032   0.01982   0.00000  Uiso   1.00
C164   C     0.57466   0.19759   0.48128   0.00000  Uiso   1.00
C165   C     0.35327   0.12646   0.26050   0.00000  Uiso   1.00
C166   C     0.64572   0.20879   0.24235   0.00000  Uiso   1.00
C167   C     0.64728   0.12604   0.24049   0.00000  Uiso   1.00
C168   C     0.35374   0.20912   0.25665   0.00000  Uiso   1.00
C169   C     0.62478   0.16701   0.23917   0.00000  Uiso   1.00
C170   C     0.37523   0.16754   0.26082   0.00000  Uiso   1.00
C171   C     0.52038   0.02414   0.28333   0.00000  Uiso   1.00
C172   C     0.48159   0.30947   0.21531   0.00000  Uiso   1.00
C173   C     0.47987   0.02402   0.21647   0.00000  Uiso   1.00
C174   C     0.51860   0.30968   0.28447   0.00000  Uiso   1.00
N175   N     0.50000   0.28573   0.25000   0.00000  Uiso   1.00
N176   N     0.50000   0.04760   0.25000   0.00000  Uiso   1.00
C177   C     0.57990   0.16156   0.38779   0.00000  Uiso   1.00
O178   O     0.58727   0.17295   0.34935   0.00000  Uiso   1.00
O179   O     0.60807   0.13434   0.41163   0.00000  Uiso   1.00
H180   H     0.63330   0.12663   0.39358   0.00000  Uiso   1.00
C181   C     0.42100   0.15845   0.11017   0.00000  Uiso   1.00
O182   O     0.41202   0.16773   0.14891   0.00000  Uiso   1.00
O183   O     0.39562   0.12996   0.08424   0.00000  Uiso   1.00
H184   H     0.37105   0.11895   0.10138   0.00000  Uiso   1.00
O185   O     0.43018   0.15413   0.38424   0.00000  Uiso   1.00
C186   C     0.41631   0.11388   0.40477   0.00000  Uiso   1.00
H187   H     0.38642   0.10487   0.38832   0.00000  Uiso   1.00
H188   H     0.40959   0.11867   0.44102   0.00000  Uiso   1.00
C189   C     0.44663   0.07416   0.39962   0.00000  Uiso   1.00
H190   H     0.45566   0.07074   0.36400   0.00000  Uiso   1.00
H191   H     0.47487   0.08042   0.42055   0.00000  Uiso   1.00
C192   C     0.42773   0.02991   0.41459   0.00000  Uiso   1.00
H193   H     0.41884   0.03226   0.45046   0.00000  Uiso   1.00
H194   H     0.45057   0.00215   0.41105   0.00000  Uiso   1.00
H195   H     0.40013   0.02181   0.39331   0.00000  Uiso   1.00
O196   O     0.56969   0.14962   0.11652   0.00000  Uiso   1.00
C197   C     0.58305   0.10869   0.09596   0.00000  Uiso   1.00
H198   H     0.61359   0.09999   0.11122   0.00000  Uiso   1.00
H199   H     0.58826   0.11214   0.05927   0.00000  Uiso   1.00
C200   C     0.55318   0.06961   0.10337   0.00000  Uiso   1.00
H201   H     0.54413   0.06885   0.13910   0.00000  Uiso   1.00
H202   H     0.52496   0.07463   0.08204   0.00000  Uiso   1.00
C203   C     0.57255   0.02421   0.09125   0.00000  Uiso   1.00
H204   H     0.58213   0.02400   0.05562   0.00000  Uiso   1.00
H205   H     0.54980   0.33029   0.09575   0.00000  Uiso   1.00
H206   H     0.59980   0.01731   0.11353   0.00000  Uiso   1.00
C207   C     0.39160   0.21317   0.44509   0.00000  Uiso   1.00
O208   O     0.39473   0.24519   0.41969   0.00000  Uiso   1.00
O209   O     0.35539   0.18842   0.44555   0.00000  Uiso   1.00
H210   H     0.33640   0.19682   0.41932   0.00000  Uiso   1.00
C211   C     0.61147   0.20275   0.05618   0.00000  Uiso   1.00
O212   O     0.61001   0.22909   0.08805   0.00000  Uiso   1.00
O213   O     0.64769   0.17944   0.04725   0.00000  Uiso   1.00
H214   H     0.33510   0.18349   0.07285   0.00000  Uiso   1.00
O215   O     0.39315   0.21955   0.04069   0.00000  Uiso   1.00
C216   C     0.40173   0.26558   0.04912   0.00000  Uiso   1.00
H217   H     0.40603   0.28378   0.01683   0.00000  Uiso   1.00
H218   H     0.43008   0.26928   0.07061   0.00000  Uiso   1.00
C219   C     0.36569   0.28739   0.07353   0.00000  Uiso   1.00
H220   H     0.33814   0.28733   0.05093   0.00000  Uiso   1.00
H221   H     0.35849   0.26768   0.10401   0.00000  Uiso   1.00
C222   C     0.37506   0.00264   0.08731   0.00000  Uiso   1.00
H223   H     0.40197   0.00359   0.11100   0.00000  Uiso   1.00
H224   H     0.34812   0.01759   0.10440   0.00000  Uiso   1.00
H225   H     0.38164   0.02314   0.05715   0.00000  Uiso   1.00
O226   O     0.60799   0.21572   0.45979   0.00000  Uiso   1.00
C227   C     0.61119   0.26291   0.46780   0.00000  Uiso   1.00
H228   H     0.63649   0.27521   0.44665   0.00000  Uiso   1.00
H229   H     0.62058   0.27021   0.00309   0.00000  Uiso   1.00
C230   C     0.57167   0.28976   0.45612   0.00000  Uiso   1.00
H231   H     0.55667   0.27510   0.42574   0.00000  Uiso   1.00
H232   H     0.54991   0.28728   0.48435   0.00000  Uiso   1.00
C233   C     0.58066   0.00607   0.44777   0.00000  Uiso   1.00
H234   H     0.59832   0.02084   0.47671   0.00000  Uiso   1.00
H235   H     0.55124   0.02498   0.44346   0.00000  Uiso   1.00
H236   H     0.59870   0.00970   0.41667   0.00000  Uiso   1.00
C237   C     0.36684   0.08638   0.28792   0.00000  Uiso   1.00
O238   O     0.40105   0.08448   0.30553   0.00000  Uiso   1.00
O239   O     0.33891   0.05206   0.29681   0.00000  Uiso   1.00
H240   H     0.35104   0.02777   0.31712   0.00000  Uiso   1.00
C241   C     0.62545   0.25142   0.22690   0.00000  Uiso   1.00
O242   O     0.60864   0.25271   0.18959   0.00000  Uiso   1.00
O243   O     0.62465   0.28942   0.25502   0.00000  Uiso   1.00
H244   H     0.60846   0.31540   0.24120   0.00000  Uiso   1.00
C245   C     0.63422   0.08497   0.21399   0.00000  Uiso   1.00
O246   O     0.60047   0.08308   0.19534   0.00000  Uiso   1.00
O247   O     0.66216   0.04966   0.20699   0.00000  Uiso   1.00
H248   H     0.65051   0.02490   0.18678   0.00000  Uiso   1.00
C249   C     0.37332   0.25233   0.27135   0.00000  Uiso   1.00
O250   O     0.39053   0.25469   0.30842   0.00000  Uiso   1.00
O251   O     0.37277   0.28974   0.24296   0.00000  Uiso   1.00
H252   H     0.38837   0.31629   0.25642   0.00000  Uiso   1.00
C253   C     0.54563   0.04811   0.31763   0.00000  Uiso   1.00
O254   O     0.53371   0.05164   0.35624   0.00000  Uiso   1.00
O255   O     0.58457   0.06341   0.30669   0.00000  Uiso   1.00
H256   H     0.59956   0.07792   0.33331   0.00000  Uiso   1.00
C257   C     0.46358   0.28591   0.17595   0.00000  Uiso   1.00
O258   O     0.48071   0.28768   0.13975   0.00000  Uiso   1.00
O259   O     0.42638   0.26343   0.17945   0.00000  Uiso   1.00
H260   H     0.41615   0.25109   0.14944   0.00000  Uiso   1.00
C261   C     0.45415   0.04799   0.18269   0.00000  Uiso   1.00
O262   O     0.46608   0.05223   0.14423   0.00000  Uiso   1.00
O263   O     0.41477   0.06242   0.19391   0.00000  Uiso   1.00
H264   H     0.39941   0.07696   0.16765   0.00000  Uiso   1.00
C265   C     0.53537   0.28656   0.32437   0.00000  Uiso   1.00
O266   O     0.51445   0.28447   0.35795   0.00000  Uiso   1.00
O267   O     0.57564   0.26999   0.32488   0.00000  Uiso   1.00
H268   H     0.58491   0.25860   0.35557   0.00000  Uiso   1.00
O269   O     0.77226   0.20487   0.24999   0.00000  Uiso   1.00
O270   O     0.89441   0.12846   0.25000   0.00000  Uiso   1.00
O271   O     0.89441   0.20487   0.25000   0.00000  Uiso   1.00
O272   O     0.77226   0.12846   0.24999   0.00000  Uiso   1.00
C273   C     0.75341   0.16686   0.25514   0.00000  Uiso   1.00
C274   C     0.91325   0.16658   0.24482   0.00000  Uiso   1.00
O275   O     0.83333   0.20489   0.18392   0.00000  Uiso   1.00
O276   O     0.83334   0.12844   0.31607   0.00000  Uiso   1.00
O277   O     0.83334   0.20489   0.31607   0.00000  Uiso   1.00
O278   O     0.83333   0.12844   0.18392   0.00000  Uiso   1.00
C279   C     0.83198   0.16651   0.16330   0.00000  Uiso   1.00
C280   C     0.83460   0.16686   0.33676   0.00000  Uiso   1.00
Zn281  Zn    0.83333   0.21771   0.25000   0.00000  Uiso   1.00
Zn282  Zn    0.83333   0.11563   0.25000   0.00000  Uiso   1.00
C283   C     0.87378   0.17477   0.40906   0.00000  Uiso   1.00
C284   C     0.79351   0.17441   0.09098   0.00000  Uiso   1.00
C285   C     0.83607   0.16861   0.38526   0.00000  Uiso   1.00
C286   C     0.83091   0.16719   0.11490   0.00000  Uiso   1.00
C287   C     0.79841   0.17029   0.40690   0.00000  Uiso   1.00
C288   C     0.86868   0.16690   0.09353   0.00000  Uiso   1.00
C289   C     0.79749   0.18507   0.45181   0.00000  Uiso   1.00
C290   C     0.87030   0.18217   0.04899   0.00000  Uiso   1.00
C291   C     0.83455   0.18650   0.47693   0.00000  Uiso   1.00
C292   C     0.83331   0.18619   0.02393   0.00000  Uiso   1.00
C293   C     0.87272   0.18518   0.45551   0.00000  Uiso   1.00
C294   C     0.79502   0.18619   0.04521   0.00000  Uiso   1.00
C295   C     0.76084   0.19840   0.47261   0.00000  Uiso   1.00
C296   C     0.90744   0.19376   0.02852   0.00000  Uiso   1.00
C297   C     0.75993   0.20032   0.01982   0.00000  Uiso   1.00
C298   C     0.90800   0.19759   0.48128   0.00000  Uiso   1.00
C299   C     0.68660   0.12646   0.26050   0.00000  Uiso   1.00
C300   C     0.97905   0.20879   0.24235   0.00000  Uiso   1.00
C301   C     0.98062   0.12604   0.24049   0.00000  Uiso   1.00
C302   C     0.68707   0.20912   0.25665   0.00000  Uiso   1.00
C303   C     0.95811   0.16701   0.23917   0.00000  Uiso   1.00
C304   C     0.70856   0.16754   0.26082   0.00000  Uiso   1.00
C305   C     0.85372   0.02414   0.28333   0.00000  Uiso   1.00
C306   C     0.81493   0.30947   0.21531   0.00000  Uiso   1.00
C307   C     0.81320   0.02402   0.21647   0.00000  Uiso   1.00
C308   C     0.85194   0.30968   0.28447   0.00000  Uiso   1.00
N309   N     0.83333   0.28573   0.25000   0.00000  Uiso   1.00
N310   N     0.83333   0.04760   0.25000   0.00000  Uiso   1.00
C311   C     0.91324   0.16156   0.38779   0.00000  Uiso   1.00
O312   O     0.92060   0.17295   0.34935   0.00000  Uiso   1.00
O313   O     0.94141   0.13434   0.41163   0.00000  Uiso   1.00
H314   H     0.96664   0.12663   0.39358   0.00000  Uiso   1.00
C315   C     0.75434   0.15845   0.11017   0.00000  Uiso   1.00
O316   O     0.74535   0.16773   0.14891   0.00000  Uiso   1.00
O317   O     0.72895   0.12996   0.08424   0.00000  Uiso   1.00
H318   H     0.70438   0.11895   0.10138   0.00000  Uiso   1.00
O319   O     0.76351   0.15413   0.38424   0.00000  Uiso   1.00
C320   C     0.74964   0.11388   0.40477   0.00000  Uiso   1.00
H321   H     0.71975   0.10487   0.38832   0.00000  Uiso   1.00
H322   H     0.74292   0.11867   0.44102   0.00000  Uiso   1.00
C323   C     0.77996   0.07416   0.39962   0.00000  Uiso   1.00
H324   H     0.78899   0.07074   0.36400   0.00000  Uiso   1.00
H325   H     0.80820   0.08042   0.42055   0.00000  Uiso   1.00
C326   C     0.76107   0.02991   0.41459   0.00000  Uiso   1.00
H327   H     0.75217   0.03226   0.45046   0.00000  Uiso   1.00
H328   H     0.78390   0.00215   0.41105   0.00000  Uiso   1.00
H329   H     0.73346   0.02181   0.39331   0.00000  Uiso   1.00
O330   O     0.90303   0.14962   0.11652   0.00000  Uiso   1.00
C331   C     0.91639   0.10869   0.09596   0.00000  Uiso   1.00
H332   H     0.94692   0.09999   0.11122   0.00000  Uiso   1.00
H333   H     0.92160   0.11214   0.05927   0.00000  Uiso   1.00
C334   C     0.88652   0.06961   0.10337   0.00000  Uiso   1.00
H335   H     0.87746   0.06885   0.13910   0.00000  Uiso   1.00
H336   H     0.85829   0.07463   0.08204   0.00000  Uiso   1.00
C337   C     0.90589   0.02421   0.09125   0.00000  Uiso   1.00
H338   H     0.91546   0.02400   0.05562   0.00000  Uiso   1.00
H339   H     0.88313   0.33029   0.09575   0.00000  Uiso   1.00
H340   H     0.93313   0.01731   0.11353   0.00000  Uiso   1.00
C341   C     0.72494   0.21317   0.44509   0.00000  Uiso   1.00
O342   O     0.72806   0.24519   0.41969   0.00000  Uiso   1.00
O343   O     0.68872   0.18842   0.44555   0.00000  Uiso   1.00
H344   H     0.66974   0.19682   0.41932   0.00000  Uiso   1.00
C345   C     0.94481   0.20275   0.05618   0.00000  Uiso   1.00
O346   O     0.94334   0.22909   0.08805   0.00000  Uiso   1.00
O347   O     0.98102   0.17944   0.04725   0.00000  Uiso   1.00
H348   H     0.66843   0.18349   0.07285   0.00000  Uiso   1.00
O349   O     0.72648   0.21955   0.04069   0.00000  Uiso   1.00
C350   C     0.73506   0.26558   0.04912   0.00000  Uiso   1.00
H351   H     0.73937   0.28378   0.01683   0.00000  Uiso   1.00
H352   H     0.76341   0.26928   0.07061   0.00000  Uiso   1.00
C353   C     0.69902   0.28739   0.07353   0.00000  Uiso   1.00
H354   H     0.67148   0.28733   0.05093   0.00000  Uiso   1.00
H355   H     0.69182   0.26768   0.10401   0.00000  Uiso   1.00
C356   C     0.70839   0.00264   0.08731   0.00000  Uiso   1.00
H357   H     0.73531   0.00359   0.11100   0.00000  Uiso   1.00
H358   H     0.68145   0.01759   0.10440   0.00000  Uiso   1.00
H359   H     0.71497   0.02314   0.05715   0.00000  Uiso   1.00
O360   O     0.94132   0.21572   0.45979   0.00000  Uiso   1.00
C361   C     0.94453   0.26291   0.46780   0.00000  Uiso   1.00
H362   H     0.96982   0.27521   0.44665   0.00000  Uiso   1.00
H363   H     0.95391   0.27021   0.00309   0.00000  Uiso   1.00
C364   C     0.90501   0.28976   0.45612   0.00000  Uiso   1.00
H365   H     0.89000   0.27510   0.42574   0.00000  Uiso   1.00
H366   H     0.88324   0.28728   0.48435   0.00000  Uiso   1.00
C367   C     0.91400   0.00607   0.44777   0.00000  Uiso   1.00
H368   H     0.93165   0.02084   0.47671   0.00000  Uiso   1.00
H369   H     0.88457   0.02498   0.44346   0.00000  Uiso   1.00
H370   H     0.93204   0.00970   0.41667   0.00000  Uiso   1.00
C371   C     0.70017   0.08638   0.28792   0.00000  Uiso   1.00
O372   O     0.73438   0.08448   0.30553   0.00000  Uiso   1.00
O373   O     0.67224   0.05206   0.29681   0.00000  Uiso   1.00
H374   H     0.68437   0.02777   0.31712   0.00000  Uiso   1.00
C375   C     0.95878   0.25142   0.22690   0.00000  Uiso   1.00
O376   O     0.94197   0.25271   0.18959   0.00000  Uiso   1.00
O377   O     0.95798   0.28942   0.25502   0.00000  Uiso   1.00
H378   H     0.94179   0.31540   0.24120   0.00000  Uiso   1.00
C379   C     0.96755   0.08497   0.21399   0.00000  Uiso   1.00
O380   O     0.93380   0.08308   0.19534   0.00000  Uiso   1.00
O381   O     0.99549   0.04966   0.20699   0.00000  Uiso   1.00
H382   H     0.98384   0.02490   0.18678   0.00000  Uiso   1.00
C383   C     0.70665   0.25233   0.27135   0.00000  Uiso   1.00
O384   O     0.72386   0.25469   0.30842   0.00000  Uiso   1.00
O385   O     0.70611   0.28974   0.24296   0.00000  Uiso   1.00
H386   H     0.72170   0.31629   0.25642   0.00000  Uiso   1.00
C387   C     0.87897   0.04811   0.31763   0.00000  Uiso   1.00
O388   O     0.86704   0.05164   0.35624   0.00000  Uiso   1.00
O389   O     0.91790   0.06341   0.30669   0.00000  Uiso   1.00
H390   H     0.93289   0.07792   0.33331   0.00000  Uiso   1.00
C391   C     0.79692   0.28591   0.17595   0.00000  Uiso   1.00
O392   O     0.81404   0.28768   0.13975   0.00000  Uiso   1.00
O393   O     0.75971   0.26343   0.17945   0.00000  Uiso   1.00
H394   H     0.74948   0.25109   0.14944   0.00000  Uiso   1.00
C395   C     0.78748   0.04799   0.18269   0.00000  Uiso   1.00
O396   O     0.79941   0.05223   0.14423   0.00000  Uiso   1.00
O397   O     0.74810   0.06242   0.19391   0.00000  Uiso   1.00
H398   H     0.73274   0.07696   0.16765   0.00000  Uiso   1.00
C399   C     0.86871   0.28656   0.32437   0.00000  Uiso   1.00
O400   O     0.84778   0.28447   0.35795   0.00000  Uiso   1.00
O401   O     0.90897   0.26999   0.32488   0.00000  Uiso   1.00
H402   H     0.91825   0.25860   0.35557   0.00000  Uiso   1.00
O403   O     0.10559   0.53821   0.24999   0.00000  Uiso   1.00
O404   O     0.22774   0.46179   0.25000   0.00000  Uiso   1.00
O405   O     0.22774   0.53821   0.25000   0.00000  Uiso   1.00
O406   O     0.10559   0.46179   0.24999   0.00000  Uiso   1.00
C407   C     0.08675   0.50019   0.25514   0.00000  Uiso   1.00
C408   C     0.24659   0.49991   0.24482   0.00000  Uiso   1.00
O409   O     0.16666   0.53823   0.18392   0.00000  Uiso   1.00
O410   O     0.16667   0.46177   0.31607   0.00000  Uiso   1.00
O411   O     0.16667   0.53823   0.31607   0.00000  Uiso   1.00
O412   O     0.16666   0.46177   0.18392   0.00000  Uiso   1.00
C413   C     0.16532   0.49984   0.16330   0.00000  Uiso   1.00
C414   C     0.16793   0.50020   0.33676   0.00000  Uiso   1.00
Zn415  Zn    0.16667   0.55104   0.25000   0.00000  Uiso   1.00
Zn416  Zn    0.16667   0.44896   0.25000   0.00000  Uiso   1.00
C417   C     0.20712   0.50810   0.40906   0.00000  Uiso   1.00
C418   C     0.12684   0.50774   0.09098   0.00000  Uiso   1.00
C419   C     0.16940   0.50195   0.38526   0.00000  Uiso   1.00
C420   C     0.16425   0.50052   0.11490   0.00000  Uiso   1.00
C421   C     0.13175   0.50362   0.40690   0.00000  Uiso   1.00
C422   C     0.20201   0.50024   0.09353   0.00000  Uiso   1.00
C423   C     0.13083   0.51840   0.45181   0.00000  Uiso   1.00
C424   C     0.20363   0.51550   0.04899   0.00000  Uiso   1.00
C425   C     0.16788   0.51984   0.47693   0.00000  Uiso   1.00
C426   C     0.16664   0.51953   0.02393   0.00000  Uiso   1.00
C427   C     0.20605   0.51851   0.45551   0.00000  Uiso   1.00
C428   C     0.12835   0.51952   0.04521   0.00000  Uiso   1.00
C429   C     0.09417   0.53173   0.47261   0.00000  Uiso   1.00
C430   C     0.24077   0.52710   0.02852   0.00000  Uiso   1.00
C431   C     0.09326   0.53365   0.01982   0.00000  Uiso   1.00
C432   C     0.24133   0.53092   0.48128   0.00000  Uiso   1.00
C433   C     0.01994   0.45980   0.26050   0.00000  Uiso   1.00
C434   C     0.31239   0.54212   0.24235   0.00000  Uiso   1.00
C435   C     0.31395   0.45937   0.24049   0.00000  Uiso   1.00
C436   C     0.02040   0.54246   0.25665   0.00000  Uiso   1.00
C437   C     0.29145   0.50034   0.23917   0.00000  Uiso   1.00
C438   C     0.04190   0.50088   0.26082   0.00000  Uiso   1.00
C439   C     0.18705   0.35747   0.28333   0.00000  Uiso   1.00
C440   C     0.14826   0.64280   0.21531   0.00000  Uiso   1.00
C441   C     0.14654   0.35735   0.21647   0.00000  Uiso   1.00
C442   C     0.18527   0.64301   0.28447   0.00000  Uiso   1.00
N443   N     0.16667   0.61907   0.25000   0.00000  Uiso   1.00
N444   N     0.16667   0.38093   0.25000   0.00000  Uiso   1.00
C445   C     0.24657   0.49490   0.38779   0.00000  Uiso   1.00
O446   O     0.25393   0.50628   0.34935   0.00000  Uiso   1.00
O447   O     0.27474   0.46768   0.41163   0.00000  Uiso   1.00
H448   H     0.29997   0.45996   0.39358   0.00000  Uiso   1.00
C449   C     0.08767   0.49178   0.11017   0.00000  Uiso   1.00
O450   O     0.07869   0.50107   0.14891   0.00000  Uiso   1.00
O451   O     0.06228   0.46330   0.08424   0.00000  Uiso   1.00
H452   H     0.03772   0.45228   0.10138   0.00000  Uiso   1.00
O453   O     0.09684   0.48747   0.38424   0.00000  Uiso   1.00
C454   C     0.08297   0.44721   0.40477   0.00000  Uiso   1.00
H455   H     0.05308   0.43820   0.38832   0.00000  Uiso   1.00
H456   H     0.07625   0.45201   0.44102   0.00000  Uiso   1.00
C457   C     0.11330   0.40749   0.39962   0.00000  Uiso   1.00
H458   H     0.12232   0.40407   0.36400   0.00000  Uiso   1.00
H459   H     0.14153   0.41376   0.42055   0.00000  Uiso   1.00
C460   C     0.09440   0.36324   0.41459   0.00000  Uiso   1.00
H461   H     0.08551   0.36559   0.45046   0.00000  Uiso   1.00
H462   H     0.11724   0.33548   0.41105   0.00000  Uiso   1.00
H463   H     0.06680   0.35515   0.39331   0.00000  Uiso   1.00
O464   O     0.23636   0.48296   0.11652   0.00000  Uiso   1.00
C465   C     0.24972   0.44203   0.09596   0.00000  Uiso   1.00
H466   H     0.28026   0.43332   0.11122   0.00000  Uiso   1.00
H467   H     0.25493   0.44547   0.05927   0.00000  Uiso   1.00
C468   C     0.21985   0.40294   0.10337   0.00000  Uiso   1.00
H469   H     0.21080   0.40218   0.13910   0.00000  Uiso   1.00
H470   H     0.19163   0.40797   0.08204   0.00000  Uiso   1.00
C471   C     0.23922   0.35754   0.09125   0.00000  Uiso   1.00
H472   H     0.24880   0.35733   0.05562   0.00000  Uiso   1.00
H473   H     0.21646   0.66362   0.09575   0.00000  Uiso   1.00
H474   H     0.26647   0.35064   0.11353   0.00000  Uiso   1.00
C475   C     0.05827   0.54651   0.44509   0.00000  Uiso   1.00
O476   O     0.06140   0.57852   0.41969   0.00000  Uiso   1.00
O477   O     0.02205   0.52175   0.44555   0.00000  Uiso   1.00
H478   H     0.00307   0.53016   0.41932   0.00000  Uiso   1.00
C479   C     0.27814   0.53609   0.05618   0.00000  Uiso   1.00
O480   O     0.27667   0.56242   0.08805   0.00000  Uiso   1.00
O481   O     0.31436   0.51277   0.04725   0.00000  Uiso   1.00
H482   H     0.00176   0.51683   0.07285   0.00000  Uiso   1.00
O483   O     0.05981   0.55288   0.04069   0.00000  Uiso   1.00
C484   C     0.06839   0.59891   0.04912   0.00000  Uiso   1.00
H485   H     0.07270   0.61712   0.01683   0.00000  Uiso   1.00
H486   H     0.09675   0.60261   0.07061   0.00000  Uiso   1.00
C487   C     0.03235   0.62072   0.07353   0.00000  Uiso   1.00
H488   H     0.00481   0.62066   0.05093   0.00000  Uiso   1.00
H489   H     0.02516   0.60101   0.10401   0.00000  Uiso   1.00
C490   C     0.04172   0.33597   0.08731   0.00000  Uiso   1.00
H491   H     0.06864   0.33693   0.11100   0.00000  Uiso   1.00
H492   H     0.01478   0.35093   0.10440   0.00000  Uiso   1.00
H493   H     0.04830   0.35647   0.05715   0.00000  Uiso   1.00
O494   O     0.27466   0.54905   0.45979   0.00000  Uiso   1.00
C495   C     0.27786   0.59625   0.46780   0.00000  Uiso   1.00
H496   H     0.30315   0.60854   0.44665   0.00000  Uiso   1.00
H497   H     0.28724   0.60355   0.00309   0.00000  Uiso   1.00
C498   C     0.23834   0.62309   0.45612   0.00000  Uiso   1.00
H499   H     0.22334   0.60844   0.42574   0.00000  Uiso   1.00
H500   H     0.21658   0.62061   0.48435   0.00000  Uiso   1.00
C501   C     0.24733   0.33941   0.44777   0.00000  Uiso   1.00
H502   H     0.26499   0.35417   0.47671   0.00000  Uiso   1.00
H503   H     0.21791   0.35831   0.44346   0.00000  Uiso   1.00
H504   H     0.26537   0.34303   0.41667   0.00000  Uiso   1.00
C505   C     0.03351   0.41972   0.28792   0.00000  Uiso   1.00
O506   O     0.06772   0.41781   0.30553   0.00000  Uiso   1.00
O507   O     0.00558   0.38539   0.29681   0.00000  Uiso   1.00
H508   H     0.01770   0.36111   0.31712   0.00000  Uiso   1.00
C509   C     0.29211   0.58476   0.22690   0.00000  Uiso   1.00
O510   O     0.27531   0.58604   0.18959   0.00000  Uiso   1.00
O511   O     0.29131   0.62275   0.25502   0.00000  Uiso   1.00
H512   H     0.27512   0.64873   0.24120   0.00000  Uiso   1.00
C513   C     0.30089   0.41831   0.21399   0.00000  Uiso   1.00
O514   O     0.26714   0.41641   0.19534   0.00000  Uiso   1.00
O515   O     0.32882   0.38299   0.20699   0.00000  Uiso   1.00
H516   H     0.31717   0.35824   0.18678   0.00000  Uiso   1.00
C517   C     0.03998   0.58566   0.27135   0.00000  Uiso   1.00
O518   O     0.05719   0.58803   0.30842   0.00000  Uiso   1.00
O519   O     0.03944   0.62307   0.24296   0.00000  Uiso   1.00
H520   H     0.05504   0.64963   0.25642   0.00000  Uiso   1.00
C521   C     0.21230   0.38145   0.31763   0.00000  Uiso   1.00
O522   O     0.20037   0.38497   0.35624   0.00000  Uiso   1.00
O523   O     0.25124   0.39675   0.30669   0.00000  Uiso   1.00
H524   H     0.26623   0.41125   0.33331   0.00000  Uiso   1.00
C525   C     0.13025   0.61924   0.17595   0.00000  Uiso   1.00
O526   O     0.14738   0.62101   0.13975   0.00000  Uiso   1.00
O527   O     0.09304   0.59676   0.17945   0.00000  Uiso   1.00
H528   H     0.08282   0.58443   0.14944   0.00000  Uiso   1.00
C529   C     0.12081   0.38133   0.18269   0.00000  Uiso   1.00
O530   O     0.13274   0.38556   0.14423   0.00000  Uiso   1.00
O531   O     0.08143   0.39575   0.19391   0.00000  Uiso   1.00
H532   H     0.06607   0.41029   0.16765   0.00000  Uiso   1.00
C533   C     0.20204   0.61989   0.32437   0.00000  Uiso   1.00
O534   O     0.18111   0.61781   0.35795   0.00000  Uiso   1.00
O535   O     0.24230   0.60333   0.32488   0.00000  Uiso   1.00
H536   H     0.25158   0.59194   0.35557   0.00000  Uiso   1.00
O537   O     0.43892   0.53821   0.24999   0.00000  Uiso   1.00
O538   O     0.56108   0.46179   0.25000   0.00000  Uiso   1.00
O539   O     0.56108   0.53821   0.25000   0.00000  Uiso   1.00
O540   O     0.43892   0.46179   0.24999   0.00000  Uiso   1.00
C541   C     0.42008   0.50019   0.25514   0.00000  Uiso   1.00
C542   C     0.57992   0.49991   0.24482   0.00000  Uiso   1.00
O543   O     0.49999   0.53823   0.18392   0.00000  Uiso   1.00
O544   O     0.50001   0.46177   0.31607   0.00000  Uiso   1.00
O545   O     0.50001   0.53823   0.31607   0.00000  Uiso   1.00
O546   O     0.49999   0.46177   0.18392   0.00000  Uiso   1.00
C547   C     0.49865   0.49984   0.16330   0.00000  Uiso   1.00
C548   C     0.50126   0.50020   0.33676   0.00000  Uiso   1.00
Zn549  Zn    0.50000   0.55104   0.25000   0.00000  Uiso   1.00
Zn550  Zn    0.50000   0.44896   0.25000   0.00000  Uiso   1.00
C551   C     0.54045   0.50810   0.40906   0.00000  Uiso   1.00
C552   C     0.46018   0.50774   0.09098   0.00000  Uiso   1.00
C553   C     0.50273   0.50195   0.38526   0.00000  Uiso   1.00
C554   C     0.49758   0.50052   0.11490   0.00000  Uiso   1.00
C555   C     0.46508   0.50362   0.40690   0.00000  Uiso   1.00
C556   C     0.53535   0.50024   0.09353   0.00000  Uiso   1.00
C557   C     0.46416   0.51840   0.45181   0.00000  Uiso   1.00
C558   C     0.53697   0.51550   0.04899   0.00000  Uiso   1.00
C559   C     0.50121   0.51984   0.47693   0.00000  Uiso   1.00
C560   C     0.49998   0.51953   0.02393   0.00000  Uiso   1.00
C561   C     0.53939   0.51851   0.45551   0.00000  Uiso   1.00
C562   C     0.46168   0.51952   0.04521   0.00000  Uiso   1.00
C563   C     0.42751   0.53173   0.47261   0.00000  Uiso   1.00
C564   C     0.57411   0.52710   0.02852   0.00000  Uiso   1.00
C565   C     0.42660   0.53365   0.01982   0.00000  Uiso   1.00
C566   C     0.57466   0.53092   0.48128   0.00000  Uiso   1.00
C567   C     0.35327   0.45980   0.26050   0.00000  Uiso   1.00
C568   C     0.64572   0.54212   0.24235   0.00000  Uiso   1.00
C569   C     0.64728   0.45937   0.24049   0.00000  Uiso   1.00
C570   C     0.35374   0.54246   0.25665   0.00000  Uiso   1.00
C571   C     0.62478   0.50034   0.23917   0.00000  Uiso   1.00
C572   C     0.37523   0.50088   0.26082   0.00000  Uiso   1.00
C573   C     0.52038   0.35747   0.28333   0.00000  Uiso   1.00
C574   C     0.48159   0.64280   0.21531   0.00000  Uiso   1.00
C575   C     0.47987   0.35735   0.21647   0.00000  Uiso   1.00
C576   C     0.51860   0.64301   0.28447   0.00000  Uiso   1.00
N577   N     0.50000   0.61907   0.25000   0.00000  Uiso   1.00
N578   N     0.50000   0.38093   0.25000   0.00000  Uiso   1.00
C579   C     0.57990   0.49490   0.38779   0.00000  Uiso   1.00
O580   O     0.58727   0.50628   0.34935   0.00000  Uiso   1.00
O581   O     0.60807   0.46768   0.41163   0.00000  Uiso   1.00
H582   H     0.63330   0.45996   0.39358   0.00000  Uiso   1.00
C583   C     0.42100   0.49178   0.11017   0.00000  Uiso   1.00
O584   O     0.41202   0.50107   0.14891   0.00000  Uiso   1.00
O585   O     0.39562   0.46330   0.08424   0.00000  Uiso   1.00
H586   H     0.37105   0.45228   0.10138   0.00000  Uiso   1.00
O587   O     0.43018   0.48747   0.38424   0.00000  Uiso   1.00
C588   C     0.41631   0.44721   0.40477   0.00000  Uiso   1.00
H589   H     0.38642   0.43820   0.38832   0.00000  Uiso   1.00
H590   H     0.40959   0.45201   0.44102   0.00000  Uiso   1.00
C591   C     0.44663   0.40749   0.39962   0.00000  Uiso   1.00
H592   H     0.45566   0.40407   0.36400   0.00000  Uiso   1.00
H593   H     0.47487   0.41376   0.42055   0.00000  Uiso   1.00
C594   C     0.42773   0.36324   0.41459   0.00000  Uiso   1.00
H595   H     0.41884   0.36559   0.45046   0.00000  Uiso   1.00
H596   H     0.45057   0.33548   0.41105   0.00000  Uiso   1.00
H597   H     0.40013   0.35515   0.39331   0.00000  Uiso   1.00
O598   O     0.56969   0.48296   0.11652   0.00000  Uiso   1.00
C599   C     0.58305   0.44203   0.09596   0.00000  Uiso   1.00
H600   H     0.61359   0.43332   0.11122   0.00000  Uiso   1.00
H601   H     0.58826   0.44547   0.05927   0.00000  Uiso   1.00
C602   C     0.55318   0.40294   0.10337   0.00000  Uiso   1.00
H603   H     0.54413   0.40218   0.13910   0.00000  Uiso   1.00
H604   H     0.52496   0.40797   0.08204   0.00000  Uiso   1.00
C605   C     0.57255   0.35754   0.09125   0.00000  Uiso   1.00
H606   H     0.58213   0.35733   0.05562   0.00000  Uiso   1.00
H607   H     0.54980   0.66362   0.09575   0.00000  Uiso   1.00
H608   H     0.59980   0.35064   0.11353   0.00000  Uiso   1.00
C609   C     0.39160   0.54651   0.44509   0.00000  Uiso   1.00
O610   O     0.39473   0.57852   0.41969   0.00000  Uiso   1.00
O611   O     0.35539   0.52175   0.44555   0.00000  Uiso   1.00
H612   H     0.33640   0.53016   0.41932   0.00000  Uiso   1.00
C613   C     0.61147   0.53609   0.05618   0.00000  Uiso   1.00
O614   O     0.61001   0.56242   0.08805   0.00000  Uiso   1.00
O615   O     0.64769   0.51277   0.04725   0.00000  Uiso   1.00
H616   H     0.33510   0.51683   0.07285   0.00000  Uiso   1.00
O617   O     0.39315   0.55288   0.04069   0.00000  Uiso   1.00
C618   C     0.40173   0.59891   0.04912   0.00000  Uiso   1.00
H619   H     0.40603   0.61712   0.01683   0.00000  Uiso   1.00
H620   H     0.43008   0.60261   0.07061   0.00000  Uiso   1.00
C621   C     0.36569   0.62072   0.07353   0.00000  Uiso   1.00
H622   H     0.33814   0.62066   0.05093   0.00000  Uiso   1.00
H623   H     0.35849   0.60101   0.10401   0.00000  Uiso   1.00
C624   C     0.37506   0.33597   0.08731   0.00000  Uiso   1.00
H625   H     0.40197   0.33693   0.11100   0.00000  Uiso   1.00
H626   H     0.34812   0.35093   0.10440   0.00000  Uiso   1.00
H627   H     0.38164   0.35647   0.05715   0.00000  Uiso   1.00
O628   O     0.60799   0.54905   0.45979   0.00000  Uiso   1.00
C629   C     0.61119   0.59625   0.46780   0.00000  Uiso   1.00
H630   H     0.63649   0.60854   0.44665   0.00000  Uiso   1.00
H631   H     0.62058   0.60355   0.00309   0.00000  Uiso   1.00
C632   C     0.57167   0.62309   0.45612   0.00000  Uiso   1.00
H633   H     0.55667   0.60844   0.42574   0.00000  Uiso   1.00
H634   H     0.54991   0.62061   0.48435   0.00000  Uiso   1.00
C635   C     0.58066   0.33941   0.44777   0.00000  Uiso   1.00
H636   H     0.59832   0.35417   0.47671   0.00000  Uiso   1.00
H637   H     0.55124   0.35831   0.44346   0.00000  Uiso   1.00
H638   H     0.59870   0.34303   0.41667   0.00000  Uiso   1.00
C639   C     0.36684   0.41972   0.28792   0.00000  Uiso   1.00
O640   O     0.40105   0.41781   0.30553   0.00000  Uiso   1.00
O641   O     0.33891   0.38539   0.29681   0.00000  Uiso   1.00
H642   H     0.35104   0.36111   0.31712   0.00000  Uiso   1.00
C643   C     0.62545   0.58476   0.22690   0.00000  Uiso   1.00
O644   O     0.60864   0.58604   0.18959   0.00000  Uiso   1.00
O645   O     0.62465   0.62275   0.25502   0.00000  Uiso   1.00
H646   H     0.60846   0.64873   0.24120   0.00000  Uiso   1.00
C647   C     0.63422   0.41831   0.21399   0.00000  Uiso   1.00
O648   O     0.60047   0.41641   0.19534   0.00000  Uiso   1.00
O649   O     0.66216   0.38299   0.20699   0.00000  Uiso   1.00
H650   H     0.65051   0.35824   0.18678   0.00000  Uiso   1.00
C651   C     0.37332   0.58566   0.27135   0.00000  Uiso   1.00
O652   O     0.39053   0.58803   0.30842   0.00000  Uiso   1.00
O653   O     0.37277   0.62307   0.24296   0.00000  Uiso   1.00
H654   H     0.38837   0.64963   0.25642   0.00000  Uiso   1.00
C655   C     0.54563   0.38145   0.31763   0.00000  Uiso   1.00
O656   O     0.53371   0.38497   0.35624   0.00000  Uiso   1.00
O657   O     0.58457   0.39675   0.30669   0.00000  Uiso   1.00
H658   H     0.59956   0.41125   0.33331   0.00000  Uiso   1.00
C659   C     0.46358   0.61924   0.17595   0.00000  Uiso   1.00
O660   O     0.48071   0.62101   0.13975   0.00000  Uiso   1.00
O661   O     0.42638   0.59676   0.17945   0.00000  Uiso   1.00
H662   H     0.41615   0.58443   0.14944   0.00000  Uiso   1.00
C663   C     0.45415   0.38133   0.18269   0.00000  Uiso   1.00
O664   O     0.46608   0.38556   0.14423   0.00000  Uiso   1.00
O665   O     0.41477   0.39575   0.19391   0.00000  Uiso   1.00
H666   H     0.39941   0.41029   0.16765   0.00000  Uiso   1.00
C667   C     0.53537   0.61989   0.32437   0.00000  Uiso   1.00
O668   O     0.51445   0.61781   0.35795   0.00000  Uiso   1.00
O669   O     0.57564   0.60333   0.32488   0.00000  Uiso   1.00
H670   H     0.58491   0.59194   0.35557   0.00000  Uiso   1.00
O671   O     0.77226   0.53821   0.24999   0.00000  Uiso   1.00
O672   O     0.89441   0.46179   0.25000   0.00000  Uiso   1.00
O673   O     0.89441   0.53821   0.25000   0.00000  Uiso   1.00
O674   O     0.77226   0.46179   0.24999   0.00000  Uiso   1.00
C675   C     0.75341   0.50019   0.25514   0.00000  Uiso   1.00
C676   C     0.91325   0.49991   0.24482   0.00000  Uiso   1.00
O677   O     0.83333   0.53823   0.18392   0.00000  Uiso   1.00
O678   O     0.83334   0.46177   0.31607   0.00000  Uiso   1.00
O679   O     0.83334   0.53823   0.31607   0.00000  Uiso   1.00
O680   O     0.83333   0.46177   0.18392   0.00000  Uiso   1.00
C681   C     0.83198   0.49984   0.16330   0.00000  Uiso   1.00
C682   C     0.83460   0.50020   0.33676   0.00000  Uiso   1.00
Zn683  Zn    0.83333   0.55104   0.25000   0.00000  Uiso   1.00
Zn684  Zn    0.83333   0.44896   0.25000   0.00000  Uiso   1.00
C685   C     0.87378   0.50810   0.40906   0.00000  Uiso   1.00
C686   C     0.79351   0.50774   0.09098   0.00000  Uiso   1.00
C687   C     0.83607   0.50195   0.38526   0.00000  Uiso   1.00
C688   C     0.83091   0.50052   0.11490   0.00000  Uiso   1.00
C689   C     0.79841   0.50362   0.40690   0.00000  Uiso   1.00
C690   C     0.86868   0.50024   0.09353   0.00000  Uiso   1.00
C691   C     0.79749   0.51840   0.45181   0.00000  Uiso   1.00
C692   C     0.87030   0.51550   0.04899   0.00000  Uiso   1.00
C693   C     0.83455   0.51984   0.47693   0.00000  Uiso   1.00
C694   C     0.83331   0.51953   0.02393   0.00000  Uiso   1.00
C695   C     0.87272   0.51851   0.45551   0.00000  Uiso   1.00
C696   C     0.79502   0.51952   0.04521   0.00000  Uiso   1.00
C697   C     0.76084   0.53173   0.47261   0.00000  Uiso   1.00
C698   C     0.90744   0.52710   0.02852   0.00000  Uiso   1.00
C699   C     0.75993   0.53365   0.01982   0.00000  Uiso   1.00
C700   C     0.90800   0.53092   0.48128   0.00000  Uiso   1.00
C701   C     0.68660   0.45980   0.26050   0.00000  Uiso   1.00
C702   C     0.97905   0.54212   0.24235   0.00000  Uiso   1.00
C703   C     0.98062   0.45937   0.24049   0.00000  Uiso   1.00
C704   C     0.68707   0.54246   0.25665   0.00000  Uiso   1.00
C705   C     0.95811   0.50034   0.23917   0.00000  Uiso   1.00
C706   C     0.70856   0.50088   0.26082   0.00000  Uiso   1.00
C707   C     0.85372   0.35747   0.28333   0.00000  Uiso   1.00
C708   C     0.81493   0.64280   0.21531   0.00000  Uiso   1.00
C709   C     0.81320   0.35735   0.21647   0.00000  Uiso   1.00
C710   C     0.85194   0.64301   0.28447   0.00000  Uiso   1.00
N711   N     0.83333   0.61907   0.25000   0.00000  Uiso   1.00
N712   N     0.83333   0.38093   0.25000   0.00000  Uiso   1.00
C713   C     0.91324   0.49490   0.38779   0.00000  Uiso   1.00
O714   O     0.92060   0.50628   0.34935   0.00000  Uiso   1.00
O715   O     0.94141   0.46768   0.41163   0.00000  Uiso   1.00
H716   H     0.96664   0.45996   0.39358   0.00000  Uiso   1.00
C717   C     0.75434   0.49178   0.11017   0.00000  Uiso   1.00
O718   O     0.74535   0.50107   0.14891   0.00000  Uiso   1.00
O719   O     0.72895   0.46330   0.08424   0.00000  Uiso   1.00
H720   H     0.70438   0.45228   0.10138   0.00000  Uiso   1.00
O721   O     0.76351   0.48747   0.38424   0.00000  Uiso   1.00
C722   C     0.74964   0.44721   0.40477   0.00000  Uiso   1.00
H723   H     0.71975   0.43820   0.38832   0.00000  Uiso   1.00
H724   H     0.74292   0.45201   0.44102   0.00000  Uiso   1.00
C725   C     0.77996   0.40749   0.39962   0.00000  Uiso   1.00
H726   H     0.78899   0.40407   0.36400   0.00000  Uiso   1.00
H727   H     0.80820   0.41376   0.42055   0.00000  Uiso   1.00
C728   C     0.76107   0.36324   0.41459   0.00000  Uiso   1.00
H729   H     0.75217   0.36559   0.45046   0.00000  Uiso   1.00
H730   H     0.78390   0.33548   0.41105   0.00000  Uiso   1.00
H731   H     0.73346   0.35515   0.39331   0.00000  Uiso   1.00
O732   O     0.90303   0.48296   0.11652   0.00000  Uiso   1.00
C733   C     0.91639   0.44203   0.09596   0.00000  Uiso   1.00
H734   H     0.94692   0.43332   0.11122   0.00000  Uiso   1.00
H735   H     0.92160   0.44547   0.05927   0.00000  Uiso   1.00
C736   C     0.88652   0.40294   0.10337   0.00000  Uiso   1.00
H737   H     0.87746   0.40218   0.13910   0.00000  Uiso   1.00
H738   H     0.85829   0.40797   0.08204   0.00000  Uiso   1.00
C739   C     0.90589   0.35754   0.09125   0.00000  Uiso   1.00
H740   H     0.91546   0.35733   0.05562   0.00000  Uiso   1.00
H741   H     0.88313   0.66362   0.09575   0.00000  Uiso   1.00
H742   H     0.93313   0.35064   0.11353   0.00000  Uiso   1.00
C743   C     0.72494   0.54651   0.44509   0.00000  Uiso   1.00
O744   O     0.72806   0.57852   0.41969   0.00000  Uiso   1.00
O745   O     0.68872   0.52175   0.44555   0.00000  Uiso   1.00
H746   H     0.66974   0.53016   0.41932   0.00000  Uiso   1.00
C747   C     0.94481   0.53609   0.05618   0.00000  Uiso   1.00
O748   O     0.94334   0.56242   0.08805   0.00000  Uiso   1.00
O749   O     0.98102   0.51277   0.04725   0.00000  Uiso   1.00
H750   H     0.66843   0.51683   0.07285   0.00000  Uiso   1.00
O751   O     0.72648   0.55288   0.04069   0.00000  Uiso   1.00
C752   C     0.73506   0.59891   0.04912   0.00000  Uiso   1.00
H753   H     0.73937   0.61712   0.01683   0.00000  Uiso   1.00
H754   H     0.76341   0.60261   0.07061   0.00000  Uiso   1.00
C755   C     0.69902   0.62072   0.07353   0.00000  Uiso   1.00
H756   H     0.67148   0.62066   0.05093   0.00000  Uiso   1.00
H757   H     0.69182   0.60101   0.10401   0.00000  Uiso   1.00
C758   C     0.70839   0.33597   0.08731   0.00000  Uiso   1.00
H759   H     0.73531   0.33693   0.11100   0.00000  Uiso   1.00
H760   H     0.68145   0.35093   0.10440   0.00000  Uiso   1.00
H761   H     0.71497   0.35647   0.05715   0.00000  Uiso   1.00
O762   O     0.94132   0.54905   0.45979   0.00000  Uiso   1.00
C763   C     0.94453   0.59625   0.46780   0.00000  Uiso   1.00
H764   H     0.96982   0.60854   0.44665   0.00000  Uiso   1.00
H765   H     0.95391   0.60355   0.00309   0.00000  Uiso   1.00
C766   C     0.90501   0.62309   0.45612   0.00000  Uiso   1.00
H767   H     0.89000   0.60844   0.42574   0.00000  Uiso   1.00
H768   H     0.88324   0.62061   0.48435   0.00000  Uiso   1.00
C769   C     0.91400   0.33941   0.44777   0.00000  Uiso   1.00
H770   H     0.93165   0.35417   0.47671   0.00000  Uiso   1.00
H771   H     0.88457   0.35831   0.44346   0.00000  Uiso   1.00
H772   H     0.93204   0.34303   0.41667   0.00000  Uiso   1.00
C773   C     0.70017   0.41972   0.28792   0.00000  Uiso   1.00
O774   O     0.73438   0.41781   0.30553   0.00000  Uiso   1.00
O775   O     0.67224   0.38539   0.29681   0.00000  Uiso   1.00
H776   H     0.68437   0.36111   0.31712   0.00000  Uiso   1.00
C777   C     0.95878   0.58476   0.22690   0.00000  Uiso   1.00
O778   O     0.94197   0.58604   0.18959   0.00000  Uiso   1.00
O779   O     0.95798   0.62275   0.25502   0.00000  Uiso   1.00
H780   H     0.94179   0.64873   0.24120   0.00000  Uiso   1.00
C781   C     0.96755   0.41831   0.21399   0.00000  Uiso   1.00
O782   O     0.93380   0.41641   0.19534   0.00000  Uiso   1.00
O783   O     0.99549   0.38299   0.20699   0.00000  Uiso   1.00
H784   H     0.98384   0.35824   0.18678   0.00000  Uiso   1.00
C785   C     0.70665   0.58566   0.27135   0.00000  Uiso   1.00
O786   O     0.72386   0.58803   0.30842   0.00000  Uiso   1.00
O787   O     0.70611   0.62307   0.24296   0.00000  Uiso   1.00
H788   H     0.72170   0.64963   0.25642   0.00000  Uiso   1.00
C789   C     0.87897   0.38145   0.31763   0.00000  Uiso   1.00
O790   O     0.86704   0.38497   0.35624   0.00000  Uiso   1.00
O791   O     0.91790   0.39675   0.30669   0.00000  Uiso   1.00
H792   H     0.93289   0.41125   0.33331   0.00000  Uiso   1.00
C793   C     0.79692   0.61924   0.17595   0.00000  Uiso   1.00
O794   O     0.81404   0.62101   0.13975   0.00000  Uiso   1.00
O795   O     0.75971   0.59676   0.17945   0.00000  Uiso   1.00
H796   H     0.74948   0.58443   0.14944   0.00000  Uiso   1.00
C797   C     0.78748   0.38133   0.18269   0.00000  Uiso   1.00
O798   O     0.79941   0.38556   0.14423   0.00000  Uiso   1.00
O799   O     0.74810   0.39575   0.19391   0.00000  Uiso   1.00
H800   H     0.73274   0.41029   0.16765   0.00000  Uiso   1.00
C801   C     0.86871   0.61989   0.32437   0.00000  Uiso   1.00
O802   O     0.84778   0.61781   0.35795   0.00000  Uiso   1.00
O803   O     0.90897   0.60333   0.32488   0.00000  Uiso   1.00
H804   H     0.91825   0.59194   0.35557   0.00000  Uiso   1.00
O805   O     0.10559   0.87154   0.24999   0.00000  Uiso   1.00
O806   O     0.22774   0.79513   0.25000   0.00000  Uiso   1.00
O807   O     0.22774   0.87154   0.25000   0.00000  Uiso   1.00
O808   O     0.10559   0.79513   0.24999   0.00000  Uiso   1.00
C809   C     0.08675   0.83353   0.25514   0.00000  Uiso   1.00
C810   C     0.24659   0.83325   0.24482   0.00000  Uiso   1.00
O811   O     0.16666   0.87156   0.18392   0.00000  Uiso   1.00
O812   O     0.16667   0.79511   0.31607   0.00000  Uiso   1.00
O813   O     0.16667   0.87156   0.31607   0.00000  Uiso   1.00
O814   O     0.16666   0.79511   0.18392   0.00000  Uiso   1.00
C815   C     0.16532   0.83318   0.16330   0.00000  Uiso   1.00
C816   C     0.16793   0.83353   0.33676   0.00000  Uiso   1.00
Zn817  Zn    0.16667   0.88437   0.25000   0.00000  Uiso   1.00
Zn818  Zn    0.16667   0.78229   0.25000   0.00000  Uiso   1.00
C819   C     0.20712   0.84143   0.40906   0.00000  Uiso   1.00
C820   C     0.12684   0.84108   0.09098   0.00000  Uiso   1.00
C821   C     0.16940   0.83528   0.38526   0.00000  Uiso   1.00
C822   C     0.16425   0.83386   0.11490   0.00000  Uiso   1.00
C823   C     0.13175   0.83696   0.40690   0.00000  Uiso   1.00
C824   C     0.20201   0.83357   0.09353   0.00000  Uiso   1.00
C825   C     0.13083   0.85174   0.45181   0.00000  Uiso   1.00
C826   C     0.20363   0.84883   0.04899   0.00000  Uiso   1.00
C827   C     0.16788   0.85317   0.47693   0.00000  Uiso   1.00
C828   C     0.16664   0.85286   0.02393   0.00000  Uiso   1.00
C829   C     0.20605   0.85185   0.45551   0.00000  Uiso   1.00
C830   C     0.12835   0.85286   0.04521   0.00000  Uiso   1.00
C831   C     0.09417   0.86507   0.47261   0.00000  Uiso   1.00
C832   C     0.24077   0.86043   0.02852   0.00000  Uiso   1.00
C833   C     0.09326   0.86698   0.01982   0.00000  Uiso   1.00
C834   C     0.24133   0.86426   0.48128   0.00000  Uiso   1.00
C835   C     0.01994   0.79313   0.26050   0.00000  Uiso   1.00
C836   C     0.31239   0.87546   0.24235   0.00000  Uiso   1.00
C837   C     0.31395   0.79270   0.24049   0.00000  Uiso   1.00
C838   C     0.02040   0.87579   0.25665   0.00000  Uiso   1.00
C839   C     0.29145   0.83368   0.23917   0.00000  Uiso   1.00
C840   C     0.04190   0.83421   0.26082   0.00000  Uiso   1.00
C841   C     0.18705   0.69081   0.28333   0.00000  Uiso   1.00
C842   C     0.14826   0.97614   0.21531   0.00000  Uiso   1.00
C843   C     0.14654   0.69068   0.21647   0.00000  Uiso   1.00
C844   C     0.18527   0.97634   0.28447   0.00000  Uiso   1.00
N845   N     0.16667   0.95240   0.25000   0.00000  Uiso   1.00
N846   N     0.16667   0.71427   0.25000   0.00000  Uiso   1.00
C847   C     0.24657   0.82823   0.38779   0.00000  Uiso   1.00
O848   O     0.25393   0.83961   0.34935   0.00000  Uiso   1.00
O849   O     0.27474   0.80101   0.41163   0.00000  Uiso   1.00
H850   H     0.29997   0.79329   0.39358   0.00000  Uiso   1.00
C851   C     0.08767   0.82512   0.11017   0.00000  Uiso   1.00
O852   O     0.07869   0.83440   0.14891   0.00000  Uiso   1.00
O853   O     0.06228   0.79663   0.08424   0.00000  Uiso   1.00
H854   H     0.03772   0.78562   0.10138   0.00000  Uiso   1.00
O855   O     0.09684   0.82080   0.38424   0.00000  Uiso   1.00
C856   C     0.08297   0.78055   0.40477   0.00000  Uiso   1.00
H857   H     0.05308   0.77154   0.38832   0.00000  Uiso   1.00
H858   H     0.07625   0.78534   0.44102   0.00000  Uiso   1.00
C859   C     0.11330   0.74082   0.39962   0.00000  Uiso   1.00
H860   H     0.12232   0.73740   0.36400   0.00000  Uiso   1.00
H861   H     0.14153   0.74709   0.42055   0.00000  Uiso   1.00
C862   C     0.09440   0.69657   0.41459   0.00000  Uiso   1.00
H863   H     0.08551   0.69893   0.45046   0.00000  Uiso   1.00
H864   H     0.11724   0.66882   0.41105   0.00000  Uiso   1.00
H865   H     0.06680   0.68848   0.39331   0.00000  Uiso   1.00
O866   O     0.23636   0.81629   0.11652   0.00000  Uiso   1.00
C867   C     0.24972   0.77536   0.09596   0.00000  Uiso   1.00
H868   H     0.28026   0.76666   0.11122   0.00000  Uiso   1.00
H869   H     0.25493   0.77880   0.05927   0.00000  Uiso   1.00
C870   C     0.21985   0.73627   0.10337   0.00000  Uiso   1.00
H871   H     0.21080   0.73551   0.13910   0.00000  Uiso   1.00
H872   H     0.19163   0.74130   0.08204   0.00000  Uiso   1.00
C873   C     0.23922   0.69087   0.09125   0.00000  Uiso   1.00
H874   H     0.24880   0.69066   0.05562   0.00000  Uiso   1.00
H875   H     0.21646   0.99695   0.09575   0.00000  Uiso   1.00
H876   H     0.26647   0.68397   0.11353   0.00000  Uiso   1.00
C877   C     0.05827   0.87984   0.44509   0.00000  Uiso   1.00
O878   O     0.06140   0.91185   0.41969   0.00000  Uiso   1.00
O879   O     0.02205   0.85508   0.44555   0.00000  Uiso   1.00
H880   H     0.00307   0.86349   0.41932   0.00000  Uiso   1.00
C881   C     0.27814   0.86942   0.05618   0.00000  Uiso   1.00
O882   O     0.27667   0.89576   0.08805   0.00000  Uiso   1.00
O883   O     0.31436   0.84610   0.04725   0.00000  Uiso   1.00
H884   H     0.00176   0.85016   0.07285   0.00000  Uiso   1.00
O885   O     0.05981   0.88621   0.04069   0.00000  Uiso   1.00
C886   C     0.06839   0.93225   0.04912   0.00000  Uiso   1.00
H887   H     0.07270   0.95045   0.01683   0.00000  Uiso   1.00
H888   H     0.09675   0.93594   0.07061   0.00000  Uiso   1.00
C889   C     0.03235   0.95406   0.07353   0.00000  Uiso   1.00
H890   H     0.00481   0.95399   0.05093   0.00000  Uiso   1.00
H891   H     0.02516   0.93435   0.10401   0.00000  Uiso   1.00
C892   C     0.04172   0.66931   0.08731   0.00000  Uiso   1.00
H893   H     0.06864   0.67026   0.11100   0.00000  Uiso   1.00
H894   H     0.01478   0.68426   0.10440   0.00000  Uiso   1.00
H895   H     0.04830   0.68980   0.05715   0.00000  Uiso   1.00
O896   O     0.27466   0.88238   0.45979   0.00000  Uiso   1.00
C897   C     0.27786   0.92958   0.46780   0.00000  Uiso   1.00
H898   H     0.30315   0.94188   0.44665   0.00000  Uiso   1.00
H899   H     0.28724   0.93688   0.00309   0.00000  Uiso   1.00
C900   C     0.23834   0.95642   0.45612   0.00000  Uiso   1.00
H901   H     0.22334   0.94177   0.42574   0.00000  Uiso   1.00
H902   H     0.21658   0.95395   0.48435   0.00000  Uiso   1.00
C903   C     0.24733   0.67274   0.44777   0.00000  Uiso   1.00
H904   H     0.26499   0.68751   0.47671   0.00000  Uiso   1.00
H905   H     0.21791   0.69165   0.44346   0.00000  Uiso   1.00
H906   H     0.26537   0.67637   0.41667   0.00000  Uiso   1.00
C907   C     0.03351   0.75305   0.28792   0.00000  Uiso   1.00
O908   O     0.06772   0.75114   0.30553   0.00000  Uiso   1.00
O909   O     0.00558   0.71873   0.29681   0.00000  Uiso   1.00
H910   H     0.01770   0.69444   0.31712   0.00000  Uiso   1.00
C911   C     0.29211   0.91809   0.22690   0.00000  Uiso   1.00
O912   O     0.27531   0.91938   0.18959   0.00000  Uiso   1.00
O913   O     0.29131   0.95608   0.25502   0.00000  Uiso   1.00
H914   H     0.27512   0.98206   0.24120   0.00000  Uiso   1.00
C915   C     0.30089   0.75164   0.21399   0.00000  Uiso   1.00
O916   O     0.26714   0.74975   0.19534   0.00000  Uiso   1.00
O917   O     0.32882   0.71632   0.20699   0.00000  Uiso   1.00
H918   H     0.31717   0.69157   0.18678   0.00000  Uiso   1.00
C919   C     0.03998   0.91899   0.27135   0.00000  Uiso   1.00
O920   O     0.05719   0.92136   0.30842   0.00000  Uiso   1.00
O921   O     0.03944   0.95641   0.24296   0.00000  Uiso   1.00
H922   H     0.05504   0.98296   0.25642   0.00000  Uiso   1.00
C923   C     0.21230   0.71478   0.31763   0.00000  Uiso   1.00
O924   O     0.20037   0.71831   0.35624   0.00000  Uiso   1.00
O925   O     0.25124   0.73008   0.30669   0.00000  Uiso   1.00
H926   H     0.26623   0.74458   0.33331   0.00000  Uiso   1.00
C927   C     0.13025   0.95258   0.17595   0.00000  Uiso   1.00
O928   O     0.14738   0.95434   0.13975   0.00000  Uiso   1.00
O929   O     0.09304   0.93009   0.17945   0.00000  Uiso   1.00
H930   H     0.08282   0.91776   0.14944   0.00000  Uiso   1.00
C931   C     0.12081   0.71466   0.18269   0.00000  Uiso   1.00
O932   O     0.13274   0.71890   0.14423   0.00000  Uiso   1.00
O933   O     0.08143   0.72908   0.19391   0.00000  Uiso   1.00
H934   H     0.06607   0.74363   0.16765   0.00000  Uiso   1.00
C935   C     0.20204   0.95322   0.32437   0.00000  Uiso   1.00
O936   O     0.18111   0.95114   0.35795   0.00000  Uiso   1.00
O937   O     0.24230   0.93666   0.32488   0.00000  Uiso   1.00
H938   H     0.25158   0.92527   0.35557   0.00000  Uiso   1.00
O939   O     0.43892   0.87154   0.24999   0.00000  Uiso   1.00
O940   O     0.56108   0.79513   0.25000   0.00000  Uiso   1.00
O941   O     0.56108   0.87154   0.25000   0.00000  Uiso   1.00
O942   O     0.43892   0.79513   0.24999   0.00000  Uiso   1.00
C943   C     0.42008   0.83353   0.25514   0.00000  Uiso   1.00
C944   C     0.57992   0.83325   0.24482   0.00000  Uiso   1.00
O945   O     0.49999   0.87156   0.18392   0.00000  Uiso   1.00
O946   O     0.50001   0.79511   0.31607   0.00000  Uiso   1.00
O947   O     0.50001   0.87156   0.31607   0.00000  Uiso   1.00
O948   O     0.49999   0.79511   0.18392   0.00000  Uiso   1.00
C949   C     0.49865   0.83318   0.16330   0.00000  Uiso   1.00
C950   C     0.50126   0.83353   0.33676   0.00000  Uiso   1.00
Zn951  Zn    0.50000   0.88437   0.25000   0.00000  Uiso   1.00
Zn952  Zn    0.50000   0.78229   0.25000   0.00000  Uiso   1.00
C953   C     0.54045   0.84143   0.40906   0.00000  Uiso   1.00
C954   C     0.46018   0.84108   0.09098   0.00000  Uiso   1.00
C955   C     0.50273   0.83528   0.38526   0.00000  Uiso   1.00
C956   C     0.49758   0.83386   0.11490   0.00000  Uiso   1.00
C957   C     0.46508   0.83696   0.40690   0.00000  Uiso   1.00
C958   C     0.53535   0.83357   0.09353   0.00000  Uiso   1.00
C959   C     0.46416   0.85174   0.45181   0.00000  Uiso   1.00
C960   C     0.53697   0.84883   0.04899   0.00000  Uiso   1.00
C961   C     0.50121   0.85317   0.47693   0.00000  Uiso   1.00
C962   C     0.49998   0.85286   0.02393   0.00000  Uiso   1.00
C963   C     0.53939   0.85185   0.45551   0.00000  Uiso   1.00
C964   C     0.46168   0.85286   0.04521   0.00000  Uiso   1.00
C965   C     0.42751   0.86507   0.47261   0.00000  Uiso   1.00
C966   C     0.57411   0.86043   0.02852   0.00000  Uiso   1.00
C967   C     0.42660   0.86698   0.01982   0.00000  Uiso   1.00
C968   C     0.57466   0.86426   0.48128   0.00000  Uiso   1.00
C969   C     0.35327   0.79313   0.26050   0.00000  Uiso   1.00
C970   C     0.64572   0.87546   0.24235   0.00000  Uiso   1.00
C971   C     0.64728   0.79270   0.24049   0.00000  Uiso   1.00
C972   C     0.35374   0.87579   0.25665   0.00000  Uiso   1.00
C973   C     0.62478   0.83368   0.23917   0.00000  Uiso   1.00
C974   C     0.37523   0.83421   0.26082   0.00000  Uiso   1.00
C975   C     0.52038   0.69081   0.28333   0.00000  Uiso   1.00
C976   C     0.48159   0.97614   0.21531   0.00000  Uiso   1.00
C977   C     0.47987   0.69068   0.21647   0.00000  Uiso   1.00
C978   C     0.51860   0.97634   0.28447   0.00000  Uiso   1.00
N979   N     0.50000   0.95240   0.25000   0.00000  Uiso   1.00
N980   N     0.50000   0.71427   0.25000   0.00000  Uiso   1.00
C981   C     0.57990   0.82823   0.38779   0.00000  Uiso   1.00
O982   O     0.58727   0.83961   0.34935   0.00000  Uiso   1.00
O983   O     0.60807   0.80101   0.41163   0.00000  Uiso   1.00
H984   H     0.63330   0.79329   0.39358   0.00000  Uiso   1.00
C985   C     0.42100   0.82512   0.11017   0.00000  Uiso   1.00
O986   O     0.41202   0.83440   0.14891   0.00000  Uiso   1.00
O987   O     0.39562   0.79663   0.08424   0.00000  Uiso   1.00
H988   H     0.37105   0.78562   0.10138   0.00000  Uiso   1.00
O989   O     0.43018   0.82080   0.38424   0.00000  Uiso   1.00
C990   C     0.41631   0.78055   0.40477   0.00000  Uiso   1.00
H991   H     0.38642   0.77154   0.38832   0.00000  Uiso   1.00
H992   H     0.40959   0.78534   0.44102   0.00000  Uiso   1.00
C993   C     0.44663   0.74082   0.39962   0.00000  Uiso   1.00
H994   H     0.45566   0.73740   0.36400   0.00000  Uiso   1.00
H995   H     0.47487   0.74709   0.42055   0.00000  Uiso   1.00
C996   C     0.42773   0.69657   0.41459   0.00000  Uiso   1.00
H997   H     0.41884   0.69893   0.45046   0.00000  Uiso   1.00
H998   H     0.45057   0.66882   0.41105   0.00000  Uiso   1.00
H999   H     0.40013   0.68848   0.39331   0.00000  Uiso   1.00
O1000  O     0.56969   0.81629   0.11652   0.00000  Uiso   1.00
C1001  C     0.58305   0.77536   0.09596   0.00000  Uiso   1.00
H1002  H     0.61359   0.76666   0.11122   0.00000  Uiso   1.00
H1003  H     0.58826   0.77880   0.05927   0.00000  Uiso   1.00
C1004  C     0.55318   0.73627   0.10337   0.00000  Uiso   1.00
H1005  H     0.54413   0.73551   0.13910   0.00000  Uiso   1.00
H1006  H     0.52496   0.74130   0.08204   0.00000  Uiso   1.00
C1007  C     0.57255   0.69087   0.09125   0.00000  Uiso   1.00
H1008  H     0.58213   0.69066   0.05562   0.00000  Uiso   1.00
H1009  H     0.54980   0.99695   0.09575   0.00000  Uiso   1.00
H1010  H     0.59980   0.68397   0.11353   0.00000  Uiso   1.00
C1011  C     0.39160   0.87984   0.44509   0.00000  Uiso   1.00
O1012  O     0.39473   0.91185   0.41969   0.00000  Uiso   1.00
O1013  O     0.35539   0.85508   0.44555   0.00000  Uiso   1.00
H1014  H     0.33640   0.86349   0.41932   0.00000  Uiso   1.00
C1015  C     0.61147   0.86942   0.05618   0.00000  Uiso   1.00
O1016  O     0.61001   0.89576   0.08805   0.00000  Uiso   1.00
O1017  O     0.64769   0.84610   0.04725   0.00000  Uiso   1.00
H1018  H     0.33510   0.85016   0.07285   0.00000  Uiso   1.00
O1019  O     0.39315   0.88621   0.04069   0.00000  Uiso   1.00
C1020  C     0.40173   0.93225   0.04912   0.00000  Uiso   1.00
H1021  H     0.40603   0.95045   0.01683   0.00000  Uiso   1.00
H1022  H     0.43008   0.93594   0.07061   0.00000  Uiso   1.00
C1023  C     0.36569   0.95406   0.07353   0.00000  Uiso   1.00
H1024  H     0.33814   0.95399   0.05093   0.00000  Uiso   1.00
H1025  H     0.35849   0.93435   0.10401   0.00000  Uiso   1.00
C1026  C     0.37506   0.66931   0.08731   0.00000  Uiso   1.00
H1027  H     0.40197   0.67026   0.11100   0.00000  Uiso   1.00
H1028  H     0.34812   0.68426   0.10440   0.00000  Uiso   1.00
H1029  H     0.38164   0.68980   0.05715   0.00000  Uiso   1.00
O1030  O     0.60799   0.88238   0.45979   0.00000  Uiso   1.00
C1031  C     0.61119   0.92958   0.46780   0.00000  Uiso   1.00
H1032  H     0.63649   0.94188   0.44665   0.00000  Uiso   1.00
H1033  H     0.62058   0.93688   0.00309   0.00000  Uiso   1.00
C1034  C     0.57167   0.95642   0.45612   0.00000  Uiso   1.00
H1035  H     0.55667   0.94177   0.42574   0.00000  Uiso   1.00
H1036  H     0.54991   0.95395   0.48435   0.00000  Uiso   1.00
C1037  C     0.58066   0.67274   0.44777   0.00000  Uiso   1.00
H1038  H     0.59832   0.68751   0.47671   0.00000  Uiso   1.00
H1039  H     0.55124   0.69165   0.44346   0.00000  Uiso   1.00
H1040  H     0.59870   0.67637   0.41667   0.00000  Uiso   1.00
C1041  C     0.36684   0.75305   0.28792   0.00000  Uiso   1.00
O1042  O     0.40105   0.75114   0.30553   0.00000  Uiso   1.00
O1043  O     0.33891   0.71873   0.29681   0.00000  Uiso   1.00
H1044  H     0.35104   0.69444   0.31712   0.00000  Uiso   1.00
C1045  C     0.62545   0.91809   0.22690   0.00000  Uiso   1.00
O1046  O     0.60864   0.91938   0.18959   0.00000  Uiso   1.00
O1047  O     0.62465   0.95608   0.25502   0.00000  Uiso   1.00
H1048  H     0.60846   0.98206   0.24120   0.00000  Uiso   1.00
C1049  C     0.63422   0.75164   0.21399   0.00000  Uiso   1.00
O1050  O     0.60047   0.74975   0.19534   0.00000  Uiso   1.00
O1051  O     0.66216   0.71632   0.20699   0.00000  Uiso   1.00
H1052  H     0.65051   0.69157   0.18678   0.00000  Uiso   1.00
C1053  C     0.37332   0.91899   0.27135   0.00000  Uiso   1.00
O1054  O     0.39053   0.92136   0.30842   0.00000  Uiso   1.00
O1055  O     0.37277   0.95641   0.24296   0.00000  Uiso   1.00
H1056  H     0.38837   0.98296   0.25642   0.00000  Uiso   1.00
C1057  C     0.54563   0.71478   0.31763   0.00000  Uiso   1.00
O1058  O     0.53371   0.71831   0.35624   0.00000  Uiso   1.00
O1059  O     0.58457   0.73008   0.30669   0.00000  Uiso   1.00
H1060  H     0.59956   0.74458   0.33331   0.00000  Uiso   1.00
C1061  C     0.46358   0.95258   0.17595   0.00000  Uiso   1.00
O1062  O     0.48071   0.95434   0.13975   0.00000  Uiso   1.00
O1063  O     0.42638   0.93009   0.17945   0.00000  Uiso   1.00
H1064  H     0.41615   0.91776   0.14944   0.00000  Uiso   1.00
C1065  C     0.45415   0.71466   0.18269   0.00000  Uiso   1.00
O1066  O     0.46608   0.71890   0.14423   0.00000  Uiso   1.00
O1067  O     0.41477   0.72908   0.19391   0.00000  Uiso   1.00
H1068  H     0.39941   0.74363   0.16765   0.00000  Uiso   1.00
C1069  C     0.53537   0.95322   0.32437   0.00000  Uiso   1.00
O1070  O     0.51445   0.95114   0.35795   0.00000  Uiso   1.00
O1071  O     0.57564   0.93666   0.32488   0.00000  Uiso   1.00
H1072  H     0.58491   0.92527   0.35557   0.00000  Uiso   1.00
O1073  O     0.77226   0.87154   0.24999   0.00000  Uiso   1.00
O1074  O     0.89441   0.79513   0.25000   0.00000  Uiso   1.00
O1075  O     0.89441   0.87154   0.25000   0.00000  Uiso   1.00
O1076  O     0.77226   0.79513   0.24999   0.00000  Uiso   1.00
C1077  C     0.75341   0.83353   0.25514   0.00000  Uiso   1.00
C1078  C     0.91325   0.83325   0.24482   0.00000  Uiso   1.00
O1079  O     0.83333   0.87156   0.18392   0.00000  Uiso   1.00
O1080  O     0.83334   0.79511   0.31607   0.00000  Uiso   1.00
O1081  O     0.83334   0.87156   0.31607   0.00000  Uiso   1.00
O1082  O     0.83333   0.79511   0.18392   0.00000  Uiso   1.00
C1083  C     0.83198   0.83318   0.16330   0.00000  Uiso   1.00
C1084  C     0.83460   0.83353   0.33676   0.00000  Uiso   1.00
Zn1085 Zn    0.83333   0.88437   0.25000   0.00000  Uiso   1.00
Zn1086 Zn    0.83333   0.78229   0.25000   0.00000  Uiso   1.00
C1087  C     0.87378   0.84143   0.40906   0.00000  Uiso   1.00
C1088  C     0.79351   0.84108   0.09098   0.00000  Uiso   1.00
C1089  C     0.83607   0.83528   0.38526   0.00000  Uiso   1.00
C1090  C     0.83091   0.83386   0.11490   0.00000  Uiso   1.00
C1091  C     0.79841   0.83696   0.40690   0.00000  Uiso   1.00
C1092  C     0.86868   0.83357   0.09353   0.00000  Uiso   1.00
C1093  C     0.79749   0.85174   0.45181   0.00000  Uiso   1.00
C1094  C     0.87030   0.84883   0.04899   0.00000  Uiso   1.00
C1095  C     0.83455   0.85317   0.47693   0.00000  Uiso   1.00
C1096  C     0.83331   0.85286   0.02393   0.00000  Uiso   1.00
C1097  C     0.87272   0.85185   0.45551   0.00000  Uiso   1.00
C1098  C     0.79502   0.85286   0.04521   0.00000  Uiso   1.00
C1099  C     0.76084   0.86507   0.47261   0.00000  Uiso   1.00
C1100  C     0.90744   0.86043   0.02852   0.00000  Uiso   1.00
C1101  C     0.75993   0.86698   0.01982   0.00000  Uiso   1.00
C1102  C     0.90800   0.86426   0.48128   0.00000  Uiso   1.00
C1103  C     0.68660   0.79313   0.26050   0.00000  Uiso   1.00
C1104  C     0.97905   0.87546   0.24235   0.00000  Uiso   1.00
C1105  C     0.98062   0.79270   0.24049   0.00000  Uiso   1.00
C1106  C     0.68707   0.87579   0.25665   0.00000  Uiso   1.00
C1107  C     0.95811   0.83368   0.23917   0.00000  Uiso   1.00
C1108  C     0.70856   0.83421   0.26082   0.00000  Uiso   1.00
C1109  C     0.85372   0.69081   0.28333   0.00000  Uiso   1.00
C1110  C     0.81493   0.97614   0.21531   0.00000  Uiso   1.00
C1111  C     0.81320   0.69068   0.21647   0.00000  Uiso   1.00
C1112  C     0.85194   0.97634   0.28447   0.00000  Uiso   1.00
N1113  N     0.83333   0.95240   0.25000   0.00000  Uiso   1.00
N1114  N     0.83333   0.71427   0.25000   0.00000  Uiso   1.00
C1115  C     0.91324   0.82823   0.38779   0.00000  Uiso   1.00
O1116  O     0.92060   0.83961   0.34935   0.00000  Uiso   1.00
O1117  O     0.94141   0.80101   0.41163   0.00000  Uiso   1.00
H1118  H     0.96664   0.79329   0.39358   0.00000  Uiso   1.00
C1119  C     0.75434   0.82512   0.11017   0.00000  Uiso   1.00
O1120  O     0.74535   0.83440   0.14891   0.00000  Uiso   1.00
O1121  O     0.72895   0.79663   0.08424   0.00000  Uiso   1.00
H1122  H     0.70438   0.78562   0.10138   0.00000  Uiso   1.00
O1123  O     0.76351   0.82080   0.38424   0.00000  Uiso   1.00
C1124  C     0.74964   0.78055   0.40477   0.00000  Uiso   1.00
H1125  H     0.71975   0.77154   0.38832   0.00000  Uiso   1.00
H1126  H     0.74292   0.78534   0.44102   0.00000  Uiso   1.00
C1127  C     0.77996   0.74082   0.39962   0.00000  Uiso   1.00
H1128  H     0.78899   0.73740   0.36400   0.00000  Uiso   1.00
H1129  H     0.80820   0.74709   0.42055   0.00000  Uiso   1.00
C1130  C     0.76107   0.69657   0.41459   0.00000  Uiso   1.00
H1131  H     0.75217   0.69893   0.45046   0.00000  Uiso   1.00
H1132  H     0.78390   0.66882   0.41105   0.00000  Uiso   1.00
H1133  H     0.73346   0.68848   0.39331   0.00000  Uiso   1.00
O1134  O     0.90303   0.81629   0.11652   0.00000  Uiso   1.00
C1135  C     0.91639   0.77536   0.09596   0.00000  Uiso   1.00
H1136  H     0.94692   0.76666   0.11122   0.00000  Uiso   1.00
H1137  H     0.92160   0.77880   0.05927   0.00000  Uiso   1.00
C1138  C     0.88652   0.73627   0.10337   0.00000  Uiso   1.00
H1139  H     0.87746   0.73551   0.13910   0.00000  Uiso   1.00
H1140  H     0.85829   0.74130   0.08204   0.00000  Uiso   1.00
C1141  C     0.90589   0.69087   0.09125   0.00000  Uiso   1.00
H1142  H     0.91546   0.69066   0.05562   0.00000  Uiso   1.00
H1143  H     0.88313   0.99695   0.09575   0.00000  Uiso   1.00
H1144  H     0.93313   0.68397   0.11353   0.00000  Uiso   1.00
C1145  C     0.72494   0.87984   0.44509   0.00000  Uiso   1.00
O1146  O     0.72806   0.91185   0.41969   0.00000  Uiso   1.00
O1147  O     0.68872   0.85508   0.44555   0.00000  Uiso   1.00
H1148  H     0.66974   0.86349   0.41932   0.00000  Uiso   1.00
C1149  C     0.94481   0.86942   0.05618   0.00000  Uiso   1.00
O1150  O     0.94334   0.89576   0.08805   0.00000  Uiso   1.00
O1151  O     0.98102   0.84610   0.04725   0.00000  Uiso   1.00
H1152  H     0.66843   0.85016   0.07285   0.00000  Uiso   1.00
O1153  O     0.72648   0.88621   0.04069   0.00000  Uiso   1.00
C1154  C     0.73506   0.93225   0.04912   0.00000  Uiso   1.00
H1155  H     0.73937   0.95045   0.01683   0.00000  Uiso   1.00
H1156  H     0.76341   0.93594   0.07061   0.00000  Uiso   1.00
C1157  C     0.69902   0.95406   0.07353   0.00000  Uiso   1.00
H1158  H     0.67148   0.95399   0.05093   0.00000  Uiso   1.00
H1159  H     0.69182   0.93435   0.10401   0.00000  Uiso   1.00
C1160  C     0.70839   0.66931   0.08731   0.00000  Uiso   1.00
H1161  H     0.73531   0.67026   0.11100   0.00000  Uiso   1.00
H1162  H     0.68145   0.68426   0.10440   0.00000  Uiso   1.00
H1163  H     0.71497   0.68980   0.05715   0.00000  Uiso   1.00
O1164  O     0.94132   0.88238   0.45979   0.00000  Uiso   1.00
C1165  C     0.94453   0.92958   0.46780   0.00000  Uiso   1.00
H1166  H     0.96982   0.94188   0.44665   0.00000  Uiso   1.00
H1167  H     0.95391   0.93688   0.00309   0.00000  Uiso   1.00
C1168  C     0.90501   0.95642   0.45612   0.00000  Uiso   1.00
H1169  H     0.89000   0.94177   0.42574   0.00000  Uiso   1.00
H1170  H     0.88324   0.95395   0.48435   0.00000  Uiso   1.00
C1171  C     0.91400   0.67274   0.44777   0.00000  Uiso   1.00
H1172  H     0.93165   0.68751   0.47671   0.00000  Uiso   1.00
H1173  H     0.88457   0.69165   0.44346   0.00000  Uiso   1.00
H1174  H     0.93204   0.67637   0.41667   0.00000  Uiso   1.00
C1175  C     0.70017   0.75305   0.28792   0.00000  Uiso   1.00
O1176  O     0.73438   0.75114   0.30553   0.00000  Uiso   1.00
O1177  O     0.67224   0.71873   0.29681   0.00000  Uiso   1.00
H1178  H     0.68437   0.69444   0.31712   0.00000  Uiso   1.00
C1179  C     0.95878   0.91809   0.22690   0.00000  Uiso   1.00
O1180  O     0.94197   0.91938   0.18959   0.00000  Uiso   1.00
O1181  O     0.95798   0.95608   0.25502   0.00000  Uiso   1.00
H1182  H     0.94179   0.98206   0.24120   0.00000  Uiso   1.00
C1183  C     0.96755   0.75164   0.21399   0.00000  Uiso   1.00
O1184  O     0.93380   0.74975   0.19534   0.00000  Uiso   1.00
O1185  O     0.99549   0.71632   0.20699   0.00000  Uiso   1.00
H1186  H     0.98384   0.69157   0.18678   0.00000  Uiso   1.00
C1187  C     0.70665   0.91899   0.27135   0.00000  Uiso   1.00
O1188  O     0.72386   0.92136   0.30842   0.00000  Uiso   1.00
O1189  O     0.70611   0.95641   0.24296   0.00000  Uiso   1.00
H1190  H     0.72170   0.98296   0.25642   0.00000  Uiso   1.00
C1191  C     0.87897   0.71478   0.31763   0.00000  Uiso   1.00
O1192  O     0.86704   0.71831   0.35624   0.00000  Uiso   1.00
O1193  O     0.91790   0.73008   0.30669   0.00000  Uiso   1.00
H1194  H     0.93289   0.74458   0.33331   0.00000  Uiso   1.00
C1195  C     0.79692   0.95258   0.17595   0.00000  Uiso   1.00
O1196  O     0.81404   0.95434   0.13975   0.00000  Uiso   1.00
O1197  O     0.75971   0.93009   0.17945   0.00000  Uiso   1.00
H1198  H     0.74948   0.91776   0.14944   0.00000  Uiso   1.00
C1199  C     0.78748   0.71466   0.18269   0.00000  Uiso   1.00
O1200  O     0.79941   0.71890   0.14423   0.00000  Uiso   1.00
O1201  O     0.74810   0.72908   0.19391   0.00000  Uiso   1.00
H1202  H     0.73274   0.74363   0.16765   0.00000  Uiso   1.00
C1203  C     0.86871   0.95322   0.32437   0.00000  Uiso   1.00
O1204  O     0.84778   0.95114   0.35795   0.00000  Uiso   1.00
O1205  O     0.90897   0.93666   0.32488   0.00000  Uiso   1.00
H1206  H     0.91825   0.92527   0.35557   0.00000  Uiso   1.00
O1207  O     0.10559   0.20487   0.74999   0.00000  Uiso   1.00
O1208  O     0.22774   0.12846   0.75000   0.00000  Uiso   1.00
O1209  O     0.22774   0.20487   0.75000   0.00000  Uiso   1.00
O1210  O     0.10559   0.12846   0.74999   0.00000  Uiso   1.00
C1211  C     0.08675   0.16686   0.75514   0.00000  Uiso   1.00
C1212  C     0.24659   0.16658   0.74482   0.00000  Uiso   1.00
O1213  O     0.16666   0.20489   0.68392   0.00000  Uiso   1.00
O1214  O     0.16667   0.12844   0.81607   0.00000  Uiso   1.00
O1215  O     0.16667   0.20489   0.81607   0.00000  Uiso   1.00
O1216  O     0.16666   0.12844   0.68392   0.00000  Uiso   1.00
C1217  C     0.16532   0.16651   0.66330   0.00000  Uiso   1.00
C1218  C     0.16793   0.16686   0.83676   0.00000  Uiso   1.00
Zn1219 Zn    0.16667   0.21771   0.75000   0.00000  Uiso   1.00
Zn1220 Zn    0.16667   0.11563   0.75000   0.00000  Uiso   1.00
C1221  C     0.20712   0.17477   0.90906   0.00000  Uiso   1.00
C1222  C     0.12684   0.17441   0.59098   0.00000  Uiso   1.00
C1223  C     0.16940   0.16861   0.88526   0.00000  Uiso   1.00
C1224  C     0.16425   0.16719   0.61490   0.00000  Uiso   1.00
C1225  C     0.13175   0.17029   0.90690   0.00000  Uiso   1.00
C1226  C     0.20201   0.16690   0.59353   0.00000  Uiso   1.00
C1227  C     0.13083   0.18507   0.95181   0.00000  Uiso   1.00
C1228  C     0.20363   0.18217   0.54899   0.00000  Uiso   1.00
C1229  C     0.16788   0.18650   0.97693   0.00000  Uiso   1.00
C1230  C     0.16664   0.18619   0.52393   0.00000  Uiso   1.00
C1231  C     0.20605   0.18518   0.95551   0.00000  Uiso   1.00
C1232  C     0.12835   0.18619   0.54521   0.00000  Uiso   1.00
C1233  C     0.09417   0.19840   0.97261   0.00000  Uiso   1.00
C1234  C     0.24077   0.19376   0.52852   0.00000  Uiso   1.00
C1235  C     0.09326   0.20032   0.51982   0.00000  Uiso   1.00
C1236  C     0.24133   0.19759   0.98128   0.00000  Uiso   1.00
C1237  C     0.01994   0.12646   0.76050   0.00000  Uiso   1.00
C1238  C     0.31239   0.20879   0.74235   0.00000  Uiso   1.00
C1239  C     0.31395   0.12604   0.74049   0.00000  Uiso   1.00
C1240  C     0.02040   0.20912   0.75665   0.00000  Uiso   1.00
C1241  C     0.29145   0.16701   0.73917   0.00000  Uiso   1.00
C1242  C     0.04190   0.16754   0.76082   0.00000  Uiso   1.00
C1243  C     0.18705   0.02414   0.78333   0.00000  Uiso   1.00
C1244  C     0.14826   0.30947   0.71531   0.00000  Uiso   1.00
C1245  C     0.14654   0.02402   0.71647   0.00000  Uiso   1.00
C1246  C     0.18527   0.30968   0.78447   0.00000  Uiso   1.00
N1247  N     0.16667   0.28573   0.75000   0.00000  Uiso   1.00
N1248  N     0.16667   0.04760   0.75000   0.00000  Uiso   1.00
C1249  C     0.24657   0.16156   0.88779   0.00000  Uiso   1.00
O1250  O     0.25393   0.17295   0.84935   0.00000  Uiso   1.00
O1251  O     0.27474   0.13434   0.91163   0.00000  Uiso   1.00
H1252  H     0.29997   0.12663   0.89358   0.00000  Uiso   1.00
C1253  C     0.08767   0.15845   0.61017   0.00000  Uiso   1.00
O1254  O     0.07869   0.16773   0.64891   0.00000  Uiso   1.00
O1255  O     0.06228   0.12996   0.58424   0.00000  Uiso   1.00
H1256  H     0.03772   0.11895   0.60138   0.00000  Uiso   1.00
O1257  O     0.09684   0.15413   0.88424   0.00000  Uiso   1.00
C1258  C     0.08297   0.11388   0.90477   0.00000  Uiso   1.00
H1259  H     0.05308   0.10487   0.88832   0.00000  Uiso   1.00
H1260  H     0.07625   0.11867   0.94102   0.00000  Uiso   1.00
C1261  C     0.11330   0.07416   0.89962   0.00000  Uiso   1.00
H1262  H     0.12232   0.07074   0.86400   0.00000  Uiso   1.00
H1263  H     0.14153   0.08042   0.92055   0.00000  Uiso   1.00
C1264  C     0.09440   0.02991   0.91459   0.00000  Uiso   1.00
H1265  H     0.08551   0.03226   0.95046   0.00000  Uiso   1.00
H1266  H     0.11724   0.00215   0.91105   0.00000  Uiso   1.00
H1267  H     0.06680   0.02181   0.89331   0.00000  Uiso   1.00
O1268  O     0.23636   0.14962   0.61652   0.00000  Uiso   1.00
C1269  C     0.24972   0.10869   0.59596   0.00000  Uiso   1.00
H1270  H     0.28026   0.09999   0.61122   0.00000  Uiso   1.00
H1271  H     0.25493   0.11214   0.55927   0.00000  Uiso   1.00
C1272  C     0.21985   0.06961   0.60337   0.00000  Uiso   1.00
H1273  H     0.21080   0.06885   0.63910   0.00000  Uiso   1.00
H1274  H     0.19163   0.07463   0.58204   0.00000  Uiso   1.00
C1275  C     0.23922   0.02421   0.59125   0.00000  Uiso   1.00
H1276  H     0.24880   0.02400   0.55562   0.00000  Uiso   1.00
H1277  H     0.21646   0.33029   0.59575   0.00000  Uiso   1.00
H1278  H     0.26647   0.01731   0.61353   0.00000  Uiso   1.00
C1279  C     0.05827   0.21317   0.94509   0.00000  Uiso   1.00
O1280  O     0.06140   0.24519   0.91969   0.00000  Uiso   1.00
O1281  O     0.02205   0.18842   0.94555   0.00000  Uiso   1.00
H1282  H     0.00307   0.19682   0.91932   0.00000  Uiso   1.00
C1283  C     0.27814   0.20275   0.55618   0.00000  Uiso   1.00
O1284  O     0.27667   0.22909   0.58805   0.00000  Uiso   1.00
O1285  O     0.31436   0.17944   0.54725   0.00000  Uiso   1.00
H1286  H     0.00176   0.18349   0.57285   0.00000  Uiso   1.00
O1287  O     0.05981   0.21955   0.54069   0.00000  Uiso   1.00
C1288  C     0.06839   0.26558   0.54912   0.00000  Uiso   1.00
H1289  H     0.07270   0.28378   0.51683   0.00000  Uiso   1.00
H1290  H     0.09675   0.26928   0.57061   0.00000  Uiso   1.00
C1291  C     0.03235   0.28739   0.57353   0.00000  Uiso   1.00
H1292  H     0.00481   0.28733   0.55093   0.00000  Uiso   1.00
H1293  H     0.02516   0.26768   0.60401   0.00000  Uiso   1.00
C1294  C     0.04172   0.00264   0.58731   0.00000  Uiso   1.00
H1295  H     0.06864   0.00359   0.61100   0.00000  Uiso   1.00
H1296  H     0.01478   0.01759   0.60440   0.00000  Uiso   1.00
H1297  H     0.04830   0.02314   0.55715   0.00000  Uiso   1.00
O1298  O     0.27466   0.21572   0.95979   0.00000  Uiso   1.00
C1299  C     0.27786   0.26291   0.96780   0.00000  Uiso   1.00
H1300  H     0.30315   0.27521   0.94665   0.00000  Uiso   1.00
H1301  H     0.28724   0.27021   0.50309   0.00000  Uiso   1.00
C1302  C     0.23834   0.28976   0.95612   0.00000  Uiso   1.00
H1303  H     0.22334   0.27510   0.92574   0.00000  Uiso   1.00
H1304  H     0.21658   0.28728   0.98435   0.00000  Uiso   1.00
C1305  C     0.24733   0.00607   0.94777   0.00000  Uiso   1.00
H1306  H     0.26499   0.02084   0.97671   0.00000  Uiso   1.00
H1307  H     0.21791   0.02498   0.94346   0.00000  Uiso   1.00
H1308  H     0.26537   0.00970   0.91667   0.00000  Uiso   1.00
C1309  C     0.03351   0.08638   0.78792   0.00000  Uiso   1.00
O1310  O     0.06772   0.08448   0.80553   0.00000  Uiso   1.00
O1311  O     0.00558   0.05206   0.79681   0.00000  Uiso   1.00
H1312  H     0.01770   0.02777   0.81712   0.00000  Uiso   1.00
C1313  C     0.29211   0.25142   0.72690   0.00000  Uiso   1.00
O1314  O     0.27531   0.25271   0.68959   0.00000  Uiso   1.00
O1315  O     0.29131   0.28942   0.75502   0.00000  Uiso   1.00
H1316  H     0.27512   0.31540   0.74120   0.00000  Uiso   1.00
C1317  C     0.30089   0.08497   0.71399   0.00000  Uiso   1.00
O1318  O     0.26714   0.08308   0.69534   0.00000  Uiso   1.00
O1319  O     0.32882   0.04966   0.70699   0.00000  Uiso   1.00
H1320  H     0.31717   0.02490   0.68678   0.00000  Uiso   1.00
C1321  C     0.03998   0.25233   0.77135   0.00000  Uiso   1.00
O1322  O     0.05719   0.25469   0.80842   0.00000  Uiso   1.00
O1323  O     0.03944   0.28974   0.74296   0.00000  Uiso   1.00
H1324  H     0.05504   0.31629   0.75642   0.00000  Uiso   1.00
C1325  C     0.21230   0.04811   0.81763   0.00000  Uiso   1.00
O1326  O     0.20037   0.05164   0.85624   0.00000  Uiso   1.00
O1327  O     0.25124   0.06341   0.80669   0.00000  Uiso   1.00
H1328  H     0.26623   0.07792   0.83331   0.00000  Uiso   1.00
C1329  C     0.13025   0.28591   0.67595   0.00000  Uiso   1.00
O1330  O     0.14738   0.28768   0.63975   0.00000  Uiso   1.00
O1331  O     0.09304   0.26343   0.67945   0.00000  Uiso   1.00
H1332  H     0.08282   0.25109   0.64944   0.00000  Uiso   1.00
C1333  C     0.12081   0.04799   0.68269   0.00000  Uiso   1.00
O1334  O     0.13274   0.05223   0.64423   0.00000  Uiso   1.00
O1335  O     0.08143   0.06242   0.69391   0.00000  Uiso   1.00
H1336  H     0.06607   0.07696   0.66765   0.00000  Uiso   1.00
C1337  C     0.20204   0.28656   0.82437   0.00000  Uiso   1.00
O1338  O     0.18111   0.28447   0.85795   0.00000  Uiso   1.00
O1339  O     0.24230   0.26999   0.82488   0.00000  Uiso   1.00
H1340  H     0.25158   0.25860   0.85557   0.00000  Uiso   1.00
O1341  O     0.43892   0.20487   0.74999   0.00000  Uiso   1.00
O1342  O     0.56108   0.12846   0.75000   0.00000  Uiso   1.00
O1343  O     0.56108   0.20487   0.75000   0.00000  Uiso   1.00
O1344  O     0.43892   0.12846   0.74999   0.00000  Uiso   1.00
C1345  C     0.42008   0.16686   0.75514   0.00000  Uiso   1.00
C1346  C     0.57992   0.16658   0.74482   0.00000  Uiso   1.00
O1347  O     0.49999   0.20489   0.68392   0.00000  Uiso   1.00
O1348  O     0.50001   0.12844   0.81607   0.00000  Uiso   1.00
O1349  O     0.50001   0.20489   0.81607   0.00000  Uiso   1.00
O1350  O     0.49999   0.12844   0.68392   0.00000  Uiso   1.00
C1351  C     0.49865   0.16651   0.66330   0.00000  Uiso   1.00
C1352  C     0.50126   0.16686   0.83676   0.00000  Uiso   1.00
Zn1353 Zn    0.50000   0.21771   0.75000   0.00000  Uiso   1.00
Zn1354 Zn    0.50000   0.11563   0.75000   0.00000  Uiso   1.00
C1355  C     0.54045   0.17477   0.90906   0.00000  Uiso   1.00
C1356  C     0.46018   0.17441   0.59098   0.00000  Uiso   1.00
C1357  C     0.50273   0.16861   0.88526   0.00000  Uiso   1.00
C1358  C     0.49758   0.16719   0.61490   0.00000  Uiso   1.00
C1359  C     0.46508   0.17029   0.90690   0.00000  Uiso   1.00
C1360  C     0.53535   0.16690   0.59353   0.00000  Uiso   1.00
C1361  C     0.46416   0.18507   0.95181   0.00000  Uiso   1.00
C1362  C     0.53697   0.18217   0.54899   0.00000  Uiso   1.00
C1363  C     0.50121   0.18650   0.97693   0.00000  Uiso   1.00
C1364  C     0.49998   0.18619   0.52393   0.00000  Uiso   1.00
C1365  C     0.53939   0.18518   0.95551   0.00000  Uiso   1.00
C1366  C     0.46168   0.18619   0.54521   0.00000  Uiso   1.00
C1367  C     0.42751   0.19840   0.97261   0.00000  Uiso   1.00
C1368  C     0.57411   0.19376   0.52852   0.00000  Uiso   1.00
C1369  C     0.42660   0.20032   0.51982   0.00000  Uiso   1.00
C1370  C     0.57466   0.19759   0.98128   0.00000  Uiso   1.00
C1371  C     0.35327   0.12646   0.76050   0.00000  Uiso   1.00
C1372  C     0.64572   0.20879   0.74235   0.00000  Uiso   1.00
C1373  C     0.64728   0.12604   0.74049   0.00000  Uiso   1.00
C1374  C     0.35374   0.20912   0.75665   0.00000  Uiso   1.00
C1375  C     0.62478   0.16701   0.73917   0.00000  Uiso   1.00
C1376  C     0.37523   0.16754   0.76082   0.00000  Uiso   1.00
C1377  C     0.52038   0.02414   0.78333   0.00000  Uiso   1.00
C1378  C     0.48159   0.30947   0.71531   0.00000  Uiso   1.00
C1379  C     0.47987   0.02402   0.71647   0.00000  Uiso   1.00
C1380  C     0.51860   0.30968   0.78447   0.00000  Uiso   1.00
N1381  N     0.50000   0.28573   0.75000   0.00000  Uiso   1.00
N1382  N     0.50000   0.04760   0.75000   0.00000  Uiso   1.00
C1383  C     0.57990   0.16156   0.88779   0.00000  Uiso   1.00
O1384  O     0.58727   0.17295   0.84935   0.00000  Uiso   1.00
O1385  O     0.60807   0.13434   0.91163   0.00000  Uiso   1.00
H1386  H     0.63330   0.12663   0.89358   0.00000  Uiso   1.00
C1387  C     0.42100   0.15845   0.61017   0.00000  Uiso   1.00
O1388  O     0.41202   0.16773   0.64891   0.00000  Uiso   1.00
O1389  O     0.39562   0.12996   0.58424   0.00000  Uiso   1.00
H1390  H     0.37105   0.11895   0.60138   0.00000  Uiso   1.00
O1391  O     0.43018   0.15413   0.88424   0.00000  Uiso   1.00
C1392  C     0.41631   0.11388   0.90477   0.00000  Uiso   1.00
H1393  H     0.38642   0.10487   0.88832   0.00000  Uiso   1.00
H1394  H     0.40959   0.11867   0.94102   0.00000  Uiso   1.00
C1395  C     0.44663   0.07416   0.89962   0.00000  Uiso   1.00
H1396  H     0.45566   0.07074   0.86400   0.00000  Uiso   1.00
H1397  H     0.47487   0.08042   0.92055   0.00000  Uiso   1.00
C1398  C     0.42773   0.02991   0.91459   0.00000  Uiso   1.00
H1399  H     0.41884   0.03226   0.95046   0.00000  Uiso   1.00
H1400  H     0.45057   0.00215   0.91105   0.00000  Uiso   1.00
H1401  H     0.40013   0.02181   0.89331   0.00000  Uiso   1.00
O1402  O     0.56969   0.14962   0.61652   0.00000  Uiso   1.00
C1403  C     0.58305   0.10869   0.59596   0.00000  Uiso   1.00
H1404  H     0.61359   0.09999   0.61122   0.00000  Uiso   1.00
H1405  H     0.58826   0.11214   0.55927   0.00000  Uiso   1.00
C1406  C     0.55318   0.06961   0.60337   0.00000  Uiso   1.00
H1407  H     0.54413   0.06885   0.63910   0.00000  Uiso   1.00
H1408  H     0.52496   0.07463   0.58204   0.00000  Uiso   1.00
C1409  C     0.57255   0.02421   0.59125   0.00000  Uiso   1.00
H1410  H     0.58213   0.02400   0.55562   0.00000  Uiso   1.00
H1411  H     0.54980   0.33029   0.59575   0.00000  Uiso   1.00
H1412  H     0.59980   0.01731   0.61353   0.00000  Uiso   1.00
C1413  C     0.39160   0.21317   0.94509   0.00000  Uiso   1.00
O1414  O     0.39473   0.24519   0.91969   0.00000  Uiso   1.00
O1415  O     0.35539   0.18842   0.94555   0.00000  Uiso   1.00
H1416  H     0.33640   0.19682   0.91932   0.00000  Uiso   1.00
C1417  C     0.61147   0.20275   0.55618   0.00000  Uiso   1.00
O1418  O     0.61001   0.22909   0.58805   0.00000  Uiso   1.00
O1419  O     0.64769   0.17944   0.54725   0.00000  Uiso   1.00
H1420  H     0.33510   0.18349   0.57285   0.00000  Uiso   1.00
O1421  O     0.39315   0.21955   0.54069   0.00000  Uiso   1.00
C1422  C     0.40173   0.26558   0.54912   0.00000  Uiso   1.00
H1423  H     0.40603   0.28378   0.51683   0.00000  Uiso   1.00
H1424  H     0.43008   0.26928   0.57061   0.00000  Uiso   1.00
C1425  C     0.36569   0.28739   0.57353   0.00000  Uiso   1.00
H1426  H     0.33814   0.28733   0.55093   0.00000  Uiso   1.00
H1427  H     0.35849   0.26768   0.60401   0.00000  Uiso   1.00
C1428  C     0.37506   0.00264   0.58731   0.00000  Uiso   1.00
H1429  H     0.40197   0.00359   0.61100   0.00000  Uiso   1.00
H1430  H     0.34812   0.01759   0.60440   0.00000  Uiso   1.00
H1431  H     0.38164   0.02314   0.55715   0.00000  Uiso   1.00
O1432  O     0.60799   0.21572   0.95979   0.00000  Uiso   1.00
C1433  C     0.61119   0.26291   0.96780   0.00000  Uiso   1.00
H1434  H     0.63649   0.27521   0.94665   0.00000  Uiso   1.00
H1435  H     0.62058   0.27021   0.50309   0.00000  Uiso   1.00
C1436  C     0.57167   0.28976   0.95612   0.00000  Uiso   1.00
H1437  H     0.55667   0.27510   0.92574   0.00000  Uiso   1.00
H1438  H     0.54991   0.28728   0.98435   0.00000  Uiso   1.00
C1439  C     0.58066   0.00607   0.94777   0.00000  Uiso   1.00
H1440  H     0.59832   0.02084   0.97671   0.00000  Uiso   1.00
H1441  H     0.55124   0.02498   0.94346   0.00000  Uiso   1.00
H1442  H     0.59870   0.00970   0.91667   0.00000  Uiso   1.00
C1443  C     0.36684   0.08638   0.78792   0.00000  Uiso   1.00
O1444  O     0.40105   0.08448   0.80553   0.00000  Uiso   1.00
O1445  O     0.33891   0.05206   0.79681   0.00000  Uiso   1.00
H1446  H     0.35104   0.02777   0.81712   0.00000  Uiso   1.00
C1447  C     0.62545   0.25142   0.72690   0.00000  Uiso   1.00
O1448  O     0.60864   0.25271   0.68959   0.00000  Uiso   1.00
O1449  O     0.62465   0.28942   0.75502   0.00000  Uiso   1.00
H1450  H     0.60846   0.31540   0.74120   0.00000  Uiso   1.00
C1451  C     0.63422   0.08497   0.71399   0.00000  Uiso   1.00
O1452  O     0.60047   0.08308   0.69534   0.00000  Uiso   1.00
O1453  O     0.66216   0.04966   0.70699   0.00000  Uiso   1.00
H1454  H     0.65051   0.02490   0.68678   0.00000  Uiso   1.00
C1455  C     0.37332   0.25233   0.77135   0.00000  Uiso   1.00
O1456  O     0.39053   0.25469   0.80842   0.00000  Uiso   1.00
O1457  O     0.37277   0.28974   0.74296   0.00000  Uiso   1.00
H1458  H     0.38837   0.31629   0.75642   0.00000  Uiso   1.00
C1459  C     0.54563   0.04811   0.81763   0.00000  Uiso   1.00
O1460  O     0.53371   0.05164   0.85624   0.00000  Uiso   1.00
O1461  O     0.58457   0.06341   0.80669   0.00000  Uiso   1.00
H1462  H     0.59956   0.07792   0.83331   0.00000  Uiso   1.00
C1463  C     0.46358   0.28591   0.67595   0.00000  Uiso   1.00
O1464  O     0.48071   0.28768   0.63975   0.00000  Uiso   1.00
O1465  O     0.42638   0.26343   0.67945   0.00000  Uiso   1.00
H1466  H     0.41615   0.25109   0.64944   0.00000  Uiso   1.00
C1467  C     0.45415   0.04799   0.68269   0.00000  Uiso   1.00
O1468  O     0.46608   0.05223   0.64423   0.00000  Uiso   1.00
O1469  O     0.41477   0.06242   0.69391   0.00000  Uiso   1.00
H1470  H     0.39941   0.07696   0.66765   0.00000  Uiso   1.00
C1471  C     0.53537   0.28656   0.82437   0.00000  Uiso   1.00
O1472  O     0.51445   0.28447   0.85795   0.00000  Uiso   1.00
O1473  O     0.57564   0.26999   0.82488   0.00000  Uiso   1.00
H1474  H     0.58491   0.25860   0.85557   0.00000  Uiso   1.00
O1475  O     0.77226   0.20487   0.74999   0.00000  Uiso   1.00
O1476  O     0.89441   0.12846   0.75000   0.00000  Uiso   1.00
O1477  O     0.89441   0.20487   0.75000   0.00000  Uiso   1.00
O1478  O     0.77226   0.12846   0.74999   0.00000  Uiso   1.00
C1479  C     0.75341   0.16686   0.75514   0.00000  Uiso   1.00
C1480  C     0.91325   0.16658   0.74482   0.00000  Uiso   1.00
O1481  O     0.83333   0.20489   0.68392   0.00000  Uiso   1.00
O1482  O     0.83334   0.12844   0.81607   0.00000  Uiso   1.00
O1483  O     0.83334   0.20489   0.81607   0.00000  Uiso   1.00
O1484  O     0.83333   0.12844   0.68392   0.00000  Uiso   1.00
C1485  C     0.83198   0.16651   0.66330   0.00000  Uiso   1.00
C1486  C     0.83460   0.16686   0.83676   0.00000  Uiso   1.00
Zn1487 Zn    0.83333   0.21771   0.75000   0.00000  Uiso   1.00
Zn1488 Zn    0.83333   0.11563   0.75000   0.00000  Uiso   1.00
C1489  C     0.87378   0.17477   0.90906   0.00000  Uiso   1.00
C1490  C     0.79351   0.17441   0.59098   0.00000  Uiso   1.00
C1491  C     0.83607   0.16861   0.88526   0.00000  Uiso   1.00
C1492  C     0.83091   0.16719   0.61490   0.00000  Uiso   1.00
C1493  C     0.79841   0.17029   0.90690   0.00000  Uiso   1.00
C1494  C     0.86868   0.16690   0.59353   0.00000  Uiso   1.00
C1495  C     0.79749   0.18507   0.95181   0.00000  Uiso   1.00
C1496  C     0.87030   0.18217   0.54899   0.00000  Uiso   1.00
C1497  C     0.83455   0.18650   0.97693   0.00000  Uiso   1.00
C1498  C     0.83331   0.18619   0.52393   0.00000  Uiso   1.00
C1499  C     0.87272   0.18518   0.95551   0.00000  Uiso   1.00
C1500  C     0.79502   0.18619   0.54521   0.00000  Uiso   1.00
C1501  C     0.76084   0.19840   0.97261   0.00000  Uiso   1.00
C1502  C     0.90744   0.19376   0.52852   0.00000  Uiso   1.00
C1503  C     0.75993   0.20032   0.51982   0.00000  Uiso   1.00
C1504  C     0.90800   0.19759   0.98128   0.00000  Uiso   1.00
C1505  C     0.68660   0.12646   0.76050   0.00000  Uiso   1.00
C1506  C     0.97905   0.20879   0.74235   0.00000  Uiso   1.00
C1507  C     0.98062   0.12604   0.74049   0.00000  Uiso   1.00
C1508  C     0.68707   0.20912   0.75665   0.00000  Uiso   1.00
C1509  C     0.95811   0.16701   0.73917   0.00000  Uiso   1.00
C1510  C     0.70856   0.16754   0.76082   0.00000  Uiso   1.00
C1511  C     0.85372   0.02414   0.78333   0.00000  Uiso   1.00
C1512  C     0.81493   0.30947   0.71531   0.00000  Uiso   1.00
C1513  C     0.81320   0.02402   0.71647   0.00000  Uiso   1.00
C1514  C     0.85194   0.30968   0.78447   0.00000  Uiso   1.00
N1515  N     0.83333   0.28573   0.75000   0.00000  Uiso   1.00
N1516  N     0.83333   0.04760   0.75000   0.00000  Uiso   1.00
C1517  C     0.91324   0.16156   0.88779   0.00000  Uiso   1.00
O1518  O     0.92060   0.17295   0.84935   0.00000  Uiso   1.00
O1519  O     0.94141   0.13434   0.91163   0.00000  Uiso   1.00
H1520  H     0.96664   0.12663   0.89358   0.00000  Uiso   1.00
C1521  C     0.75434   0.15845   0.61017   0.00000  Uiso   1.00
O1522  O     0.74535   0.16773   0.64891   0.00000  Uiso   1.00
O1523  O     0.72895   0.12996   0.58424   0.00000  Uiso   1.00
H1524  H     0.70438   0.11895   0.60138   0.00000  Uiso   1.00
O1525  O     0.76351   0.15413   0.88424   0.00000  Uiso   1.00
C1526  C     0.74964   0.11388   0.90477   0.00000  Uiso   1.00
H1527  H     0.71975   0.10487   0.88832   0.00000  Uiso   1.00
H1528  H     0.74292   0.11867   0.94102   0.00000  Uiso   1.00
C1529  C     0.77996   0.07416   0.89962   0.00000  Uiso   1.00
H1530  H     0.78899   0.07074   0.86400   0.00000  Uiso   1.00
H1531  H     0.80820   0.08042   0.92055   0.00000  Uiso   1.00
C1532  C     0.76107   0.02991   0.91459   0.00000  Uiso   1.00
H1533  H     0.75217   0.03226   0.95046   0.00000  Uiso   1.00
H1534  H     0.78390   0.00215   0.91105   0.00000  Uiso   1.00
H1535  H     0.73346   0.02181   0.89331   0.00000  Uiso   1.00
O1536  O     0.90303   0.14962   0.61652   0.00000  Uiso   1.00
C1537  C     0.91639   0.10869   0.59596   0.00000  Uiso   1.00
H1538  H     0.94692   0.09999   0.61122   0.00000  Uiso   1.00
H1539  H     0.92160   0.11214   0.55927   0.00000  Uiso   1.00
C1540  C     0.88652   0.06961   0.60337   0.00000  Uiso   1.00
H1541  H     0.87746   0.06885   0.63910   0.00000  Uiso   1.00
H1542  H     0.85829   0.07463   0.58204   0.00000  Uiso   1.00
C1543  C     0.90589   0.02421   0.59125   0.00000  Uiso   1.00
H1544  H     0.91546   0.02400   0.55562   0.00000  Uiso   1.00
H1545  H     0.88313   0.33029   0.59575   0.00000  Uiso   1.00
H1546  H     0.93313   0.01731   0.61353   0.00000  Uiso   1.00
C1547  C     0.72494   0.21317   0.94509   0.00000  Uiso   1.00
O1548  O     0.72806   0.24519   0.91969   0.00000  Uiso   1.00
O1549  O     0.68872   0.18842   0.94555   0.00000  Uiso   1.00
H1550  H     0.66974   0.19682   0.91932   0.00000  Uiso   1.00
C1551  C     0.94481   0.20275   0.55618   0.00000  Uiso   1.00
O1552  O     0.94334   0.22909   0.58805   0.00000  Uiso   1.00
O1553  O     0.98102   0.17944   0.54725   0.00000  Uiso   1.00
H1554  H     0.66843   0.18349   0.57285   0.00000  Uiso   1.00
O1555  O     0.72648   0.21955   0.54069   0.00000  Uiso   1.00
C1556  C     0.73506   0.26558   0.54912   0.00000  Uiso   1.00
H1557  H     0.73937   0.28378   0.51683   0.00000  Uiso   1.00
H1558  H     0.76341   0.26928   0.57061   0.00000  Uiso   1.00
C1559  C     0.69902   0.28739   0.57353   0.00000  Uiso   1.00
H1560  H     0.67148   0.28733   0.55093   0.00000  Uiso   1.00
H1561  H     0.69182   0.26768   0.60401   0.00000  Uiso   1.00
C1562  C     0.70839   0.00264   0.58731   0.00000  Uiso   1.00
H1563  H     0.73531   0.00359   0.61100   0.00000  Uiso   1.00
H1564  H     0.68145   0.01759   0.60440   0.00000  Uiso   1.00
H1565  H     0.71497   0.02314   0.55715   0.00000  Uiso   1.00
O1566  O     0.94132   0.21572   0.95979   0.00000  Uiso   1.00
C1567  C     0.94453   0.26291   0.96780   0.00000  Uiso   1.00
H1568  H     0.96982   0.27521   0.94665   0.00000  Uiso   1.00
H1569  H     0.95391   0.27021   0.50309   0.00000  Uiso   1.00
C1570  C     0.90501   0.28976   0.95612   0.00000  Uiso   1.00
H1571  H     0.89000   0.27510   0.92574   0.00000  Uiso   1.00
H1572  H     0.88324   0.28728   0.98435   0.00000  Uiso   1.00
C1573  C     0.91400   0.00607   0.94777   0.00000  Uiso   1.00
H1574  H     0.93165   0.02084   0.97671   0.00000  Uiso   1.00
H1575  H     0.88457   0.02498   0.94346   0.00000  Uiso   1.00
H1576  H     0.93204   0.00970   0.91667   0.00000  Uiso   1.00
C1577  C     0.70017   0.08638   0.78792   0.00000  Uiso   1.00
O1578  O     0.73438   0.08448   0.80553   0.00000  Uiso   1.00
O1579  O     0.67224   0.05206   0.79681   0.00000  Uiso   1.00
H1580  H     0.68437   0.02777   0.81712   0.00000  Uiso   1.00
C1581  C     0.95878   0.25142   0.72690   0.00000  Uiso   1.00
O1582  O     0.94197   0.25271   0.68959   0.00000  Uiso   1.00
O1583  O     0.95798   0.28942   0.75502   0.00000  Uiso   1.00
H1584  H     0.94179   0.31540   0.74120   0.00000  Uiso   1.00
C1585  C     0.96755   0.08497   0.71399   0.00000  Uiso   1.00
O1586  O     0.93380   0.08308   0.69534   0.00000  Uiso   1.00
O1587  O     0.99549   0.04966   0.70699   0.00000  Uiso   1.00
H1588  H     0.98384   0.02490   0.68678   0.00000  Uiso   1.00
C1589  C     0.70665   0.25233   0.77135   0.00000  Uiso   1.00
O1590  O     0.72386   0.25469   0.80842   0.00000  Uiso   1.00
O1591  O     0.70611   0.28974   0.74296   0.00000  Uiso   1.00
H1592  H     0.72170   0.31629   0.75642   0.00000  Uiso   1.00
C1593  C     0.87897   0.04811   0.81763   0.00000  Uiso   1.00
O1594  O     0.86704   0.05164   0.85624   0.00000  Uiso   1.00
O1595  O     0.91790   0.06341   0.80669   0.00000  Uiso   1.00
H1596  H     0.93289   0.07792   0.83331   0.00000  Uiso   1.00
C1597  C     0.79692   0.28591   0.67595   0.00000  Uiso   1.00
O1598  O     0.81404   0.28768   0.63975   0.00000  Uiso   1.00
O1599  O     0.75971   0.26343   0.67945   0.00000  Uiso   1.00
H1600  H     0.74948   0.25109   0.64944   0.00000  Uiso   1.00
C1601  C     0.78748   0.04799   0.68269   0.00000  Uiso   1.00
O1602  O     0.79941   0.05223   0.64423   0.00000  Uiso   1.00
O1603  O     0.74810   0.06242   0.69391   0.00000  Uiso   1.00
H1604  H     0.73274   0.07696   0.66765   0.00000  Uiso   1.00
C1605  C     0.86871   0.28656   0.82437   0.00000  Uiso   1.00
O1606  O     0.84778   0.28447   0.85795   0.00000  Uiso   1.00
O1607  O     0.90897   0.26999   0.82488   0.00000  Uiso   1.00
H1608  H     0.91825   0.25860   0.85557   0.00000  Uiso   1.00
O1609  O     0.10559   0.53821   0.74999   0.00000  Uiso   1.00
O1610  O     0.22774   0.46179   0.75000   0.00000  Uiso   1.00
O1611  O     0.22774   0.53821   0.75000   0.00000  Uiso   1.00
O1612  O     0.10559   0.46179   0.74999   0.00000  Uiso   1.00
C1613  C     0.08675   0.50019   0.75514   0.00000  Uiso   1.00
C1614  C     0.24659   0.49991   0.74482   0.00000  Uiso   1.00
O1615  O     0.16666   0.53823   0.68392   0.00000  Uiso   1.00
O1616  O     0.16667   0.46177   0.81607   0.00000  Uiso   1.00
O1617  O     0.16667   0.53823   0.81607   0.00000  Uiso   1.00
O1618  O     0.16666   0.46177   0.68392   0.00000  Uiso   1.00
C1619  C     0.16532   0.49984   0.66330   0.00000  Uiso   1.00
C1620  C     0.16793   0.50020   0.83676   0.00000  Uiso   1.00
Zn1621 Zn    0.16667   0.55104   0.75000   0.00000  Uiso   1.00
Zn1622 Zn    0.16667   0.44896   0.75000   0.00000  Uiso   1.00
C1623  C     0.20712   0.50810   0.90906   0.00000  Uiso   1.00
C1624  C     0.12684   0.50774   0.59098   0.00000  Uiso   1.00
C1625  C     0.16940   0.50195   0.88526   0.00000  Uiso   1.00
C1626  C     0.16425   0.50052   0.61490   0.00000  Uiso   1.00
C1627  C     0.13175   0.50362   0.90690   0.00000  Uiso   1.00
C1628  C     0.20201   0.50024   0.59353   0.00000  Uiso   1.00
C1629  C     0.13083   0.51840   0.95181   0.00000  Uiso   1.00
C1630  C     0.20363   0.51550   0.54899   0.00000  Uiso   1.00
C1631  C     0.16788   0.51984   0.97693   0.00000  Uiso   1.00
C1632  C     0.16664   0.51953   0.52393   0.00000  Uiso   1.00
C1633  C     0.20605   0.51851   0.95551   0.00000  Uiso   1.00
C1634  C     0.12835   0.51952   0.54521   0.00000  Uiso   1.00
C1635  C     0.09417   0.53173   0.97261   0.00000  Uiso   1.00
C1636  C     0.24077   0.52710   0.52852   0.00000  Uiso   1.00
C1637  C     0.09326   0.53365   0.51982   0.00000  Uiso   1.00
C1638  C     0.24133   0.53092   0.98128   0.00000  Uiso   1.00
C1639  C     0.01994   0.45980   0.76050   0.00000  Uiso   1.00
C1640  C     0.31239   0.54212   0.74235   0.00000  Uiso   1.00
C1641  C     0.31395   0.45937   0.74049   0.00000  Uiso   1.00
C1642  C     0.02040   0.54246   0.75665   0.00000  Uiso   1.00
C1643  C     0.29145   0.50034   0.73917   0.00000  Uiso   1.00
C1644  C     0.04190   0.50088   0.76082   0.00000  Uiso   1.00
C1645  C     0.18705   0.35747   0.78333   0.00000  Uiso   1.00
C1646  C     0.14826   0.64280   0.71531   0.00000  Uiso   1.00
C1647  C     0.14654   0.35735   0.71647   0.00000  Uiso   1.00
C1648  C     0.18527   0.64301   0.78447   0.00000  Uiso   1.00
N1649  N     0.16667   0.61907   0.75000   0.00000  Uiso   1.00
N1650  N     0.16667   0.38093   0.75000   0.00000  Uiso   1.00
C1651  C     0.24657   0.49490   0.88779   0.00000  Uiso   1.00
O1652  O     0.25393   0.50628   0.84935   0.00000  Uiso   1.00
O1653  O     0.27474   0.46768   0.91163   0.00000  Uiso   1.00
H1654  H     0.29997   0.45996   0.89358   0.00000  Uiso   1.00
C1655  C     0.08767   0.49178   0.61017   0.00000  Uiso   1.00
O1656  O     0.07869   0.50107   0.64891   0.00000  Uiso   1.00
O1657  O     0.06228   0.46330   0.58424   0.00000  Uiso   1.00
H1658  H     0.03772   0.45228   0.60138   0.00000  Uiso   1.00
O1659  O     0.09684   0.48747   0.88424   0.00000  Uiso   1.00
C1660  C     0.08297   0.44721   0.90477   0.00000  Uiso   1.00
H1661  H     0.05308   0.43820   0.88832   0.00000  Uiso   1.00
H1662  H     0.07625   0.45201   0.94102   0.00000  Uiso   1.00
C1663  C     0.11330   0.40749   0.89962   0.00000  Uiso   1.00
H1664  H     0.12232   0.40407   0.86400   0.00000  Uiso   1.00
H1665  H     0.14153   0.41376   0.92055   0.00000  Uiso   1.00
C1666  C     0.09440   0.36324   0.91459   0.00000  Uiso   1.00
H1667  H     0.08551   0.36559   0.95046   0.00000  Uiso   1.00
H1668  H     0.11724   0.33548   0.91105   0.00000  Uiso   1.00
H1669  H     0.06680   0.35515   0.89331   0.00000  Uiso   1.00
O1670  O     0.23636   0.48296   0.61652   0.00000  Uiso   1.00
C1671  C     0.24972   0.44203   0.59596   0.00000  Uiso   1.00
H1672  H     0.28026   0.43332   0.61122   0.00000  Uiso   1.00
H1673  H     0.25493   0.44547   0.55927   0.00000  Uiso   1.00
C1674  C     0.21985   0.40294   0.60337   0.00000  Uiso   1.00
H1675  H     0.21080   0.40218   0.63910   0.00000  Uiso   1.00
H1676  H     0.19163   0.40797   0.58204   0.00000  Uiso   1.00
C1677  C     0.23922   0.35754   0.59125   0.00000  Uiso   1.00
H1678  H     0.24880   0.35733   0.55562   0.00000  Uiso   1.00
H1679  H     0.21646   0.66362   0.59575   0.00000  Uiso   1.00
H1680  H     0.26647   0.35064   0.61353   0.00000  Uiso   1.00
C1681  C     0.05827   0.54651   0.94509   0.00000  Uiso   1.00
O1682  O     0.06140   0.57852   0.91969   0.00000  Uiso   1.00
O1683  O     0.02205   0.52175   0.94555   0.00000  Uiso   1.00
H1684  H     0.00307   0.53016   0.91932   0.00000  Uiso   1.00
C1685  C     0.27814   0.53609   0.55618   0.00000  Uiso   1.00
O1686  O     0.27667   0.56242   0.58805   0.00000  Uiso   1.00
O1687  O     0.31436   0.51277   0.54725   0.00000  Uiso   1.00
H1688  H     0.00176   0.51683   0.57285   0.00000  Uiso   1.00
O1689  O     0.05981   0.55288   0.54069   0.00000  Uiso   1.00
C1690  C     0.06839   0.59891   0.54912   0.00000  Uiso   1.00
H1691  H     0.07270   0.61712   0.51683   0.00000  Uiso   1.00
H1692  H     0.09675   0.60261   0.57061   0.00000  Uiso   1.00
C1693  C     0.03235   0.62072   0.57353   0.00000  Uiso   1.00
H1694  H     0.00481   0.62066   0.55093   0.00000  Uiso   1.00
H1695  H     0.02516   0.60101   0.60401   0.00000  Uiso   1.00
C1696  C     0.04172   0.33597   0.58731   0.00000  Uiso   1.00
H1697  H     0.06864   0.33693   0.61100   0.00000  Uiso   1.00
H1698  H     0.01478   0.35093   0.60440   0.00000  Uiso   1.00
H1699  H     0.04830   0.35647   0.55715   0.00000  Uiso   1.00
O1700  O     0.27466   0.54905   0.95979   0.00000  Uiso   1.00
C1701  C     0.27786   0.59625   0.96780   0.00000  Uiso   1.00
H1702  H     0.30315   0.60854   0.94665   0.00000  Uiso   1.00
H1703  H     0.28724   0.60355   0.50309   0.00000  Uiso   1.00
C1704  C     0.23834   0.62309   0.95612   0.00000  Uiso   1.00
H1705  H     0.22334   0.60844   0.92574   0.00000  Uiso   1.00
H1706  H     0.21658   0.62061   0.98435   0.00000  Uiso   1.00
C1707  C     0.24733   0.33941   0.94777   0.00000  Uiso   1.00
H1708  H     0.26499   0.35417   0.97671   0.00000  Uiso   1.00
H1709  H     0.21791   0.35831   0.94346   0.00000  Uiso   1.00
H1710  H     0.26537   0.34303   0.91667   0.00000  Uiso   1.00
C1711  C     0.03351   0.41972   0.78792   0.00000  Uiso   1.00
O1712  O     0.06772   0.41781   0.80553   0.00000  Uiso   1.00
O1713  O     0.00558   0.38539   0.79681   0.00000  Uiso   1.00
H1714  H     0.01770   0.36111   0.81712   0.00000  Uiso   1.00
C1715  C     0.29211   0.58476   0.72690   0.00000  Uiso   1.00
O1716  O     0.27531   0.58604   0.68959   0.00000  Uiso   1.00
O1717  O     0.29131   0.62275   0.75502   0.00000  Uiso   1.00
H1718  H     0.27512   0.64873   0.74120   0.00000  Uiso   1.00
C1719  C     0.30089   0.41831   0.71399   0.00000  Uiso   1.00
O1720  O     0.26714   0.41641   0.69534   0.00000  Uiso   1.00
O1721  O     0.32882   0.38299   0.70699   0.00000  Uiso   1.00
H1722  H     0.31717   0.35824   0.68678   0.00000  Uiso   1.00
C1723  C     0.03998   0.58566   0.77135   0.00000  Uiso   1.00
O1724  O     0.05719   0.58803   0.80842   0.00000  Uiso   1.00
O1725  O     0.03944   0.62307   0.74296   0.00000  Uiso   1.00
H1726  H     0.05504   0.64963   0.75642   0.00000  Uiso   1.00
C1727  C     0.21230   0.38145   0.81763   0.00000  Uiso   1.00
O1728  O     0.20037   0.38497   0.85624   0.00000  Uiso   1.00
O1729  O     0.25124   0.39675   0.80669   0.00000  Uiso   1.00
H1730  H     0.26623   0.41125   0.83331   0.00000  Uiso   1.00
C1731  C     0.13025   0.61924   0.67595   0.00000  Uiso   1.00
O1732  O     0.14738   0.62101   0.63975   0.00000  Uiso   1.00
O1733  O     0.09304   0.59676   0.67945   0.00000  Uiso   1.00
H1734  H     0.08282   0.58443   0.64944   0.00000  Uiso   1.00
C1735  C     0.12081   0.38133   0.68269   0.00000  Uiso   1.00
O1736  O     0.13274   0.38556   0.64423   0.00000  Uiso   1.00
O1737  O     0.08143   0.39575   0.69391   0.00000  Uiso   1.00
H1738  H     0.06607   0.41029   0.66765   0.00000  Uiso   1.00
C1739  C     0.20204   0.61989   0.82437   0.00000  Uiso   1.00
O1740  O     0.18111   0.61781   0.85795   0.00000  Uiso   1.00
O1741  O     0.24230   0.60333   0.82488   0.00000  Uiso   1.00
H1742  H     0.25158   0.59194   0.85557   0.00000  Uiso   1.00
O1743  O     0.43892   0.53821   0.74999   0.00000  Uiso   1.00
O1744  O     0.56108   0.46179   0.75000   0.00000  Uiso   1.00
O1745  O     0.56108   0.53821   0.75000   0.00000  Uiso   1.00
O1746  O     0.43892   0.46179   0.74999   0.00000  Uiso   1.00
C1747  C     0.42008   0.50019   0.75514   0.00000  Uiso   1.00
C1748  C     0.57992   0.49991   0.74482   0.00000  Uiso   1.00
O1749  O     0.49999   0.53823   0.68392   0.00000  Uiso   1.00
O1750  O     0.50001   0.46177   0.81607   0.00000  Uiso   1.00
O1751  O     0.50001   0.53823   0.81607   0.00000  Uiso   1.00
O1752  O     0.49999   0.46177   0.68392   0.00000  Uiso   1.00
C1753  C     0.49865   0.49984   0.66330   0.00000  Uiso   1.00
C1754  C     0.50126   0.50020   0.83676   0.00000  Uiso   1.00
Zn1755 Zn    0.50000   0.55104   0.75000   0.00000  Uiso   1.00
Zn1756 Zn    0.50000   0.44896   0.75000   0.00000  Uiso   1.00
C1757  C     0.54045   0.50810   0.90906   0.00000  Uiso   1.00
C1758  C     0.46018   0.50774   0.59098   0.00000  Uiso   1.00
C1759  C     0.50273   0.50195   0.88526   0.00000  Uiso   1.00
C1760  C     0.49758   0.50052   0.61490   0.00000  Uiso   1.00
C1761  C     0.46508   0.50362   0.90690   0.00000  Uiso   1.00
C1762  C     0.53535   0.50024   0.59353   0.00000  Uiso   1.00
C1763  C     0.46416   0.51840   0.95181   0.00000  Uiso   1.00
C1764  C     0.53697   0.51550   0.54899   0.00000  Uiso   1.00
C1765  C     0.50121   0.51984   0.97693   0.00000  Uiso   1.00
C1766  C     0.49998   0.51953   0.52393   0.00000  Uiso   1.00
C1767  C     0.53939   0.51851   0.95551   0.00000  Uiso   1.00
C1768  C     0.46168   0.51952   0.54521   0.00000  Uiso   1.00
C1769  C     0.42751   0.53173   0.97261   0.00000  Uiso   1.00
C1770  C     0.57411   0.52710   0.52852   0.00000  Uiso   1.00
C1771  C     0.42660   0.53365   0.51982   0.00000  Uiso   1.00
C1772  C     0.57466   0.53092   0.98128   0.00000  Uiso   1.00
C1773  C     0.35327   0.45980   0.76050   0.00000  Uiso   1.00
C1774  C     0.64572   0.54212   0.74235   0.00000  Uiso   1.00
C1775  C     0.64728   0.45937   0.74049   0.00000  Uiso   1.00
C1776  C     0.35374   0.54246   0.75665   0.00000  Uiso   1.00
C1777  C     0.62478   0.50034   0.73917   0.00000  Uiso   1.00
C1778  C     0.37523   0.50088   0.76082   0.00000  Uiso   1.00
C1779  C     0.52038   0.35747   0.78333   0.00000  Uiso   1.00
C1780  C     0.48159   0.64280   0.71531   0.00000  Uiso   1.00
C1781  C     0.47987   0.35735   0.71647   0.00000  Uiso   1.00
C1782  C     0.51860   0.64301   0.78447   0.00000  Uiso   1.00
N1783  N     0.50000   0.61907   0.75000   0.00000  Uiso   1.00
N1784  N     0.50000   0.38093   0.75000   0.00000  Uiso   1.00
C1785  C     0.57990   0.49490   0.88779   0.00000  Uiso   1.00
O1786  O     0.58727   0.50628   0.84935   0.00000  Uiso   1.00
O1787  O     0.60807   0.46768   0.91163   0.00000  Uiso   1.00
H1788  H     0.63330   0.45996   0.89358   0.00000  Uiso   1.00
C1789  C     0.42100   0.49178   0.61017   0.00000  Uiso   1.00
O1790  O     0.41202   0.50107   0.64891   0.00000  Uiso   1.00
O1791  O     0.39562   0.46330   0.58424   0.00000  Uiso   1.00
H1792  H     0.37105   0.45228   0.60138   0.00000  Uiso   1.00
O1793  O     0.43018   0.48747   0.88424   0.00000  Uiso   1.00
C1794  C     0.41631   0.44721   0.90477   0.00000  Uiso   1.00
H1795  H     0.38642   0.43820   0.88832   0.00000  Uiso   1.00
H1796  H     0.40959   0.45201   0.94102   0.00000  Uiso   1.00
C1797  C     0.44663   0.40749   0.89962   0.00000  Uiso   1.00
H1798  H     0.45566   0.40407   0.86400   0.00000  Uiso   1.00
H1799  H     0.47487   0.41376   0.92055   0.00000  Uiso   1.00
C1800  C     0.42773   0.36324   0.91459   0.00000  Uiso   1.00
H1801  H     0.41884   0.36559   0.95046   0.00000  Uiso   1.00
H1802  H     0.45057   0.33548   0.91105   0.00000  Uiso   1.00
H1803  H     0.40013   0.35515   0.89331   0.00000  Uiso   1.00
O1804  O     0.56969   0.48296   0.61652   0.00000  Uiso   1.00
C1805  C     0.58305   0.44203   0.59596   0.00000  Uiso   1.00
H1806  H     0.61359   0.43332   0.61122   0.00000  Uiso   1.00
H1807  H     0.58826   0.44547   0.55927   0.00000  Uiso   1.00
C1808  C     0.55318   0.40294   0.60337   0.00000  Uiso   1.00
H1809  H     0.54413   0.40218   0.63910   0.00000  Uiso   1.00
H1810  H     0.52496   0.40797   0.58204   0.00000  Uiso   1.00
C1811  C     0.57255   0.35754   0.59125   0.00000  Uiso   1.00
H1812  H     0.58213   0.35733   0.55562   0.00000  Uiso   1.00
H1813  H     0.54980   0.66362   0.59575   0.00000  Uiso   1.00
H1814  H     0.59980   0.35064   0.61353   0.00000  Uiso   1.00
C1815  C     0.39160   0.54651   0.94509   0.00000  Uiso   1.00
O1816  O     0.39473   0.57852   0.91969   0.00000  Uiso   1.00
O1817  O     0.35539   0.52175   0.94555   0.00000  Uiso   1.00
H1818  H     0.33640   0.53016   0.91932   0.00000  Uiso   1.00
C1819  C     0.61147   0.53609   0.55618   0.00000  Uiso   1.00
O1820  O     0.61001   0.56242   0.58805   0.00000  Uiso   1.00
O1821  O     0.64769   0.51277   0.54725   0.00000  Uiso   1.00
H1822  H     0.33510   0.51683   0.57285   0.00000  Uiso   1.00
O1823  O     0.39315   0.55288   0.54069   0.00000  Uiso   1.00
C1824  C     0.40173   0.59891   0.54912   0.00000  Uiso   1.00
H1825  H     0.40603   0.61712   0.51683   0.00000  Uiso   1.00
H1826  H     0.43008   0.60261   0.57061   0.00000  Uiso   1.00
C1827  C     0.36569   0.62072   0.57353   0.00000  Uiso   1.00
H1828  H     0.33814   0.62066   0.55093   0.00000  Uiso   1.00
H1829  H     0.35849   0.60101   0.60401   0.00000  Uiso   1.00
C1830  C     0.37506   0.33597   0.58731   0.00000  Uiso   1.00
H1831  H     0.40197   0.33693   0.61100   0.00000  Uiso   1.00
H1832  H     0.34812   0.35093   0.60440   0.00000  Uiso   1.00
H1833  H     0.38164   0.35647   0.55715   0.00000  Uiso   1.00
O1834  O     0.60799   0.54905   0.95979   0.00000  Uiso   1.00
C1835  C     0.61119   0.59625   0.96780   0.00000  Uiso   1.00
H1836  H     0.63649   0.60854   0.94665   0.00000  Uiso   1.00
H1837  H     0.62058   0.60355   0.50309   0.00000  Uiso   1.00
C1838  C     0.57167   0.62309   0.95612   0.00000  Uiso   1.00
H1839  H     0.55667   0.60844   0.92574   0.00000  Uiso   1.00
H1840  H     0.54991   0.62061   0.98435   0.00000  Uiso   1.00
C1841  C     0.58066   0.33941   0.94777   0.00000  Uiso   1.00
H1842  H     0.59832   0.35417   0.97671   0.00000  Uiso   1.00
H1843  H     0.55124   0.35831   0.94346   0.00000  Uiso   1.00
H1844  H     0.59870   0.34303   0.91667   0.00000  Uiso   1.00
C1845  C     0.36684   0.41972   0.78792   0.00000  Uiso   1.00
O1846  O     0.40105   0.41781   0.80553   0.00000  Uiso   1.00
O1847  O     0.33891   0.38539   0.79681   0.00000  Uiso   1.00
H1848  H     0.35104   0.36111   0.81712   0.00000  Uiso   1.00
C1849  C     0.62545   0.58476   0.72690   0.00000  Uiso   1.00
O1850  O     0.60864   0.58604   0.68959   0.00000  Uiso   1.00
O1851  O     0.62465   0.62275   0.75502   0.00000  Uiso   1.00
H1852  H     0.60846   0.64873   0.74120   0.00000  Uiso   1.00
C1853  C     0.63422   0.41831   0.71399   0.00000  Uiso   1.00
O1854  O     0.60047   0.41641   0.69534   0.00000  Uiso   1.00
O1855  O     0.66216   0.38299   0.70699   0.00000  Uiso   1.00
H1856  H     0.65051   0.35824   0.68678   0.00000  Uiso   1.00
C1857  C     0.37332   0.58566   0.77135   0.00000  Uiso   1.00
O1858  O     0.39053   0.58803   0.80842   0.00000  Uiso   1.00
O1859  O     0.37277   0.62307   0.74296   0.00000  Uiso   1.00
H1860  H     0.38837   0.64963   0.75642   0.00000  Uiso   1.00
C1861  C     0.54563   0.38145   0.81763   0.00000  Uiso   1.00
O1862  O     0.53371   0.38497   0.85624   0.00000  Uiso   1.00
O1863  O     0.58457   0.39675   0.80669   0.00000  Uiso   1.00
H1864  H     0.59956   0.41125   0.83331   0.00000  Uiso   1.00
C1865  C     0.46358   0.61924   0.67595   0.00000  Uiso   1.00
O1866  O     0.48071   0.62101   0.63975   0.00000  Uiso   1.00
O1867  O     0.42638   0.59676   0.67945   0.00000  Uiso   1.00
H1868  H     0.41615   0.58443   0.64944   0.00000  Uiso   1.00
C1869  C     0.45415   0.38133   0.68269   0.00000  Uiso   1.00
O1870  O     0.46608   0.38556   0.64423   0.00000  Uiso   1.00
O1871  O     0.41477   0.39575   0.69391   0.00000  Uiso   1.00
H1872  H     0.39941   0.41029   0.66765   0.00000  Uiso   1.00
C1873  C     0.53537   0.61989   0.82437   0.00000  Uiso   1.00
O1874  O     0.51445   0.61781   0.85795   0.00000  Uiso   1.00
O1875  O     0.57564   0.60333   0.82488   0.00000  Uiso   1.00
H1876  H     0.58491   0.59194   0.85557   0.00000  Uiso   1.00
O1877  O     0.77226   0.53821   0.74999   0.00000  Uiso   1.00
O1878  O     0.89441   0.46179   0.75000   0.00000  Uiso   1.00
O1879  O     0.89441   0.53821   0.75000   0.00000  Uiso   1.00
O1880  O     0.77226   0.46179   0.74999   0.00000  Uiso   1.00
C1881  C     0.75341   0.50019   0.75514   0.00000  Uiso   1.00
C1882  C     0.91325   0.49991   0.74482   0.00000  Uiso   1.00
O1883  O     0.83333   0.53823   0.68392   0.00000  Uiso   1.00
O1884  O     0.83334   0.46177   0.81607   0.00000  Uiso   1.00
O1885  O     0.83334   0.53823   0.81607   0.00000  Uiso   1.00
O1886  O     0.83333   0.46177   0.68392   0.00000  Uiso   1.00
C1887  C     0.83198   0.49984   0.66330   0.00000  Uiso   1.00
C1888  C     0.83460   0.50020   0.83676   0.00000  Uiso   1.00
Zn1889 Zn    0.83333   0.55104   0.75000   0.00000  Uiso   1.00
Zn1890 Zn    0.83333   0.44896   0.75000   0.00000  Uiso   1.00
C1891  C     0.87378   0.50810   0.90906   0.00000  Uiso   1.00
C1892  C     0.79351   0.50774   0.59098   0.00000  Uiso   1.00
C1893  C     0.83607   0.50195   0.88526   0.00000  Uiso   1.00
C1894  C     0.83091   0.50052   0.61490   0.00000  Uiso   1.00
C1895  C     0.79841   0.50362   0.90690   0.00000  Uiso   1.00
C1896  C     0.86868   0.50024   0.59353   0.00000  Uiso   1.00
C1897  C     0.79749   0.51840   0.95181   0.00000  Uiso   1.00
C1898  C     0.87030   0.51550   0.54899   0.00000  Uiso   1.00
C1899  C     0.83455   0.51984   0.97693   0.00000  Uiso   1.00
C1900  C     0.83331   0.51953   0.52393   0.00000  Uiso   1.00
C1901  C     0.87272   0.51851   0.95551   0.00000  Uiso   1.00
C1902  C     0.79502   0.51952   0.54521   0.00000  Uiso   1.00
C1903  C     0.76084   0.53173   0.97261   0.00000  Uiso   1.00
C1904  C     0.90744   0.52710   0.52852   0.00000  Uiso   1.00
C1905  C     0.75993   0.53365   0.51982   0.00000  Uiso   1.00
C1906  C     0.90800   0.53092   0.98128   0.00000  Uiso   1.00
C1907  C     0.68660   0.45980   0.76050   0.00000  Uiso   1.00
C1908  C     0.97905   0.54212   0.74235   0.00000  Uiso   1.00
C1909  C     0.98062   0.45937   0.74049   0.00000  Uiso   1.00
C1910  C     0.68707   0.54246   0.75665   0.00000  Uiso   1.00
C1911  C     0.95811   0.50034   0.73917   0.00000  Uiso   1.00
C1912  C     0.70856   0.50088   0.76082   0.00000  Uiso   1.00
C1913  C     0.85372   0.35747   0.78333   0.00000  Uiso   1.00
C1914  C     0.81493   0.64280   0.71531   0.00000  Uiso   1.00
C1915  C     0.81320   0.35735   0.71647   0.00000  Uiso   1.00
C1916  C     0.85194   0.64301   0.78447   0.00000  Uiso   1.00
N1917  N     0.83333   0.61907   0.75000   0.00000  Uiso   1.00
N1918  N     0.83333   0.38093   0.75000   0.00000  Uiso   1.00
C1919  C     0.91324   0.49490   0.88779   0.00000  Uiso   1.00
O1920  O     0.92060   0.50628   0.84935   0.00000  Uiso   1.00
O1921  O     0.94141   0.46768   0.91163   0.00000  Uiso   1.00
H1922  H     0.96664   0.45996   0.89358   0.00000  Uiso   1.00
C1923  C     0.75434   0.49178   0.61017   0.00000  Uiso   1.00
O1924  O     0.74535   0.50107   0.64891   0.00000  Uiso   1.00
O1925  O     0.72895   0.46330   0.58424   0.00000  Uiso   1.00
H1926  H     0.70438   0.45228   0.60138   0.00000  Uiso   1.00
O1927  O     0.76351   0.48747   0.88424   0.00000  Uiso   1.00
C1928  C     0.74964   0.44721   0.90477   0.00000  Uiso   1.00
H1929  H     0.71975   0.43820   0.88832   0.00000  Uiso   1.00
H1930  H     0.74292   0.45201   0.94102   0.00000  Uiso   1.00
C1931  C     0.77996   0.40749   0.89962   0.00000  Uiso   1.00
H1932  H     0.78899   0.40407   0.86400   0.00000  Uiso   1.00
H1933  H     0.80820   0.41376   0.92055   0.00000  Uiso   1.00
C1934  C     0.76107   0.36324   0.91459   0.00000  Uiso   1.00
H1935  H     0.75217   0.36559   0.95046   0.00000  Uiso   1.00
H1936  H     0.78390   0.33548   0.91105   0.00000  Uiso   1.00
H1937  H     0.73346   0.35515   0.89331   0.00000  Uiso   1.00
O1938  O     0.90303   0.48296   0.61652   0.00000  Uiso   1.00
C1939  C     0.91639   0.44203   0.59596   0.00000  Uiso   1.00
H1940  H     0.94692   0.43332   0.61122   0.00000  Uiso   1.00
H1941  H     0.92160   0.44547   0.55927   0.00000  Uiso   1.00
C1942  C     0.88652   0.40294   0.60337   0.00000  Uiso   1.00
H1943  H     0.87746   0.40218   0.63910   0.00000  Uiso   1.00
H1944  H     0.85829   0.40797   0.58204   0.00000  Uiso   1.00
C1945  C     0.90589   0.35754   0.59125   0.00000  Uiso   1.00
H1946  H     0.91546   0.35733   0.55562   0.00000  Uiso   1.00
H1947  H     0.88313   0.66362   0.59575   0.00000  Uiso   1.00
H1948  H     0.93313   0.35064   0.61353   0.00000  Uiso   1.00
C1949  C     0.72494   0.54651   0.94509   0.00000  Uiso   1.00
O1950  O     0.72806   0.57852   0.91969   0.00000  Uiso   1.00
O1951  O     0.68872   0.52175   0.94555   0.00000  Uiso   1.00
H1952  H     0.66974   0.53016   0.91932   0.00000  Uiso   1.00
C1953  C     0.94481   0.53609   0.55618   0.00000  Uiso   1.00
O1954  O     0.94334   0.56242   0.58805   0.00000  Uiso   1.00
O1955  O     0.98102   0.51277   0.54725   0.00000  Uiso   1.00
H1956  H     0.66843   0.51683   0.57285   0.00000  Uiso   1.00
O1957  O     0.72648   0.55288   0.54069   0.00000  Uiso   1.00
C1958  C     0.73506   0.59891   0.54912   0.00000  Uiso   1.00
H1959  H     0.73937   0.61712   0.51683   0.00000  Uiso   1.00
H1960  H     0.76341   0.60261   0.57061   0.00000  Uiso   1.00
C1961  C     0.69902   0.62072   0.57353   0.00000  Uiso   1.00
H1962  H     0.67148   0.62066   0.55093   0.00000  Uiso   1.00
H1963  H     0.69182   0.60101   0.60401   0.00000  Uiso   1.00
C1964  C     0.70839   0.33597   0.58731   0.00000  Uiso   1.00
H1965  H     0.73531   0.33693   0.61100   0.00000  Uiso   1.00
H1966  H     0.68145   0.35093   0.60440   0.00000  Uiso   1.00
H1967  H     0.71497   0.35647   0.55715   0.00000  Uiso   1.00
O1968  O     0.94132   0.54905   0.95979   0.00000  Uiso   1.00
C1969  C     0.94453   0.59625   0.96780   0.00000  Uiso   1.00
H1970  H     0.96982   0.60854   0.94665   0.00000  Uiso   1.00
H1971  H     0.95391   0.60355   0.50309   0.00000  Uiso   1.00
C1972  C     0.90501   0.62309   0.95612   0.00000  Uiso   1.00
H1973  H     0.89000   0.60844   0.92574   0.00000  Uiso   1.00
H1974  H     0.88324   0.62061   0.98435   0.00000  Uiso   1.00
C1975  C     0.91400   0.33941   0.94777   0.00000  Uiso   1.00
H1976  H     0.93165   0.35417   0.97671   0.00000  Uiso   1.00
H1977  H     0.88457   0.35831   0.94346   0.00000  Uiso   1.00
H1978  H     0.93204   0.34303   0.91667   0.00000  Uiso   1.00
C1979  C     0.70017   0.41972   0.78792   0.00000  Uiso   1.00
O1980  O     0.73438   0.41781   0.80553   0.00000  Uiso   1.00
O1981  O     0.67224   0.38539   0.79681   0.00000  Uiso   1.00
H1982  H     0.68437   0.36111   0.81712   0.00000  Uiso   1.00
C1983  C     0.95878   0.58476   0.72690   0.00000  Uiso   1.00
O1984  O     0.94197   0.58604   0.68959   0.00000  Uiso   1.00
O1985  O     0.95798   0.62275   0.75502   0.00000  Uiso   1.00
H1986  H     0.94179   0.64873   0.74120   0.00000  Uiso   1.00
C1987  C     0.96755   0.41831   0.71399   0.00000  Uiso   1.00
O1988  O     0.93380   0.41641   0.69534   0.00000  Uiso   1.00
O1989  O     0.99549   0.38299   0.70699   0.00000  Uiso   1.00
H1990  H     0.98384   0.35824   0.68678   0.00000  Uiso   1.00
C1991  C     0.70665   0.58566   0.77135   0.00000  Uiso   1.00
O1992  O     0.72386   0.58803   0.80842   0.00000  Uiso   1.00
O1993  O     0.70611   0.62307   0.74296   0.00000  Uiso   1.00
H1994  H     0.72170   0.64963   0.75642   0.00000  Uiso   1.00
C1995  C     0.87897   0.38145   0.81763   0.00000  Uiso   1.00
O1996  O     0.86704   0.38497   0.85624   0.00000  Uiso   1.00
O1997  O     0.91790   0.39675   0.80669   0.00000  Uiso   1.00
H1998  H     0.93289   0.41125   0.83331   0.00000  Uiso   1.00
C1999  C     0.79692   0.61924   0.67595   0.00000  Uiso   1.00
O2000  O     0.81404   0.62101   0.63975   0.00000  Uiso   1.00
O2001  O     0.75971   0.59676   0.67945   0.00000  Uiso   1.00
H2002  H     0.74948   0.58443   0.64944   0.00000  Uiso   1.00
C2003  C     0.78748   0.38133   0.68269   0.00000  Uiso   1.00
O2004  O     0.79941   0.38556   0.64423   0.00000  Uiso   1.00
O2005  O     0.74810   0.39575   0.69391   0.00000  Uiso   1.00
H2006  H     0.73274   0.41029   0.66765   0.00000  Uiso   1.00
C2007  C     0.86871   0.61989   0.82437   0.00000  Uiso   1.00
O2008  O     0.84778   0.61781   0.85795   0.00000  Uiso   1.00
O2009  O     0.90897   0.60333   0.82488   0.00000  Uiso   1.00
H2010  H     0.91825   0.59194   0.85557   0.00000  Uiso   1.00
O2011  O     0.10559   0.87154   0.74999   0.00000  Uiso   1.00
O2012  O     0.22774   0.79513   0.75000   0.00000  Uiso   1.00
O2013  O     0.22774   0.87154   0.75000   0.00000  Uiso   1.00
O2014  O     0.10559   0.79513   0.74999   0.00000  Uiso   1.00
C2015  C     0.08675   0.83353   0.75514   0.00000  Uiso   1.00
C2016  C     0.24659   0.83325   0.74482   0.00000  Uiso   1.00
O2017  O     0.16666   0.87156   0.68392   0.00000  Uiso   1.00
O2018  O     0.16667   0.79511   0.81607   0.00000  Uiso   1.00
O2019  O     0.16667   0.87156   0.81607   0.00000  Uiso   1.00
O2020  O     0.16666   0.79511   0.68392   0.00000  Uiso   1.00
C2021  C     0.16532   0.83318   0.66330   0.00000  Uiso   1.00
C2022  C     0.16793   0.83353   0.83676   0.00000  Uiso   1.00
Zn2023 Zn    0.16667   0.88437   0.75000   0.00000  Uiso   1.00
Zn2024 Zn    0.16667   0.78229   0.75000   0.00000  Uiso   1.00
C2025  C     0.20712   0.84143   0.90906   0.00000  Uiso   1.00
C2026  C     0.12684   0.84108   0.59098   0.00000  Uiso   1.00
C2027  C     0.16940   0.83528   0.88526   0.00000  Uiso   1.00
C2028  C     0.16425   0.83386   0.61490   0.00000  Uiso   1.00
C2029  C     0.13175   0.83696   0.90690   0.00000  Uiso   1.00
C2030  C     0.20201   0.83357   0.59353   0.00000  Uiso   1.00
C2031  C     0.13083   0.85174   0.95181   0.00000  Uiso   1.00
C2032  C     0.20363   0.84883   0.54899   0.00000  Uiso   1.00
C2033  C     0.16788   0.85317   0.97693   0.00000  Uiso   1.00
C2034  C     0.16664   0.85286   0.52393   0.00000  Uiso   1.00
C2035  C     0.20605   0.85185   0.95551   0.00000  Uiso   1.00
C2036  C     0.12835   0.85286   0.54521   0.00000  Uiso   1.00
C2037  C     0.09417   0.86507   0.97261   0.00000  Uiso   1.00
C2038  C     0.24077   0.86043   0.52852   0.00000  Uiso   1.00
C2039  C     0.09326   0.86698   0.51982   0.00000  Uiso   1.00
C2040  C     0.24133   0.86426   0.98128   0.00000  Uiso   1.00
C2041  C     0.01994   0.79313   0.76050   0.00000  Uiso   1.00
C2042  C     0.31239   0.87546   0.74235   0.00000  Uiso   1.00
C2043  C     0.31395   0.79270   0.74049   0.00000  Uiso   1.00
C2044  C     0.02040   0.87579   0.75665   0.00000  Uiso   1.00
C2045  C     0.29145   0.83368   0.73917   0.00000  Uiso   1.00
C2046  C     0.04190   0.83421   0.76082   0.00000  Uiso   1.00
C2047  C     0.18705   0.69081   0.78333   0.00000  Uiso   1.00
C2048  C     0.14826   0.97614   0.71531   0.00000  Uiso   1.00
C2049  C     0.14654   0.69068   0.71647   0.00000  Uiso   1.00
C2050  C     0.18527   0.97634   0.78447   0.00000  Uiso   1.00
N2051  N     0.16667   0.95240   0.75000   0.00000  Uiso   1.00
N2052  N     0.16667   0.71427   0.75000   0.00000  Uiso   1.00
C2053  C     0.24657   0.82823   0.88779   0.00000  Uiso   1.00
O2054  O     0.25393   0.83961   0.84935   0.00000  Uiso   1.00
O2055  O     0.27474   0.80101   0.91163   0.00000  Uiso   1.00
H2056  H     0.29997   0.79329   0.89358   0.00000  Uiso   1.00
C2057  C     0.08767   0.82512   0.61017   0.00000  Uiso   1.00
O2058  O     0.07869   0.83440   0.64891   0.00000  Uiso   1.00
O2059  O     0.06228   0.79663   0.58424   0.00000  Uiso   1.00
H2060  H     0.03772   0.78562   0.60138   0.00000  Uiso   1.00
O2061  O     0.09684   0.82080   0.88424   0.00000  Uiso   1.00
C2062  C     0.08297   0.78055   0.90477   0.00000  Uiso   1.00
H2063  H     0.05308   0.77154   0.88832   0.00000  Uiso   1.00
H2064  H     0.07625   0.78534   0.94102   0.00000  Uiso   1.00
C2065  C     0.11330   0.74082   0.89962   0.00000  Uiso   1.00
H2066  H     0.12232   0.73740   0.86400   0.00000  Uiso   1.00
H2067  H     0.14153   0.74709   0.92055   0.00000  Uiso   1.00
C2068  C     0.09440   0.69657   0.91459   0.00000  Uiso   1.00
H2069  H     0.08551   0.69893   0.95046   0.00000  Uiso   1.00
H2070  H     0.11724   0.66882   0.91105   0.00000  Uiso   1.00
H2071  H     0.06680   0.68848   0.89331   0.00000  Uiso   1.00
O2072  O     0.23636   0.81629   0.61652   0.00000  Uiso   1.00
C2073  C     0.24972   0.77536   0.59596   0.00000  Uiso   1.00
H2074  H     0.28026   0.76666   0.61122   0.00000  Uiso   1.00
H2075  H     0.25493   0.77880   0.55927   0.00000  Uiso   1.00
C2076  C     0.21985   0.73627   0.60337   0.00000  Uiso   1.00
H2077  H     0.21080   0.73551   0.63910   0.00000  Uiso   1.00
H2078  H     0.19163   0.74130   0.58204   0.00000  Uiso   1.00
C2079  C     0.23922   0.69087   0.59125   0.00000  Uiso   1.00
H2080  H     0.24880   0.69066   0.55562   0.00000  Uiso   1.00
H2081  H     0.21646   0.99695   0.59575   0.00000  Uiso   1.00
H2082  H     0.26647   0.68397   0.61353   0.00000  Uiso   1.00
C2083  C     0.05827   0.87984   0.94509   0.00000  Uiso   1.00
O2084  O     0.06140   0.91185   0.91969   0.00000  Uiso   1.00
O2085  O     0.02205   0.85508   0.94555   0.00000  Uiso   1.00
H2086  H     0.00307   0.86349   0.91932   0.00000  Uiso   1.00
C2087  C     0.27814   0.86942   0.55618   0.00000  Uiso   1.00
O2088  O     0.27667   0.89576   0.58805   0.00000  Uiso   1.00
O2089  O     0.31436   0.84610   0.54725   0.00000  Uiso   1.00
H2090  H     0.00176   0.85016   0.57285   0.00000  Uiso   1.00
O2091  O     0.05981   0.88621   0.54069   0.00000  Uiso   1.00
C2092  C     0.06839   0.93225   0.54912   0.00000  Uiso   1.00
H2093  H     0.07270   0.95045   0.51683   0.00000  Uiso   1.00
H2094  H     0.09675   0.93594   0.57061   0.00000  Uiso   1.00
C2095  C     0.03235   0.95406   0.57353   0.00000  Uiso   1.00
H2096  H     0.00481   0.95399   0.55093   0.00000  Uiso   1.00
H2097  H     0.02516   0.93435   0.60401   0.00000  Uiso   1.00
C2098  C     0.04172   0.66931   0.58731   0.00000  Uiso   1.00
H2099  H     0.06864   0.67026   0.61100   0.00000  Uiso   1.00
H2100  H     0.01478   0.68426   0.60440   0.00000  Uiso   1.00
H2101  H     0.04830   0.68980   0.55715   0.00000  Uiso   1.00
O2102  O     0.27466   0.88238   0.95979   0.00000  Uiso   1.00
C2103  C     0.27786   0.92958   0.96780   0.00000  Uiso   1.00
H2104  H     0.30315   0.94188   0.94665   0.00000  Uiso   1.00
H2105  H     0.28724   0.93688   0.50309   0.00000  Uiso   1.00
C2106  C     0.23834   0.95642   0.95612   0.00000  Uiso   1.00
H2107  H     0.22334   0.94177   0.92574   0.00000  Uiso   1.00
H2108  H     0.21658   0.95395   0.98435   0.00000  Uiso   1.00
C2109  C     0.24733   0.67274   0.94777   0.00000  Uiso   1.00
H2110  H     0.26499   0.68751   0.97671   0.00000  Uiso   1.00
H2111  H     0.21791   0.69165   0.94346   0.00000  Uiso   1.00
H2112  H     0.26537   0.67637   0.91667   0.00000  Uiso   1.00
C2113  C     0.03351   0.75305   0.78792   0.00000  Uiso   1.00
O2114  O     0.06772   0.75114   0.80553   0.00000  Uiso   1.00
O2115  O     0.00558   0.71873   0.79681   0.00000  Uiso   1.00
H2116  H     0.01770   0.69444   0.81712   0.00000  Uiso   1.00
C2117  C     0.29211   0.91809   0.72690   0.00000  Uiso   1.00
O2118  O     0.27531   0.91938   0.68959   0.00000  Uiso   1.00
O2119  O     0.29131   0.95608   0.75502   0.00000  Uiso   1.00
H2120  H     0.27512   0.98206   0.74120   0.00000  Uiso   1.00
C2121  C     0.30089   0.75164   0.71399   0.00000  Uiso   1.00
O2122  O     0.26714   0.74975   0.69534   0.00000  Uiso   1.00
O2123  O     0.32882   0.71632   0.70699   0.00000  Uiso   1.00
H2124  H     0.31717   0.69157   0.68678   0.00000  Uiso   1.00
C2125  C     0.03998   0.91899   0.77135   0.00000  Uiso   1.00
O2126  O     0.05719   0.92136   0.80842   0.00000  Uiso   1.00
O2127  O     0.03944   0.95641   0.74296   0.00000  Uiso   1.00
H2128  H     0.05504   0.98296   0.75642   0.00000  Uiso   1.00
C2129  C     0.21230   0.71478   0.81763   0.00000  Uiso   1.00
O2130  O     0.20037   0.71831   0.85624   0.00000  Uiso   1.00
O2131  O     0.25124   0.73008   0.80669   0.00000  Uiso   1.00
H2132  H     0.26623   0.74458   0.83331   0.00000  Uiso   1.00
C2133  C     0.13025   0.95258   0.67595   0.00000  Uiso   1.00
O2134  O     0.14738   0.95434   0.63975   0.00000  Uiso   1.00
O2135  O     0.09304   0.93009   0.67945   0.00000  Uiso   1.00
H2136  H     0.08282   0.91776   0.64944   0.00000  Uiso   1.00
C2137  C     0.12081   0.71466   0.68269   0.00000  Uiso   1.00
O2138  O     0.13274   0.71890   0.64423   0.00000  Uiso   1.00
O2139  O     0.08143   0.72908   0.69391   0.00000  Uiso   1.00
H2140  H     0.06607   0.74363   0.66765   0.00000  Uiso   1.00
C2141  C     0.20204   0.95322   0.82437   0.00000  Uiso   1.00
O2142  O     0.18111   0.95114   0.85795   0.00000  Uiso   1.00
O2143  O     0.24230   0.93666   0.82488   0.00000  Uiso   1.00
H2144  H     0.25158   0.92527   0.85557   0.00000  Uiso   1.00
O2145  O     0.43892   0.87154   0.74999   0.00000  Uiso   1.00
O2146  O     0.56108   0.79513   0.75000   0.00000  Uiso   1.00
O2147  O     0.56108   0.87154   0.75000   0.00000  Uiso   1.00
O2148  O     0.43892   0.79513   0.74999   0.00000  Uiso   1.00
C2149  C     0.42008   0.83353   0.75514   0.00000  Uiso   1.00
C2150  C     0.57992   0.83325   0.74482   0.00000  Uiso   1.00
O2151  O     0.49999   0.87156   0.68392   0.00000  Uiso   1.00
O2152  O     0.50001   0.79511   0.81607   0.00000  Uiso   1.00
O2153  O     0.50001   0.87156   0.81607   0.00000  Uiso   1.00
O2154  O     0.49999   0.79511   0.68392   0.00000  Uiso   1.00
C2155  C     0.49865   0.83318   0.66330   0.00000  Uiso   1.00
C2156  C     0.50126   0.83353   0.83676   0.00000  Uiso   1.00
Zn2157 Zn    0.50000   0.88437   0.75000   0.00000  Uiso   1.00
Zn2158 Zn    0.50000   0.78229   0.75000   0.00000  Uiso   1.00
C2159  C     0.54045   0.84143   0.90906   0.00000  Uiso   1.00
C2160  C     0.46018   0.84108   0.59098   0.00000  Uiso   1.00
C2161  C     0.50273   0.83528   0.88526   0.00000  Uiso   1.00
C2162  C     0.49758   0.83386   0.61490   0.00000  Uiso   1.00
C2163  C     0.46508   0.83696   0.90690   0.00000  Uiso   1.00
C2164  C     0.53535   0.83357   0.59353   0.00000  Uiso   1.00
C2165  C     0.46416   0.85174   0.95181   0.00000  Uiso   1.00
C2166  C     0.53697   0.84883   0.54899   0.00000  Uiso   1.00
C2167  C     0.50121   0.85317   0.97693   0.00000  Uiso   1.00
C2168  C     0.49998   0.85286   0.52393   0.00000  Uiso   1.00
C2169  C     0.53939   0.85185   0.95551   0.00000  Uiso   1.00
C2170  C     0.46168   0.85286   0.54521   0.00000  Uiso   1.00
C2171  C     0.42751   0.86507   0.97261   0.00000  Uiso   1.00
C2172  C     0.57411   0.86043   0.52852   0.00000  Uiso   1.00
C2173  C     0.42660   0.86698   0.51982   0.00000  Uiso   1.00
C2174  C     0.57466   0.86426   0.98128   0.00000  Uiso   1.00
C2175  C     0.35327   0.79313   0.76050   0.00000  Uiso   1.00
C2176  C     0.64572   0.87546   0.74235   0.00000  Uiso   1.00
C2177  C     0.64728   0.79270   0.74049   0.00000  Uiso   1.00
C2178  C     0.35374   0.87579   0.75665   0.00000  Uiso   1.00
C2179  C     0.62478   0.83368   0.73917   0.00000  Uiso   1.00
C2180  C     0.37523   0.83421   0.76082   0.00000  Uiso   1.00
C2181  C     0.52038   0.69081   0.78333   0.00000  Uiso   1.00
C2182  C     0.48159   0.97614   0.71531   0.00000  Uiso   1.00
C2183  C     0.47987   0.69068   0.71647   0.00000  Uiso   1.00
C2184  C     0.51860   0.97634   0.78447   0.00000  Uiso   1.00
N2185  N     0.50000   0.95240   0.75000   0.00000  Uiso   1.00
N2186  N     0.50000   0.71427   0.75000   0.00000  Uiso   1.00
C2187  C     0.57990   0.82823   0.88779   0.00000  Uiso   1.00
O2188  O     0.58727   0.83961   0.84935   0.00000  Uiso   1.00
O2189  O     0.60807   0.80101   0.91163   0.00000  Uiso   1.00
H2190  H     0.63330   0.79329   0.89358   0.00000  Uiso   1.00
C2191  C     0.42100   0.82512   0.61017   0.00000  Uiso   1.00
O2192  O     0.41202   0.83440   0.64891   0.00000  Uiso   1.00
O2193  O     0.39562   0.79663   0.58424   0.00000  Uiso   1.00
H2194  H     0.37105   0.78562   0.60138   0.00000  Uiso   1.00
O2195  O     0.43018   0.82080   0.88424   0.00000  Uiso   1.00
C2196  C     0.41631   0.78055   0.90477   0.00000  Uiso   1.00
H2197  H     0.38642   0.77154   0.88832   0.00000  Uiso   1.00
H2198  H     0.40959   0.78534   0.94102   0.00000  Uiso   1.00
C2199  C     0.44663   0.74082   0.89962   0.00000  Uiso   1.00
H2200  H     0.45566   0.73740   0.86400   0.00000  Uiso   1.00
H2201  H     0.47487   0.74709   0.92055   0.00000  Uiso   1.00
C2202  C     0.42773   0.69657   0.91459   0.00000  Uiso   1.00
H2203  H     0.41884   0.69893   0.95046   0.00000  Uiso   1.00
H2204  H     0.45057   0.66882   0.91105   0.00000  Uiso   1.00
H2205  H     0.40013   0.68848   0.89331   0.00000  Uiso   1.00
O2206  O     0.56969   0.81629   0.61652   0.00000  Uiso   1.00
C2207  C     0.58305   0.77536   0.59596   0.00000  Uiso   1.00
H2208  H     0.61359   0.76666   0.61122   0.00000  Uiso   1.00
H2209  H     0.58826   0.77880   0.55927   0.00000  Uiso   1.00
C2210  C     0.55318   0.73627   0.60337   0.00000  Uiso   1.00
H2211  H     0.54413   0.73551   0.63910   0.00000  Uiso   1.00
H2212  H     0.52496   0.74130   0.58204   0.00000  Uiso   1.00
C2213  C     0.57255   0.69087   0.59125   0.00000  Uiso   1.00
H2214  H     0.58213   0.69066   0.55562   0.00000  Uiso   1.00
H2215  H     0.54980   0.99695   0.59575   0.00000  Uiso   1.00
H2216  H     0.59980   0.68397   0.61353   0.00000  Uiso   1.00
C2217  C     0.39160   0.87984   0.94509   0.00000  Uiso   1.00
O2218  O     0.39473   0.91185   0.91969   0.00000  Uiso   1.00
O2219  O     0.35539   0.85508   0.94555   0.00000  Uiso   1.00
H2220  H     0.33640   0.86349   0.91932   0.00000  Uiso   1.00
C2221  C     0.61147   0.86942   0.55618   0.00000  Uiso   1.00
O2222  O     0.61001   0.89576   0.58805   0.00000  Uiso   1.00
O2223  O     0.64769   0.84610   0.54725   0.00000  Uiso   1.00
H2224  H     0.33510   0.85016   0.57285   0.00000  Uiso   1.00
O2225  O     0.39315   0.88621   0.54069   0.00000  Uiso   1.00
C2226  C     0.40173   0.93225   0.54912   0.00000  Uiso   1.00
H2227  H     0.40603   0.95045   0.51683   0.00000  Uiso   1.00
H2228  H     0.43008   0.93594   0.57061   0.00000  Uiso   1.00
C2229  C     0.36569   0.95406   0.57353   0.00000  Uiso   1.00
H2230  H     0.33814   0.95399   0.55093   0.00000  Uiso   1.00
H2231  H     0.35849   0.93435   0.60401   0.00000  Uiso   1.00
C2232  C     0.37506   0.66931   0.58731   0.00000  Uiso   1.00
H2233  H     0.40197   0.67026   0.61100   0.00000  Uiso   1.00
H2234  H     0.34812   0.68426   0.60440   0.00000  Uiso   1.00
H2235  H     0.38164   0.68980   0.55715   0.00000  Uiso   1.00
O2236  O     0.60799   0.88238   0.95979   0.00000  Uiso   1.00
C2237  C     0.61119   0.92958   0.96780   0.00000  Uiso   1.00
H2238  H     0.63649   0.94188   0.94665   0.00000  Uiso   1.00
H2239  H     0.62058   0.93688   0.50309   0.00000  Uiso   1.00
C2240  C     0.57167   0.95642   0.95612   0.00000  Uiso   1.00
H2241  H     0.55667   0.94177   0.92574   0.00000  Uiso   1.00
H2242  H     0.54991   0.95395   0.98435   0.00000  Uiso   1.00
C2243  C     0.58066   0.67274   0.94777   0.00000  Uiso   1.00
H2244  H     0.59832   0.68751   0.97671   0.00000  Uiso   1.00
H2245  H     0.55124   0.69165   0.94346   0.00000  Uiso   1.00
H2246  H     0.59870   0.67637   0.91667   0.00000  Uiso   1.00
C2247  C     0.36684   0.75305   0.78792   0.00000  Uiso   1.00
O2248  O     0.40105   0.75114   0.80553   0.00000  Uiso   1.00
O2249  O     0.33891   0.71873   0.79681   0.00000  Uiso   1.00
H2250  H     0.35104   0.69444   0.81712   0.00000  Uiso   1.00
C2251  C     0.62545   0.91809   0.72690   0.00000  Uiso   1.00
O2252  O     0.60864   0.91938   0.68959   0.00000  Uiso   1.00
O2253  O     0.62465   0.95608   0.75502   0.00000  Uiso   1.00
H2254  H     0.60846   0.98206   0.74120   0.00000  Uiso   1.00
C2255  C     0.63422   0.75164   0.71399   0.00000  Uiso   1.00
O2256  O     0.60047   0.74975   0.69534   0.00000  Uiso   1.00
O2257  O     0.66216   0.71632   0.70699   0.00000  Uiso   1.00
H2258  H     0.65051   0.69157   0.68678   0.00000  Uiso   1.00
C2259  C     0.37332   0.91899   0.77135   0.00000  Uiso   1.00
O2260  O     0.39053   0.92136   0.80842   0.00000  Uiso   1.00
O2261  O     0.37277   0.95641   0.74296   0.00000  Uiso   1.00
H2262  H     0.38837   0.98296   0.75642   0.00000  Uiso   1.00
C2263  C     0.54563   0.71478   0.81763   0.00000  Uiso   1.00
O2264  O     0.53371   0.71831   0.85624   0.00000  Uiso   1.00
O2265  O     0.58457   0.73008   0.80669   0.00000  Uiso   1.00
H2266  H     0.59956   0.74458   0.83331   0.00000  Uiso   1.00
C2267  C     0.46358   0.95258   0.67595   0.00000  Uiso   1.00
O2268  O     0.48071   0.95434   0.63975   0.00000  Uiso   1.00
O2269  O     0.42638   0.93009   0.67945   0.00000  Uiso   1.00
H2270  H     0.41615   0.91776   0.64944   0.00000  Uiso   1.00
C2271  C     0.45415   0.71466   0.68269   0.00000  Uiso   1.00
O2272  O     0.46608   0.71890   0.64423   0.00000  Uiso   1.00
O2273  O     0.41477   0.72908   0.69391   0.00000  Uiso   1.00
H2274  H     0.39941   0.74363   0.66765   0.00000  Uiso   1.00
C2275  C     0.53537   0.95322   0.82437   0.00000  Uiso   1.00
O2276  O     0.51445   0.95114   0.85795   0.00000  Uiso   1.00
O2277  O     0.57564   0.93666   0.82488   0.00000  Uiso   1.00
H2278  H     0.58491   0.92527   0.85557   0.00000  Uiso   1.00
O2279  O     0.77226   0.87154   0.74999   0.00000  Uiso   1.00
O2280  O     0.89441   0.79513   0.75000   0.00000  Uiso   1.00
O2281  O     0.89441   0.87154   0.75000   0.00000  Uiso   1.00
O2282  O     0.77226   0.79513   0.74999   0.00000  Uiso   1.00
C2283  C     0.75341   0.83353   0.75514   0.00000  Uiso   1.00
C2284  C     0.91325   0.83325   0.74482   0.00000  Uiso   1.00
O2285  O     0.83333   0.87156   0.68392   0.00000  Uiso   1.00
O2286  O     0.83334   0.79511   0.81607   0.00000  Uiso   1.00
O2287  O     0.83334   0.87156   0.81607   0.00000  Uiso   1.00
O2288  O     0.83333   0.79511   0.68392   0.00000  Uiso   1.00
C2289  C     0.83198   0.83318   0.66330   0.00000  Uiso   1.00
C2290  C     0.83460   0.83353   0.83676   0.00000  Uiso   1.00
Zn2291 Zn    0.83333   0.88437   0.75000   0.00000  Uiso   1.00
Zn2292 Zn    0.83333   0.78229   0.75000   0.00000  Uiso   1.00
C2293  C     0.87378   0.84143   0.90906   0.00000  Uiso   1.00
C2294  C     0.79351   0.84108   0.59098   0.00000  Uiso   1.00
C2295  C     0.83607   0.83528   0.88526   0.00000  Uiso   1.00
C2296  C     0.83091   0.83386   0.61490   0.00000  Uiso   1.00
C2297  C     0.79841   0.83696   0.90690   0.00000  Uiso   1.00
C2298  C     0.86868   0.83357   0.59353   0.00000  Uiso   1.00
C2299  C     0.79749   0.85174   0.95181   0.00000  Uiso   1.00
C2300  C     0.87030   0.84883   0.54899   0.00000  Uiso   1.00
C2301  C     0.83455   0.85317   0.97693   0.00000  Uiso   1.00
C2302  C     0.83331   0.85286   0.52393   0.00000  Uiso   1.00
C2303  C     0.87272   0.85185   0.95551   0.00000  Uiso   1.00
C2304  C     0.79502   0.85286   0.54521   0.00000  Uiso   1.00
C2305  C     0.76084   0.86507   0.97261   0.00000  Uiso   1.00
C2306  C     0.90744   0.86043   0.52852   0.00000  Uiso   1.00
C2307  C     0.75993   0.86698   0.51982   0.00000  Uiso   1.00
C2308  C     0.90800   0.86426   0.98128   0.00000  Uiso   1.00
C2309  C     0.68660   0.79313   0.76050   0.00000  Uiso   1.00
C2310  C     0.97905   0.87546   0.74235   0.00000  Uiso   1.00
C2311  C     0.98062   0.79270   0.74049   0.00000  Uiso   1.00
C2312  C     0.68707   0.87579   0.75665   0.00000  Uiso   1.00
C2313  C     0.95811   0.83368   0.73917   0.00000  Uiso   1.00
C2314  C     0.70856   0.83421   0.76082   0.00000  Uiso   1.00
C2315  C     0.85372   0.69081   0.78333   0.00000  Uiso   1.00
C2316  C     0.81493   0.97614   0.71531   0.00000  Uiso   1.00
C2317  C     0.81320   0.69068   0.71647   0.00000  Uiso   1.00
C2318  C     0.85194   0.97634   0.78447   0.00000  Uiso   1.00
N2319  N     0.83333   0.95240   0.75000   0.00000  Uiso   1.00
N2320  N     0.83333   0.71427   0.75000   0.00000  Uiso   1.00
C2321  C     0.91324   0.82823   0.88779   0.00000  Uiso   1.00
O2322  O     0.92060   0.83961   0.84935   0.00000  Uiso   1.00
O2323  O     0.94141   0.80101   0.91163   0.00000  Uiso   1.00
H2324  H     0.96664   0.79329   0.89358   0.00000  Uiso   1.00
C2325  C     0.75434   0.82512   0.61017   0.00000  Uiso   1.00
O2326  O     0.74535   0.83440   0.64891   0.00000  Uiso   1.00
O2327  O     0.72895   0.79663   0.58424   0.00000  Uiso   1.00
H2328  H     0.70438   0.78562   0.60138   0.00000  Uiso   1.00
O2329  O     0.76351   0.82080   0.88424   0.00000  Uiso   1.00
C2330  C     0.74964   0.78055   0.90477   0.00000  Uiso   1.00
H2331  H     0.71975   0.77154   0.88832   0.00000  Uiso   1.00
H2332  H     0.74292   0.78534   0.94102   0.00000  Uiso   1.00
C2333  C     0.77996   0.74082   0.89962   0.00000  Uiso   1.00
H2334  H     0.78899   0.73740   0.86400   0.00000  Uiso   1.00
H2335  H     0.80820   0.74709   0.92055   0.00000  Uiso   1.00
C2336  C     0.76107   0.69657   0.91459   0.00000  Uiso   1.00
H2337  H     0.75217   0.69893   0.95046   0.00000  Uiso   1.00
H2338  H     0.78390   0.66882   0.91105   0.00000  Uiso   1.00
H2339  H     0.73346   0.68848   0.89331   0.00000  Uiso   1.00
O2340  O     0.90303   0.81629   0.61652   0.00000  Uiso   1.00
C2341  C     0.91639   0.77536   0.59596   0.00000  Uiso   1.00
H2342  H     0.94692   0.76666   0.61122   0.00000  Uiso   1.00
H2343  H     0.92160   0.77880   0.55927   0.00000  Uiso   1.00
C2344  C     0.88652   0.73627   0.60337   0.00000  Uiso   1.00
H2345  H     0.87746   0.73551   0.63910   0.00000  Uiso   1.00
H2346  H     0.85829   0.74130   0.58204   0.00000  Uiso   1.00
C2347  C     0.90589   0.69087   0.59125   0.00000  Uiso   1.00
H2348  H     0.91546   0.69066   0.55562   0.00000  Uiso   1.00
H2349  H     0.88313   0.99695   0.59575   0.00000  Uiso   1.00
H2350  H     0.93313   0.68397   0.61353   0.00000  Uiso   1.00
C2351  C     0.72494   0.87984   0.94509   0.00000  Uiso   1.00
O2352  O     0.72806   0.91185   0.91969   0.00000  Uiso   1.00
O2353  O     0.68872   0.85508   0.94555   0.00000  Uiso   1.00
H2354  H     0.66974   0.86349   0.91932   0.00000  Uiso   1.00
C2355  C     0.94481   0.86942   0.55618   0.00000  Uiso   1.00
O2356  O     0.94334   0.89576   0.58805   0.00000  Uiso   1.00
O2357  O     0.98102   0.84610   0.54725   0.00000  Uiso   1.00
H2358  H     0.66843   0.85016   0.57285   0.00000  Uiso   1.00
O2359  O     0.72648   0.88621   0.54069   0.00000  Uiso   1.00
C2360  C     0.73506   0.93225   0.54912   0.00000  Uiso   1.00
H2361  H     0.73937   0.95045   0.51683   0.00000  Uiso   1.00
H2362  H     0.76341   0.93594   0.57061   0.00000  Uiso   1.00
C2363  C     0.69902   0.95406   0.57353   0.00000  Uiso   1.00
H2364  H     0.67148   0.95399   0.55093   0.00000  Uiso   1.00
H2365  H     0.69182   0.93435   0.60401   0.00000  Uiso   1.00
C2366  C     0.70839   0.66931   0.58731   0.00000  Uiso   1.00
H2367  H     0.73531   0.67026   0.61100   0.00000  Uiso   1.00
H2368  H     0.68145   0.68426   0.60440   0.00000  Uiso   1.00
H2369  H     0.71497   0.68980   0.55715   0.00000  Uiso   1.00
O2370  O     0.94132   0.88238   0.95979   0.00000  Uiso   1.00
C2371  C     0.94453   0.92958   0.96780   0.00000  Uiso   1.00
H2372  H     0.96982   0.94188   0.94665   0.00000  Uiso   1.00
H2373  H     0.95391   0.93688   0.50309   0.00000  Uiso   1.00
C2374  C     0.90501   0.95642   0.95612   0.00000  Uiso   1.00
H2375  H     0.89000   0.94177   0.92574   0.00000  Uiso   1.00
H2376  H     0.88324   0.95395   0.98435   0.00000  Uiso   1.00
C2377  C     0.91400   0.67274   0.94777   0.00000  Uiso   1.00
H2378  H     0.93165   0.68751   0.97671   0.00000  Uiso   1.00
H2379  H     0.88457   0.69165   0.94346   0.00000  Uiso   1.00
H2380  H     0.93204   0.67637   0.91667   0.00000  Uiso   1.00
C2381  C     0.70017   0.75305   0.78792   0.00000  Uiso   1.00
O2382  O     0.73438   0.75114   0.80553   0.00000  Uiso   1.00
O2383  O     0.67224   0.71873   0.79681   0.00000  Uiso   1.00
H2384  H     0.68437   0.69444   0.81712   0.00000  Uiso   1.00
C2385  C     0.95878   0.91809   0.72690   0.00000  Uiso   1.00
O2386  O     0.94197   0.91938   0.68959   0.00000  Uiso   1.00
O2387  O     0.95798   0.95608   0.75502   0.00000  Uiso   1.00
H2388  H     0.94179   0.98206   0.74120   0.00000  Uiso   1.00
C2389  C     0.96755   0.75164   0.71399   0.00000  Uiso   1.00
O2390  O     0.93380   0.74975   0.69534   0.00000  Uiso   1.00
O2391  O     0.99549   0.71632   0.70699   0.00000  Uiso   1.00
H2392  H     0.98384   0.69157   0.68678   0.00000  Uiso   1.00
C2393  C     0.70665   0.91899   0.77135   0.00000  Uiso   1.00
O2394  O     0.72386   0.92136   0.80842   0.00000  Uiso   1.00
O2395  O     0.70611   0.95641   0.74296   0.00000  Uiso   1.00
H2396  H     0.72170   0.98296   0.75642   0.00000  Uiso   1.00
C2397  C     0.87897   0.71478   0.81763   0.00000  Uiso   1.00
O2398  O     0.86704   0.71831   0.85624   0.00000  Uiso   1.00
O2399  O     0.91790   0.73008   0.80669   0.00000  Uiso   1.00
H2400  H     0.93289   0.74458   0.83331   0.00000  Uiso   1.00
C2401  C     0.79692   0.95258   0.67595   0.00000  Uiso   1.00
O2402  O     0.81404   0.95434   0.63975   0.00000  Uiso   1.00
O2403  O     0.75971   0.93009   0.67945   0.00000  Uiso   1.00
H2404  H     0.74948   0.91776   0.64944   0.00000  Uiso   1.00
C2405  C     0.78748   0.71466   0.68269   0.00000  Uiso   1.00
O2406  O     0.79941   0.71890   0.64423   0.00000  Uiso   1.00
O2407  O     0.74810   0.72908   0.69391   0.00000  Uiso   1.00
H2408  H     0.73274   0.74363   0.66765   0.00000  Uiso   1.00
C2409  C     0.86871   0.95322   0.82437   0.00000  Uiso   1.00
O2410  O     0.84778   0.95114   0.85795   0.00000  Uiso   1.00
O2411  O     0.90897   0.93666   0.82488   0.00000  Uiso   1.00
H2412  H     0.91825   0.92527   0.85557   0.00000  Uiso   1.00
loop_
_geom_bond_atom_site_label_1
_geom_bond_atom_site_label_2
_geom_bond_distance
_geom_bond_site_symmetry_2
_ccdc_geom_bond_type
O1     C5      1.299   .     A
O1     Zn13    2.023   .     S
O2     C6      1.301   .     A
O2     Zn14    2.023   .     S
O3     C6      1.297   .     A
O3     Zn13    2.018   .     S
O4     C5      1.299   .     A
O4     Zn14    2.018   .     S
C5     C36     1.471   .     S
C6     C35     1.472   .     S
O7     C11     1.289   .     A
O7     Zn13    1.994   .     S
O8     C12     1.291   .     A
O8     Zn14    1.994   .     S
O9     Zn13    1.999   .     S
O9     C12     1.288   .     A
O10    Zn14    1.999   .     S
O10    C11     1.288   .     A
C11    C18     1.436   .     S
C12    C17     1.439   .     S
Zn13   N41     2.018   .     S
Zn14   N42     2.018   .     S
C15    C25     1.411   .     A
C15    C17     1.412   .     A
C15    C43     1.491   .     S
C16    C47     1.489   .     S
C16    C26     1.407   .     A
C16    C18     1.408   .     A
C17    C19     1.396   .     A
C18    C20     1.395   .     A
C19    C21     1.400   .     A
C19    O51     1.391   .     S
C20    O62     1.391   .     S
C20    C22     1.402   .     A
C21    C27     1.408   .     A
C21    C23     1.401   .     A
C22    C28     1.410   .     A
C22    C24     1.403   .     A
C23    C25     1.407   .     A
C23    C1230   1.396   .     S
C24    C26     1.409   .     A
C24    C1229   1.396   1_554 S
C25    C30     1.412   .     A
C26    C29     1.414   .     A
C27    C73     1.474   .     S
C27    C1235   1.402   .     S
C28    C77     1.474   .     S
C28    C1236   1.407   1_554 S
C29    O81     1.381   .     S
C29    C1233   1.402   1_554 S
C30    O92     1.384   .     S
C30    C1234   1.407   .     S
C31    C36     1.416   .     A
C31    C103    1.503   .     S
C31    C301    1.396   1_455 S
C32    C107    1.492   .     S
C32    C35     1.419   .     A
C32    C168    1.399   .     S
C33    C111    1.503   .     S
C33    C35     1.414   .     A
C33    C165    1.396   .     S
C34    C115    1.492   .     S
C34    C36     1.418   .     A
C34    C300    1.399   1_455 S
C37    N42     1.369   .     A
C37    C119    1.474   .     S
C37    C844    1.420   1_545 S
C38    C123    1.468   .     S
C38    N41     1.374   .     A
C38    C441    1.421   .     S
C39    N42     1.368   .     A
C39    C127    1.473   .     S
C39    C842    1.421   1_545 S
C40    N41     1.371   .     A
C40    C131    1.464   .     S
C40    C439    1.420   .     S
C43    O44     1.221   .     D
C43    O45     1.399   .     S
O45    H46     1.014   .     S
C47    O49     1.398   .     S
C47    O48     1.221   .     D
O49    H50     1.014   .     S
O51    C52     1.425   .     S
C52    C55     1.540   .     S
C52    H54     1.110   .     S
C52    H53     1.110   .     S
C55    H56     1.107   .     S
C55    H57     1.111   .     S
C55    C58     1.526   .     S
C58    H60     1.111   .     S
C58    H61     1.111   .     S
C58    H59     1.111   .     S
O62    C63     1.424   .     S
C63    H65     1.111   .     S
C63    C66     1.538   .     S
C63    H64     1.110   .     S
C66    H68     1.111   .     S
C66    C69     1.527   .     S
C66    H67     1.107   .     S
C69    H72     1.111   .     S
C69    H70     1.109   .     S
C69    H875    1.110   1_545 S
H71    C471    1.110   .     S
C73    O74     1.223   .     D
C73    O75     1.392   .     S
O75    H76     1.013   .     S
C77    O78     1.223   .     D
C77    O79     1.391   .     S
O79    H214    1.010   .     S
H80    O347    1.010   1_455 S
O81    C82     1.415   .     S
C82    H83     1.115   .     S
C82    H84     1.113   .     S
C82    C85     1.529   .     S
C85    H87     1.111   .     S
C85    H86     1.105   .     S
C85    C490    1.526   .     S
C88    H91     1.111   .     S
C88    H90     1.110   .     S
C88    H89     1.109   .     S
C88    C889    1.526   1_545 S
O92    C93     1.422   .     S
C93    H94     1.111   .     S
C93    C96     1.540   .     S
C93    H1301   1.104   .     S
H95    C1299   1.104   1_554 S
C96    H98     1.112   .     S
C96    H97     1.102   .     S
C96    C501    1.527   .     S
C99    H100    1.110   .     S
C99    H101    1.110   .     S
C99    H102    1.111   .     S
C99    C900    1.527   1_545 S
C103   O105    1.399   .     S
C103   O104    1.218   .     D
O105   H106    1.014   .     S
C107   O109    1.398   .     S
C107   O108    1.223   .     D
O109   H110    1.014   .     S
C111   O112    1.218   .     D
C111   O113    1.399   .     S
O113   H114    1.014   .     S
C115   O116    1.223   .     D
C115   O117    1.398   .     S
O117   H118    1.014   .     S
C119   O121    1.394   .     S
C119   O120    1.222   .     D
O121   H122    1.013   .     S
C123   O124    1.223   .     D
C123   O125    1.391   .     S
O125   H126    1.010   .     S
C127   O129    1.394   .     S
C127   O128    1.222   .     D
O129   H130    1.013   .     S
C131   O132    1.222   .     D
C131   O133    1.394   .     S
O133   H134    1.012   .     S
O135   C139    1.299   .     A
O135   Zn147   2.023   .     S
O136   C140    1.301   .     A
O136   Zn148   2.023   .     S
O137   C140    1.297   .     A
O137   Zn147   2.018   .     S
O138   C139    1.299   .     A
O138   Zn148   2.018   .     S
C139   C170    1.471   .     S
C140   C169    1.472   .     S
O141   C145    1.289   .     A
O141   Zn147   1.994   .     S
O142   C146    1.291   .     A
O142   Zn148   1.994   .     S
O143   Zn147   1.999   .     S
O143   C146    1.288   .     A
O144   Zn148   1.999   .     S
O144   C145    1.288   .     A
C145   C152    1.436   .     S
C146   C151    1.439   .     S
Zn147  N175    2.018   .     S
Zn148  N176    2.018   .     S
C149   C159    1.411   .     A
C149   C151    1.412   .     A
C149   C177    1.491   .     S
C150   C181    1.489   .     S
C150   C160    1.407   .     A
C150   C152    1.408   .     A
C151   C153    1.396   .     A
C152   C154    1.395   .     A
C153   C155    1.400   .     A
C153   O185    1.391   .     S
C154   O196    1.391   .     S
C154   C156    1.402   .     A
C155   C161    1.408   .     A
C155   C157    1.401   .     A
C156   C162    1.410   .     A
C156   C158    1.403   .     A
C157   C159    1.407   .     A
C157   C1364   1.396   .     S
C158   C160    1.409   .     A
C158   C1363   1.396   1_554 S
C159   C164    1.412   .     A
C160   C163    1.414   .     A
C161   C207    1.474   .     S
C161   C1369   1.402   .     S
C162   C211    1.474   .     S
C162   C1370   1.407   1_554 S
C163   O215    1.381   .     S
C163   C1367   1.402   1_554 S
C164   O226    1.384   .     S
C164   C1368   1.407   .     S
C165   C170    1.416   .     A
C165   C237    1.503   .     S
C166   C241    1.492   .     S
C166   C169    1.419   .     A
C166   C302    1.399   .     S
C167   C245    1.503   .     S
C167   C169    1.414   .     A
C167   C299    1.396   .     S
C168   C249    1.492   .     S
C168   C170    1.418   .     A
C171   N176    1.369   .     A
C171   C253    1.474   .     S
C171   C978    1.420   1_545 S
C172   C257    1.468   .     S
C172   N175    1.374   .     A
C172   C575    1.421   .     S
C173   N176    1.368   .     A
C173   C261    1.473   .     S
C173   C976    1.421   1_545 S
C174   N175    1.371   .     A
C174   C265    1.464   .     S
C174   C573    1.420   .     S
C177   O178    1.221   .     D
C177   O179    1.399   .     S
O179   H180    1.014   .     S
C181   O183    1.398   .     S
C181   O182    1.221   .     D
O183   H184    1.014   .     S
O185   C186    1.425   .     S
C186   C189    1.540   .     S
C186   H188    1.110   .     S
C186   H187    1.110   .     S
C189   H190    1.107   .     S
C189   H191    1.111   .     S
C189   C192    1.526   .     S
C192   H194    1.111   .     S
C192   H195    1.111   .     S
C192   H193    1.111   .     S
O196   C197    1.424   .     S
C197   H199    1.111   .     S
C197   C200    1.538   .     S
C197   H198    1.110   .     S
C200   H202    1.111   .     S
C200   C203    1.527   .     S
C200   H201    1.107   .     S
C203   H206    1.111   .     S
C203   H204    1.109   .     S
C203   H1009   1.110   1_545 S
H205   C605    1.110   .     S
C207   O208    1.223   .     D
C207   O209    1.392   .     S
O209   H210    1.013   .     S
C211   O212    1.223   .     D
C211   O213    1.391   .     S
O213   H348    1.010   .     S
O215   C216    1.415   .     S
C216   H217    1.115   .     S
C216   H218    1.113   .     S
C216   C219    1.529   .     S
C219   H221    1.111   .     S
C219   H220    1.105   .     S
C219   C624    1.526   .     S
C222   H225    1.111   .     S
C222   H224    1.110   .     S
C222   H223    1.109   .     S
C222   C1023   1.526   1_545 S
O226   C227    1.422   .     S
C227   H228    1.111   .     S
C227   C230    1.540   .     S
C227   H1435   1.104   .     S
H229   C1433   1.104   1_554 S
C230   H232    1.112   .     S
C230   H231    1.102   .     S
C230   C635    1.527   .     S
C233   H234    1.110   .     S
C233   H235    1.110   .     S
C233   H236    1.111   .     S
C233   C1034   1.527   1_545 S
C237   O239    1.399   .     S
C237   O238    1.218   .     D
O239   H240    1.014   .     S
C241   O243    1.398   .     S
C241   O242    1.223   .     D
O243   H244    1.014   .     S
C245   O246    1.218   .     D
C245   O247    1.399   .     S
O247   H248    1.014   .     S
C249   O250    1.223   .     D
C249   O251    1.398   .     S
O251   H252    1.014   .     S
C253   O255    1.394   .     S
C253   O254    1.222   .     D
O255   H256    1.013   .     S
C257   O258    1.223   .     D
C257   O259    1.391   .     S
O259   H260    1.010   .     S
C261   O263    1.394   .     S
C261   O262    1.222   .     D
O263   H264    1.013   .     S
C265   O266    1.222   .     D
C265   O267    1.394   .     S
O267   H268    1.012   .     S
O269   C273    1.299   .     A
O269   Zn281   2.023   .     S
O270   C274    1.301   .     A
O270   Zn282   2.023   .     S
O271   C274    1.297   .     A
O271   Zn281   2.018   .     S
O272   C273    1.299   .     A
O272   Zn282   2.018   .     S
C273   C304    1.471   .     S
C274   C303    1.472   .     S
O275   C279    1.289   .     A
O275   Zn281   1.994   .     S
O276   C280    1.291   .     A
O276   Zn282   1.994   .     S
O277   Zn281   1.999   .     S
O277   C280    1.288   .     A
O278   Zn282   1.999   .     S
O278   C279    1.288   .     A
C279   C286    1.436   .     S
C280   C285    1.439   .     S
Zn281  N309    2.018   .     S
Zn282  N310    2.018   .     S
C283   C293    1.411   .     A
C283   C285    1.412   .     A
C283   C311    1.491   .     S
C284   C315    1.489   .     S
C284   C294    1.407   .     A
C284   C286    1.408   .     A
C285   C287    1.396   .     A
C286   C288    1.395   .     A
C287   C289    1.400   .     A
C287   O319    1.391   .     S
C288   O330    1.391   .     S
C288   C290    1.402   .     A
C289   C295    1.408   .     A
C289   C291    1.401   .     A
C290   C296    1.410   .     A
C290   C292    1.403   .     A
C291   C293    1.407   .     A
C291   C1498   1.396   .     S
C292   C294    1.409   .     A
C292   C1497   1.396   1_554 S
C293   C298    1.412   .     A
C294   C297    1.414   .     A
C295   C341    1.474   .     S
C295   C1503   1.402   .     S
C296   C345    1.474   .     S
C296   C1504   1.407   1_554 S
C297   O349    1.381   .     S
C297   C1501   1.402   1_554 S
C298   O360    1.384   .     S
C298   C1502   1.407   .     S
C299   C304    1.416   .     A
C299   C371    1.503   .     S
C300   C375    1.492   .     S
C300   C303    1.419   .     A
C300   C34     1.399   1_655 S
C301   C379    1.503   .     S
C301   C303    1.414   .     A
C301   C31     1.396   1_655 S
C302   C383    1.492   .     S
C302   C304    1.418   .     A
C305   N310    1.369   .     A
C305   C387    1.474   .     S
C305   C1112   1.420   1_545 S
C306   C391    1.468   .     S
C306   N309    1.374   .     A
C306   C709    1.421   .     S
C307   N310    1.368   .     A
C307   C395    1.473   .     S
C307   C1110   1.421   1_545 S
C308   N309    1.371   .     A
C308   C399    1.464   .     S
C308   C707    1.420   .     S
C311   O312    1.221   .     D
C311   O313    1.399   .     S
O313   H314    1.014   .     S
C315   O317    1.398   .     S
C315   O316    1.221   .     D
O317   H318    1.014   .     S
O319   C320    1.425   .     S
C320   C323    1.540   .     S
C320   H322    1.110   .     S
C320   H321    1.110   .     S
C323   H324    1.107   .     S
C323   H325    1.111   .     S
C323   C326    1.526   .     S
C326   H328    1.111   .     S
C326   H329    1.111   .     S
C326   H327    1.111   .     S
O330   C331    1.424   .     S
C331   H333    1.111   .     S
C331   C334    1.538   .     S
C331   H332    1.110   .     S
C334   H336    1.111   .     S
C334   C337    1.527   .     S
C334   H335    1.107   .     S
C337   H340    1.111   .     S
C337   H338    1.109   .     S
C337   H1143   1.110   1_545 S
H339   C739    1.110   .     S
C341   O342    1.223   .     D
C341   O343    1.392   .     S
O343   H344    1.013   .     S
C345   O346    1.223   .     D
C345   O347    1.391   .     S
O347   H80     1.010   1_655 S
O349   C350    1.415   .     S
C350   H351    1.115   .     S
C350   H352    1.113   .     S
C350   C353    1.529   .     S
C353   H355    1.111   .     S
C353   H354    1.105   .     S
C353   C758    1.526   .     S
C356   H359    1.111   .     S
C356   H358    1.110   .     S
C356   H357    1.109   .     S
C356   C1157   1.526   1_545 S
O360   C361    1.422   .     S
C361   H362    1.111   .     S
C361   C364    1.540   .     S
C361   H1569   1.104   .     S
H363   C1567   1.104   1_554 S
C364   H366    1.112   .     S
C364   H365    1.102   .     S
C364   C769    1.527   .     S
C367   H368    1.110   .     S
C367   H369    1.110   .     S
C367   H370    1.111   .     S
C367   C1168   1.527   1_545 S
C371   O373    1.399   .     S
C371   O372    1.218   .     D
O373   H374    1.014   .     S
C375   O377    1.398   .     S
C375   O376    1.223   .     D
O377   H378    1.014   .     S
C379   O380    1.218   .     D
C379   O381    1.399   .     S
O381   H382    1.014   .     S
C383   O384    1.223   .     D
C383   O385    1.398   .     S
O385   H386    1.014   .     S
C387   O389    1.394   .     S
C387   O388    1.222   .     D
O389   H390    1.013   .     S
C391   O392    1.223   .     D
C391   O393    1.391   .     S
O393   H394    1.010   .     S
C395   O397    1.394   .     S
C395   O396    1.222   .     D
O397   H398    1.013   .     S
C399   O400    1.222   .     D
C399   O401    1.394   .     S
O401   H402    1.012   .     S
O403   C407    1.299   .     A
O403   Zn415   2.023   .     S
O404   C408    1.301   .     A
O404   Zn416   2.023   .     S
O405   C408    1.297   .     A
O405   Zn415   2.018   .     S
O406   C407    1.299   .     A
O406   Zn416   2.018   .     S
C407   C438    1.471   .     S
C408   C437    1.472   .     S
O409   C413    1.289   .     A
O409   Zn415   1.994   .     S
O410   C414    1.291   .     A
O410   Zn416   1.994   .     S
O411   Zn415   1.999   .     S
O411   C414    1.288   .     A
O412   Zn416   1.999   .     S
O412   C413    1.288   .     A
C413   C420    1.436   .     S
C414   C419    1.439   .     S
Zn415  N443    2.018   .     S
Zn416  N444    2.018   .     S
C417   C427    1.411   .     A
C417   C419    1.412   .     A
C417   C445    1.491   .     S
C418   C449    1.489   .     S
C418   C428    1.407   .     A
C418   C420    1.408   .     A
C419   C421    1.396   .     A
C420   C422    1.395   .     A
C421   C423    1.400   .     A
C421   O453    1.391   .     S
C422   O464    1.391   .     S
C422   C424    1.402   .     A
C423   C429    1.408   .     A
C423   C425    1.401   .     A
C424   C430    1.410   .     A
C424   C426    1.403   .     A
C425   C427    1.407   .     A
C425   C1632   1.396   .     S
C426   C428    1.409   .     A
C426   C1631   1.396   1_554 S
C427   C432    1.412   .     A
C428   C431    1.414   .     A
C429   C475    1.474   .     S
C429   C1637   1.402   .     S
C430   C479    1.474   .     S
C430   C1638   1.407   1_554 S
C431   O483    1.381   .     S
C431   C1635   1.402   1_554 S
C432   O494    1.384   .     S
C432   C1636   1.407   .     S
C433   C438    1.416   .     A
C433   C505    1.503   .     S
C433   C703    1.396   1_455 S
C434   C509    1.492   .     S
C434   C437    1.419   .     A
C434   C570    1.399   .     S
C435   C513    1.503   .     S
C435   C437    1.414   .     A
C435   C567    1.396   .     S
C436   C517    1.492   .     S
C436   C438    1.418   .     A
C436   C702    1.399   1_455 S
C439   N444    1.369   .     A
C439   C521    1.474   .     S
C440   C525    1.468   .     S
C440   N443    1.374   .     A
C440   C843    1.421   .     S
C441   N444    1.368   .     A
C441   C529    1.473   .     S
C442   N443    1.371   .     A
C442   C533    1.464   .     S
C442   C841    1.420   .     S
C445   O446    1.221   .     D
C445   O447    1.399   .     S
O447   H448    1.014   .     S
C449   O451    1.398   .     S
C449   O450    1.221   .     D
O451   H452    1.014   .     S
O453   C454    1.425   .     S
C454   C457    1.540   .     S
C454   H456    1.110   .     S
C454   H455    1.110   .     S
C457   H458    1.107   .     S
C457   H459    1.111   .     S
C457   C460    1.526   .     S
C460   H462    1.111   .     S
C460   H463    1.111   .     S
C460   H461    1.111   .     S
O464   C465    1.424   .     S
C465   H467    1.111   .     S
C465   C468    1.538   .     S
C465   H466    1.110   .     S
C468   H470    1.111   .     S
C468   C471    1.527   .     S
C468   H469    1.107   .     S
C471   H474    1.111   .     S
C471   H472    1.109   .     S
H473   C873    1.110   .     S
C475   O476    1.223   .     D
C475   O477    1.392   .     S
O477   H478    1.013   .     S
C479   O480    1.223   .     D
C479   O481    1.391   .     S
O481   H616    1.010   .     S
H482   O749    1.010   1_455 S
O483   C484    1.415   .     S
C484   H485    1.115   .     S
C484   H486    1.113   .     S
C484   C487    1.529   .     S
C487   H489    1.111   .     S
C487   H488    1.105   .     S
C487   C892    1.526   .     S
C490   H493    1.111   .     S
C490   H492    1.110   .     S
C490   H491    1.109   .     S
O494   C495    1.422   .     S
C495   H496    1.111   .     S
C495   C498    1.540   .     S
C495   H1703   1.104   .     S
H497   C1701   1.104   1_554 S
C498   H500    1.112   .     S
C498   H499    1.102   .     S
C498   C903    1.527   .     S
C501   H502    1.110   .     S
C501   H503    1.110   .     S
C501   H504    1.111   .     S
C505   O507    1.399   .     S
C505   O506    1.218   .     D
O507   H508    1.014   .     S
C509   O511    1.398   .     S
C509   O510    1.223   .     D
O511   H512    1.014   .     S
C513   O514    1.218   .     D
C513   O515    1.399   .     S
O515   H516    1.014   .     S
C517   O518    1.223   .     D
C517   O519    1.398   .     S
O519   H520    1.014   .     S
C521   O523    1.394   .     S
C521   O522    1.222   .     D
O523   H524    1.013   .     S
C525   O526    1.223   .     D
C525   O527    1.391   .     S
O527   H528    1.010   .     S
C529   O531    1.394   .     S
C529   O530    1.222   .     D
O531   H532    1.013   .     S
C533   O534    1.222   .     D
C533   O535    1.394   .     S
O535   H536    1.012   .     S
O537   C541    1.299   .     A
O537   Zn549   2.023   .     S
O538   C542    1.301   .     A
O538   Zn550   2.023   .     S
O539   C542    1.297   .     A
O539   Zn549   2.018   .     S
O540   C541    1.299   .     A
O540   Zn550   2.018   .     S
C541   C572    1.471   .     S
C542   C571    1.472   .     S
O543   C547    1.289   .     A
O543   Zn549   1.994   .     S
O544   C548    1.291   .     A
O544   Zn550   1.994   .     S
O545   Zn549   1.999   .     S
O545   C548    1.288   .     A
O546   Zn550   1.999   .     S
O546   C547    1.288   .     A
C547   C554    1.436   .     S
C548   C553    1.439   .     S
Zn549  N577    2.018   .     S
Zn550  N578    2.018   .     S
C551   C561    1.411   .     A
C551   C553    1.412   .     A
C551   C579    1.491   .     S
C552   C583    1.489   .     S
C552   C562    1.407   .     A
C552   C554    1.408   .     A
C553   C555    1.396   .     A
C554   C556    1.395   .     A
C555   C557    1.400   .     A
C555   O587    1.391   .     S
C556   O598    1.391   .     S
C556   C558    1.402   .     A
C557   C563    1.408   .     A
C557   C559    1.401   .     A
C558   C564    1.410   .     A
C558   C560    1.403   .     A
C559   C561    1.407   .     A
C559   C1766   1.396   .     S
C560   C562    1.409   .     A
C560   C1765   1.396   1_554 S
C561   C566    1.412   .     A
C562   C565    1.414   .     A
C563   C609    1.474   .     S
C563   C1771   1.402   .     S
C564   C613    1.474   .     S
C564   C1772   1.407   1_554 S
C565   O617    1.381   .     S
C565   C1769   1.402   1_554 S
C566   O628    1.384   .     S
C566   C1770   1.407   .     S
C567   C572    1.416   .     A
C567   C639    1.503   .     S
C568   C643    1.492   .     S
C568   C571    1.419   .     A
C568   C704    1.399   .     S
C569   C647    1.503   .     S
C569   C571    1.414   .     A
C569   C701    1.396   .     S
C570   C651    1.492   .     S
C570   C572    1.418   .     A
C573   N578    1.369   .     A
C573   C655    1.474   .     S
C574   C659    1.468   .     S
C574   N577    1.374   .     A
C574   C977    1.421   .     S
C575   N578    1.368   .     A
C575   C663    1.473   .     S
C576   N577    1.371   .     A
C576   C667    1.464   .     S
C576   C975    1.420   .     S
C579   O580    1.221   .     D
C579   O581    1.399   .     S
O581   H582    1.014   .     S
C583   O585    1.398   .     S
C583   O584    1.221   .     D
O585   H586    1.014   .     S
O587   C588    1.425   .     S
C588   C591    1.540   .     S
C588   H590    1.110   .     S
C588   H589    1.110   .     S
C591   H592    1.107   .     S
C591   H593    1.111   .     S
C591   C594    1.526   .     S
C594   H596    1.111   .     S
C594   H597    1.111   .     S
C594   H595    1.111   .     S
O598   C599    1.424   .     S
C599   H601    1.111   .     S
C599   C602    1.538   .     S
C599   H600    1.110   .     S
C602   H604    1.111   .     S
C602   C605    1.527   .     S
C602   H603    1.107   .     S
C605   H608    1.111   .     S
C605   H606    1.109   .     S
H607   C1007   1.110   .     S
C609   O610    1.223   .     D
C609   O611    1.392   .     S
O611   H612    1.013   .     S
C613   O614    1.223   .     D
C613   O615    1.391   .     S
O615   H750    1.010   .     S
O617   C618    1.415   .     S
C618   H619    1.115   .     S
C618   H620    1.113   .     S
C618   C621    1.529   .     S
C621   H623    1.111   .     S
C621   H622    1.105   .     S
C621   C1026   1.526   .     S
C624   H627    1.111   .     S
C624   H626    1.110   .     S
C624   H625    1.109   .     S
O628   C629    1.422   .     S
C629   H630    1.111   .     S
C629   C632    1.540   .     S
C629   H1837   1.104   .     S
H631   C1835   1.104   1_554 S
C632   H634    1.112   .     S
C632   H633    1.102   .     S
C632   C1037   1.527   .     S
C635   H636    1.110   .     S
C635   H637    1.110   .     S
C635   H638    1.111   .     S
C639   O641    1.399   .     S
C639   O640    1.218   .     D
O641   H642    1.014   .     S
C643   O645    1.398   .     S
C643   O644    1.223   .     D
O645   H646    1.014   .     S
C647   O648    1.218   .     D
C647   O649    1.399   .     S
O649   H650    1.014   .     S
C651   O652    1.223   .     D
C651   O653    1.398   .     S
O653   H654    1.014   .     S
C655   O657    1.394   .     S
C655   O656    1.222   .     D
O657   H658    1.013   .     S
C659   O660    1.223   .     D
C659   O661    1.391   .     S
O661   H662    1.010   .     S
C663   O665    1.394   .     S
C663   O664    1.222   .     D
O665   H666    1.013   .     S
C667   O668    1.222   .     D
C667   O669    1.394   .     S
O669   H670    1.012   .     S
O671   C675    1.299   .     A
O671   Zn683   2.023   .     S
O672   C676    1.301   .     A
O672   Zn684   2.023   .     S
O673   C676    1.297   .     A
O673   Zn683   2.018   .     S
O674   C675    1.299   .     A
O674   Zn684   2.018   .     S
C675   C706    1.471   .     S
C676   C705    1.472   .     S
O677   C681    1.289   .     A
O677   Zn683   1.994   .     S
O678   C682    1.291   .     A
O678   Zn684   1.994   .     S
O679   Zn683   1.999   .     S
O679   C682    1.288   .     A
O680   Zn684   1.999   .     S
O680   C681    1.288   .     A
C681   C688    1.436   .     S
C682   C687    1.439   .     S
Zn683  N711    2.018   .     S
Zn684  N712    2.018   .     S
C685   C695    1.411   .     A
C685   C687    1.412   .     A
C685   C713    1.491   .     S
C686   C717    1.489   .     S
C686   C696    1.407   .     A
C686   C688    1.408   .     A
C687   C689    1.396   .     A
C688   C690    1.395   .     A
C689   C691    1.400   .     A
C689   O721    1.391   .     S
C690   O732    1.391   .     S
C690   C692    1.402   .     A
C691   C697    1.408   .     A
C691   C693    1.401   .     A
C692   C698    1.410   .     A
C692   C694    1.403   .     A
C693   C695    1.407   .     A
C693   C1900   1.396   .     S
C694   C696    1.409   .     A
C694   C1899   1.396   1_554 S
C695   C700    1.412   .     A
C696   C699    1.414   .     A
C697   C743    1.474   .     S
C697   C1905   1.402   .     S
C698   C747    1.474   .     S
C698   C1906   1.407   1_554 S
C699   O751    1.381   .     S
C699   C1903   1.402   1_554 S
C700   O762    1.384   .     S
C700   C1904   1.407   .     S
C701   C706    1.416   .     A
C701   C773    1.503   .     S
C702   C777    1.492   .     S
C702   C705    1.419   .     A
C702   C436    1.399   1_655 S
C703   C781    1.503   .     S
C703   C705    1.414   .     A
C703   C433    1.396   1_655 S
C704   C785    1.492   .     S
C704   C706    1.418   .     A
C707   N712    1.369   .     A
C707   C789    1.474   .     S
C708   C793    1.468   .     S
C708   N711    1.374   .     A
C708   C1111   1.421   .     S
C709   N712    1.368   .     A
C709   C797    1.473   .     S
C710   N711    1.371   .     A
C710   C801    1.464   .     S
C710   C1109   1.420   .     S
C713   O714    1.221   .     D
C713   O715    1.399   .     S
O715   H716    1.014   .     S
C717   O719    1.398   .     S
C717   O718    1.221   .     D
O719   H720    1.014   .     S
O721   C722    1.425   .     S
C722   C725    1.540   .     S
C722   H724    1.110   .     S
C722   H723    1.110   .     S
C725   H726    1.107   .     S
C725   H727    1.111   .     S
C725   C728    1.526   .     S
C728   H730    1.111   .     S
C728   H731    1.111   .     S
C728   H729    1.111   .     S
O732   C733    1.424   .     S
C733   H735    1.111   .     S
C733   C736    1.538   .     S
C733   H734    1.110   .     S
C736   H738    1.111   .     S
C736   C739    1.527   .     S
C736   H737    1.107   .     S
C739   H742    1.111   .     S
C739   H740    1.109   .     S
H741   C1141   1.110   .     S
C743   O744    1.223   .     D
C743   O745    1.392   .     S
O745   H746    1.013   .     S
C747   O748    1.223   .     D
C747   O749    1.391   .     S
O749   H482    1.010   1_655 S
O751   C752    1.415   .     S
C752   H753    1.115   .     S
C752   H754    1.113   .     S
C752   C755    1.529   .     S
C755   H757    1.111   .     S
C755   H756    1.105   .     S
C755   C1160   1.526   .     S
C758   H761    1.111   .     S
C758   H760    1.110   .     S
C758   H759    1.109   .     S
O762   C763    1.422   .     S
C763   H764    1.111   .     S
C763   C766    1.540   .     S
C763   H1971   1.104   .     S
H765   C1969   1.104   1_554 S
C766   H768    1.112   .     S
C766   H767    1.102   .     S
C766   C1171   1.527   .     S
C769   H770    1.110   .     S
C769   H771    1.110   .     S
C769   H772    1.111   .     S
C773   O775    1.399   .     S
C773   O774    1.218   .     D
O775   H776    1.014   .     S
C777   O779    1.398   .     S
C777   O778    1.223   .     D
O779   H780    1.014   .     S
C781   O782    1.218   .     D
C781   O783    1.399   .     S
O783   H784    1.014   .     S
C785   O786    1.223   .     D
C785   O787    1.398   .     S
O787   H788    1.014   .     S
C789   O791    1.394   .     S
C789   O790    1.222   .     D
O791   H792    1.013   .     S
C793   O794    1.223   .     D
C793   O795    1.391   .     S
O795   H796    1.010   .     S
C797   O799    1.394   .     S
C797   O798    1.222   .     D
O799   H800    1.013   .     S
C801   O802    1.222   .     D
C801   O803    1.394   .     S
O803   H804    1.012   .     S
O805   C809    1.299   .     A
O805   Zn817   2.023   .     S
O806   C810    1.301   .     A
O806   Zn818   2.023   .     S
O807   C810    1.297   .     A
O807   Zn817   2.018   .     S
O808   C809    1.299   .     A
O808   Zn818   2.018   .     S
C809   C840    1.471   .     S
C810   C839    1.472   .     S
O811   C815    1.289   .     A
O811   Zn817   1.994   .     S
O812   C816    1.291   .     A
O812   Zn818   1.994   .     S
O813   Zn817   1.999   .     S
O813   C816    1.288   .     A
O814   Zn818   1.999   .     S
O814   C815    1.288   .     A
C815   C822    1.436   .     S
C816   C821    1.439   .     S
Zn817  N845    2.018   .     S
Zn818  N846    2.018   .     S
C819   C829    1.411   .     A
C819   C821    1.412   .     A
C819   C847    1.491   .     S
C820   C851    1.489   .     S
C820   C830    1.407   .     A
C820   C822    1.408   .     A
C821   C823    1.396   .     A
C822   C824    1.395   .     A
C823   C825    1.400   .     A
C823   O855    1.391   .     S
C824   O866    1.391   .     S
C824   C826    1.402   .     A
C825   C831    1.408   .     A
C825   C827    1.401   .     A
C826   C832    1.410   .     A
C826   C828    1.403   .     A
C827   C829    1.407   .     A
C827   C2034   1.396   .     S
C828   C830    1.409   .     A
C828   C2033   1.396   1_554 S
C829   C834    1.412   .     A
C830   C833    1.414   .     A
C831   C877    1.474   .     S
C831   C2039   1.402   .     S
C832   C881    1.474   .     S
C832   C2040   1.407   1_554 S
C833   O885    1.381   .     S
C833   C2037   1.402   1_554 S
C834   O896    1.384   .     S
C834   C2038   1.407   .     S
C835   C840    1.416   .     A
C835   C907    1.503   .     S
C835   C1105   1.396   1_455 S
C836   C911    1.492   .     S
C836   C839    1.419   .     A
C836   C972    1.399   .     S
C837   C915    1.503   .     S
C837   C839    1.414   .     A
C837   C969    1.396   .     S
C838   C919    1.492   .     S
C838   C840    1.418   .     A
C838   C1104   1.399   1_455 S
C841   N846    1.369   .     A
C841   C923    1.474   .     S
C842   C927    1.468   .     S
C842   N845    1.374   .     A
C842   C39     1.421   1_565 S
C843   N846    1.368   .     A
C843   C931    1.473   .     S
C844   N845    1.371   .     A
C844   C935    1.464   .     S
C844   C37     1.420   1_565 S
C847   O848    1.221   .     D
C847   O849    1.399   .     S
O849   H850    1.014   .     S
C851   O853    1.398   .     S
C851   O852    1.221   .     D
O853   H854    1.014   .     S
O855   C856    1.425   .     S
C856   C859    1.540   .     S
C856   H858    1.110   .     S
C856   H857    1.110   .     S
C859   H860    1.107   .     S
C859   H861    1.111   .     S
C859   C862    1.526   .     S
C862   H864    1.111   .     S
C862   H865    1.111   .     S
C862   H863    1.111   .     S
O866   C867    1.424   .     S
C867   H869    1.111   .     S
C867   C870    1.538   .     S
C867   H868    1.110   .     S
C870   H872    1.111   .     S
C870   C873    1.527   .     S
C870   H871    1.107   .     S
C873   H876    1.111   .     S
C873   H874    1.109   .     S
H875   C69     1.110   1_565 S
C877   O878    1.223   .     D
C877   O879    1.392   .     S
O879   H880    1.013   .     S
C881   O882    1.223   .     D
C881   O883    1.391   .     S
O883   H1018   1.010   .     S
H884   O1151   1.010   1_455 S
O885   C886    1.415   .     S
C886   H887    1.115   .     S
C886   H888    1.113   .     S
C886   C889    1.529   .     S
C889   H891    1.111   .     S
C889   H890    1.105   .     S
C889   C88     1.526   1_565 S
C892   H895    1.111   .     S
C892   H894    1.110   .     S
C892   H893    1.109   .     S
O896   C897    1.422   .     S
C897   H898    1.111   .     S
C897   C900    1.540   .     S
C897   H2105   1.104   .     S
H899   C2103   1.104   1_554 S
C900   H902    1.112   .     S
C900   H901    1.102   .     S
C900   C99     1.527   1_565 S
C903   H904    1.110   .     S
C903   H905    1.110   .     S
C903   H906    1.111   .     S
C907   O909    1.399   .     S
C907   O908    1.218   .     D
O909   H910    1.014   .     S
C911   O913    1.398   .     S
C911   O912    1.223   .     D
O913   H914    1.014   .     S
C915   O916    1.218   .     D
C915   O917    1.399   .     S
O917   H918    1.014   .     S
C919   O920    1.223   .     D
C919   O921    1.398   .     S
O921   H922    1.014   .     S
C923   O925    1.394   .     S
C923   O924    1.222   .     D
O925   H926    1.013   .     S
C927   O928    1.223   .     D
C927   O929    1.391   .     S
O929   H930    1.010   .     S
C931   O933    1.394   .     S
C931   O932    1.222   .     D
O933   H934    1.013   .     S
C935   O936    1.222   .     D
C935   O937    1.394   .     S
O937   H938    1.012   .     S
O939   C943    1.299   .     A
O939   Zn951   2.023   .     S
O940   C944    1.301   .     A
O940   Zn952   2.023   .     S
O941   C944    1.297   .     A
O941   Zn951   2.018   .     S
O942   C943    1.299   .     A
O942   Zn952   2.018   .     S
C943   C974    1.471   .     S
C944   C973    1.472   .     S
O945   C949    1.289   .     A
O945   Zn951   1.994   .     S
O946   C950    1.291   .     A
O946   Zn952   1.994   .     S
O947   Zn951   1.999   .     S
O947   C950    1.288   .     A
O948   Zn952   1.999   .     S
O948   C949    1.288   .     A
C949   C956    1.436   .     S
C950   C955    1.439   .     S
Zn951  N979    2.018   .     S
Zn952  N980    2.018   .     S
C953   C963    1.411   .     A
C953   C955    1.412   .     A
C953   C981    1.491   .     S
C954   C985    1.489   .     S
C954   C964    1.407   .     A
C954   C956    1.408   .     A
C955   C957    1.396   .     A
C956   C958    1.395   .     A
C957   C959    1.400   .     A
C957   O989    1.391   .     S
C958   O1000   1.391   .     S
C958   C960    1.402   .     A
C959   C965    1.408   .     A
C959   C961    1.401   .     A
C960   C966    1.410   .     A
C960   C962    1.403   .     A
C961   C963    1.407   .     A
C961   C2168   1.396   .     S
C962   C964    1.409   .     A
C962   C2167   1.396   1_554 S
C963   C968    1.412   .     A
C964   C967    1.414   .     A
C965   C1011   1.474   .     S
C965   C2173   1.402   .     S
C966   C1015   1.474   .     S
C966   C2174   1.407   1_554 S
C967   O1019   1.381   .     S
C967   C2171   1.402   1_554 S
C968   O1030   1.384   .     S
C968   C2172   1.407   .     S
C969   C974    1.416   .     A
C969   C1041   1.503   .     S
C970   C1045   1.492   .     S
C970   C973    1.419   .     A
C970   C1106   1.399   .     S
C971   C1049   1.503   .     S
C971   C973    1.414   .     A
C971   C1103   1.396   .     S
C972   C1053   1.492   .     S
C972   C974    1.418   .     A
C975   N980    1.369   .     A
C975   C1057   1.474   .     S
C976   C1061   1.468   .     S
C976   N979    1.374   .     A
C976   C173    1.421   1_565 S
C977   N980    1.368   .     A
C977   C1065   1.473   .     S
C978   N979    1.371   .     A
C978   C1069   1.464   .     S
C978   C171    1.420   1_565 S
C981   O982    1.221   .     D
C981   O983    1.399   .     S
O983   H984    1.014   .     S
C985   O987    1.398   .     S
C985   O986    1.221   .     D
O987   H988    1.014   .     S
O989   C990    1.425   .     S
C990   C993    1.540   .     S
C990   H992    1.110   .     S
C990   H991    1.110   .     S
C993   H994    1.107   .     S
C993   H995    1.111   .     S
C993   C996    1.526   .     S
C996   H998    1.111   .     S
C996   H999    1.111   .     S
C996   H997    1.111   .     S
O1000  C1001   1.424   .     S
C1001  H1003   1.111   .     S
C1001  C1004   1.538   .     S
C1001  H1002   1.110   .     S
C1004  H1006   1.111   .     S
C1004  C1007   1.527   .     S
C1004  H1005   1.107   .     S
C1007  H1010   1.111   .     S
C1007  H1008   1.109   .     S
H1009  C203    1.110   1_565 S
C1011  O1012   1.223   .     D
C1011  O1013   1.392   .     S
O1013  H1014   1.013   .     S
C1015  O1016   1.223   .     D
C1015  O1017   1.391   .     S
O1017  H1152   1.010   .     S
O1019  C1020   1.415   .     S
C1020  H1021   1.115   .     S
C1020  H1022   1.113   .     S
C1020  C1023   1.529   .     S
C1023  H1025   1.111   .     S
C1023  H1024   1.105   .     S
C1023  C222    1.526   1_565 S
C1026  H1029   1.111   .     S
C1026  H1028   1.110   .     S
C1026  H1027   1.109   .     S
O1030  C1031   1.422   .     S
C1031  H1032   1.111   .     S
C1031  C1034   1.540   .     S
C1031  H2239   1.104   .     S
H1033  C2237   1.104   1_554 S
C1034  H1036   1.112   .     S
C1034  H1035   1.102   .     S
C1034  C233    1.527   1_565 S
C1037  H1038   1.110   .     S
C1037  H1039   1.110   .     S
C1037  H1040   1.111   .     S
C1041  O1043   1.399   .     S
C1041  O1042   1.218   .     D
O1043  H1044   1.014   .     S
C1045  O1047   1.398   .     S
C1045  O1046   1.223   .     D
O1047  H1048   1.014   .     S
C1049  O1050   1.218   .     D
C1049  O1051   1.399   .     S
O1051  H1052   1.014   .     S
C1053  O1054   1.223   .     D
C1053  O1055   1.398   .     S
O1055  H1056   1.014   .     S
C1057  O1059   1.394   .     S
C1057  O1058   1.222   .     D
O1059  H1060   1.013   .     S
C1061  O1062   1.223   .     D
C1061  O1063   1.391   .     S
O1063  H1064   1.010   .     S
C1065  O1067   1.394   .     S
C1065  O1066   1.222   .     D
O1067  H1068   1.013   .     S
C1069  O1070   1.222   .     D
C1069  O1071   1.394   .     S
O1071  H1072   1.012   .     S
O1073  C1077   1.299   .     A
O1073  Zn1085  2.023   .     S
O1074  C1078   1.301   .     A
O1074  Zn1086  2.023   .     S
O1075  C1078   1.297   .     A
O1075  Zn1085  2.018   .     S
O1076  C1077   1.299   .     A
O1076  Zn1086  2.018   .     S
C1077  C1108   1.471   .     S
C1078  C1107   1.472   .     S
O1079  C1083   1.289   .     A
O1079  Zn1085  1.994   .     S
O1080  C1084   1.291   .     A
O1080  Zn1086  1.994   .     S
O1081  Zn1085  1.999   .     S
O1081  C1084   1.288   .     A
O1082  Zn1086  1.999   .     S
O1082  C1083   1.288   .     A
C1083  C1090   1.436   .     S
C1084  C1089   1.439   .     S
Zn1085 N1113   2.018   .     S
Zn1086 N1114   2.018   .     S
C1087  C1097   1.411   .     A
C1087  C1089   1.412   .     A
C1087  C1115   1.491   .     S
C1088  C1119   1.489   .     S
C1088  C1098   1.407   .     A
C1088  C1090   1.408   .     A
C1089  C1091   1.396   .     A
C1090  C1092   1.395   .     A
C1091  C1093   1.400   .     A
C1091  O1123   1.391   .     S
C1092  O1134   1.391   .     S
C1092  C1094   1.402   .     A
C1093  C1099   1.408   .     A
C1093  C1095   1.401   .     A
C1094  C1100   1.410   .     A
C1094  C1096   1.403   .     A
C1095  C1097   1.407   .     A
C1095  C2302   1.396   .     S
C1096  C1098   1.409   .     A
C1096  C2301   1.396   1_554 S
C1097  C1102   1.412   .     A
C1098  C1101   1.414   .     A
C1099  C1145   1.474   .     S
C1099  C2307   1.402   .     S
C1100  C1149   1.474   .     S
C1100  C2308   1.407   1_554 S
C1101  O1153   1.381   .     S
C1101  C2305   1.402   1_554 S
C1102  O1164   1.384   .     S
C1102  C2306   1.407   .     S
C1103  C1108   1.416   .     A
C1103  C1175   1.503   .     S
C1104  C1179   1.492   .     S
C1104  C1107   1.419   .     A
C1104  C838    1.399   1_655 S
C1105  C1183   1.503   .     S
C1105  C1107   1.414   .     A
C1105  C835    1.396   1_655 S
C1106  C1187   1.492   .     S
C1106  C1108   1.418   .     A
C1109  N1114   1.369   .     A
C1109  C1191   1.474   .     S
C1110  C1195   1.468   .     S
C1110  N1113   1.374   .     A
C1110  C307    1.421   1_565 S
C1111  N1114   1.368   .     A
C1111  C1199   1.473   .     S
C1112  N1113   1.371   .     A
C1112  C1203   1.464   .     S
C1112  C305    1.420   1_565 S
C1115  O1116   1.221   .     D
C1115  O1117   1.399   .     S
O1117  H1118   1.014   .     S
C1119  O1121   1.398   .     S
C1119  O1120   1.221   .     D
O1121  H1122   1.014   .     S
O1123  C1124   1.425   .     S
C1124  C1127   1.540   .     S
C1124  H1126   1.110   .     S
C1124  H1125   1.110   .     S
C1127  H1128   1.107   .     S
C1127  H1129   1.111   .     S
C1127  C1130   1.526   .     S
C1130  H1132   1.111   .     S
C1130  H1133   1.111   .     S
C1130  H1131   1.111   .     S
O1134  C1135   1.424   .     S
C1135  H1137   1.111   .     S
C1135  C1138   1.538   .     S
C1135  H1136   1.110   .     S
C1138  H1140   1.111   .     S
C1138  C1141   1.527   .     S
C1138  H1139   1.107   .     S
C1141  H1144   1.111   .     S
C1141  H1142   1.109   .     S
H1143  C337    1.110   1_565 S
C1145  O1146   1.223   .     D
C1145  O1147   1.392   .     S
O1147  H1148   1.013   .     S
C1149  O1150   1.223   .     D
C1149  O1151   1.391   .     S
O1151  H884    1.010   1_655 S
O1153  C1154   1.415   .     S
C1154  H1155   1.115   .     S
C1154  H1156   1.113   .     S
C1154  C1157   1.529   .     S
C1157  H1159   1.111   .     S
C1157  H1158   1.105   .     S
C1157  C356    1.526   1_565 S
C1160  H1163   1.111   .     S
C1160  H1162   1.110   .     S
C1160  H1161   1.109   .     S
O1164  C1165   1.422   .     S
C1165  H1166   1.111   .     S
C1165  C1168   1.540   .     S
C1165  H2373   1.104   .     S
H1167  C2371   1.104   1_554 S
C1168  H1170   1.112   .     S
C1168  H1169   1.102   .     S
C1168  C367    1.527   1_565 S
C1171  H1172   1.110   .     S
C1171  H1173   1.110   .     S
C1171  H1174   1.111   .     S
C1175  O1177   1.399   .     S
C1175  O1176   1.218   .     D
O1177  H1178   1.014   .     S
C1179  O1181   1.398   .     S
C1179  O1180   1.223   .     D
O1181  H1182   1.014   .     S
C1183  O1184   1.218   .     D
C1183  O1185   1.399   .     S
O1185  H1186   1.014   .     S
C1187  O1188   1.223   .     D
C1187  O1189   1.398   .     S
O1189  H1190   1.014   .     S
C1191  O1193   1.394   .     S
C1191  O1192   1.222   .     D
O1193  H1194   1.013   .     S
C1195  O1196   1.223   .     D
C1195  O1197   1.391   .     S
O1197  H1198   1.010   .     S
C1199  O1201   1.394   .     S
C1199  O1200   1.222   .     D
O1201  H1202   1.013   .     S
C1203  O1204   1.222   .     D
C1203  O1205   1.394   .     S
O1205  H1206   1.012   .     S
O1207  C1211   1.299   .     A
O1207  Zn1219  2.023   .     S
O1208  C1212   1.301   .     A
O1208  Zn1220  2.023   .     S
O1209  C1212   1.297   .     A
O1209  Zn1219  2.018   .     S
O1210  C1211   1.299   .     A
O1210  Zn1220  2.018   .     S
C1211  C1242   1.471   .     S
C1212  C1241   1.472   .     S
O1213  C1217   1.289   .     A
O1213  Zn1219  1.994   .     S
O1214  C1218   1.291   .     A
O1214  Zn1220  1.994   .     S
O1215  Zn1219  1.999   .     S
O1215  C1218   1.288   .     A
O1216  Zn1220  1.999   .     S
O1216  C1217   1.288   .     A
C1217  C1224   1.436   .     S
C1218  C1223   1.439   .     S
Zn1219 N1247   2.018   .     S
Zn1220 N1248   2.018   .     S
C1221  C1231   1.411   .     A
C1221  C1223   1.412   .     A
C1221  C1249   1.491   .     S
C1222  C1253   1.489   .     S
C1222  C1232   1.407   .     A
C1222  C1224   1.408   .     A
C1223  C1225   1.396   .     A
C1224  C1226   1.395   .     A
C1225  C1227   1.400   .     A
C1225  O1257   1.391   .     S
C1226  O1268   1.391   .     S
C1226  C1228   1.402   .     A
C1227  C1233   1.408   .     A
C1227  C1229   1.401   .     A
C1228  C1234   1.410   .     A
C1228  C1230   1.403   .     A
C1229  C1231   1.407   .     A
C1229  C24     1.396   1_556 S
C1230  C1232   1.409   .     A
C1231  C1236   1.412   .     A
C1232  C1235   1.414   .     A
C1233  C1279   1.474   .     S
C1233  C29     1.402   1_556 S
C1234  C1283   1.474   .     S
C1235  O1287   1.381   .     S
C1236  O1298   1.384   .     S
C1236  C28     1.407   1_556 S
C1237  C1242   1.416   .     A
C1237  C1309   1.503   .     S
C1237  C1507   1.396   1_455 S
C1238  C1313   1.492   .     S
C1238  C1241   1.419   .     A
C1238  C1374   1.399   .     S
C1239  C1317   1.503   .     S
C1239  C1241   1.414   .     A
C1239  C1371   1.396   .     S
C1240  C1321   1.492   .     S
C1240  C1242   1.418   .     A
C1240  C1506   1.399   1_455 S
C1243  N1248   1.369   .     A
C1243  C1325   1.474   .     S
C1243  C2050   1.420   1_545 S
C1244  C1329   1.468   .     S
C1244  N1247   1.374   .     A
C1244  C1647   1.421   .     S
C1245  N1248   1.368   .     A
C1245  C1333   1.473   .     S
C1245  C2048   1.421   1_545 S
C1246  N1247   1.371   .     A
C1246  C1337   1.464   .     S
C1246  C1645   1.420   .     S
C1249  O1250   1.221   .     D
C1249  O1251   1.399   .     S
O1251  H1252   1.014   .     S
C1253  O1255   1.398   .     S
C1253  O1254   1.221   .     D
O1255  H1256   1.014   .     S
O1257  C1258   1.425   .     S
C1258  C1261   1.540   .     S
C1258  H1260   1.110   .     S
C1258  H1259   1.110   .     S
C1261  H1262   1.107   .     S
C1261  H1263   1.111   .     S
C1261  C1264   1.526   .     S
C1264  H1266   1.111   .     S
C1264  H1267   1.111   .     S
C1264  H1265   1.111   .     S
O1268  C1269   1.424   .     S
C1269  H1271   1.111   .     S
C1269  C1272   1.538   .     S
C1269  H1270   1.110   .     S
C1272  H1274   1.111   .     S
C1272  C1275   1.527   .     S
C1272  H1273   1.107   .     S
C1275  H1278   1.111   .     S
C1275  H1276   1.109   .     S
C1275  H2081   1.110   1_545 S
H1277  C1677   1.110   .     S
C1279  O1280   1.223   .     D
C1279  O1281   1.392   .     S
O1281  H1282   1.013   .     S
C1283  O1284   1.223   .     D
C1283  O1285   1.391   .     S
O1285  H1420   1.010   .     S
H1286  O1553   1.010   1_455 S
O1287  C1288   1.415   .     S
C1288  H1289   1.115   .     S
C1288  H1290   1.113   .     S
C1288  C1291   1.529   .     S
C1291  H1293   1.111   .     S
C1291  H1292   1.105   .     S
C1291  C1696   1.526   .     S
C1294  H1297   1.111   .     S
C1294  H1296   1.110   .     S
C1294  H1295   1.109   .     S
C1294  C2095   1.526   1_545 S
O1298  C1299   1.422   .     S
C1299  H1300   1.111   .     S
C1299  C1302   1.540   .     S
C1299  H95     1.104   1_556 S
C1302  H1304   1.112   .     S
C1302  H1303   1.102   .     S
C1302  C1707   1.527   .     S
C1305  H1306   1.110   .     S
C1305  H1307   1.110   .     S
C1305  H1308   1.111   .     S
C1305  C2106   1.527   1_545 S
C1309  O1311   1.399   .     S
C1309  O1310   1.218   .     D
O1311  H1312   1.014   .     S
C1313  O1315   1.398   .     S
C1313  O1314   1.223   .     D
O1315  H1316   1.014   .     S
C1317  O1318   1.218   .     D
C1317  O1319   1.399   .     S
O1319  H1320   1.014   .     S
C1321  O1322   1.223   .     D
C1321  O1323   1.398   .     S
O1323  H1324   1.014   .     S
C1325  O1327   1.394   .     S
C1325  O1326   1.222   .     D
O1327  H1328   1.013   .     S
C1329  O1330   1.223   .     D
C1329  O1331   1.391   .     S
O1331  H1332   1.010   .     S
C1333  O1335   1.394   .     S
C1333  O1334   1.222   .     D
O1335  H1336   1.013   .     S
C1337  O1338   1.222   .     D
C1337  O1339   1.394   .     S
O1339  H1340   1.012   .     S
O1341  C1345   1.299   .     A
O1341  Zn1353  2.023   .     S
O1342  C1346   1.301   .     A
O1342  Zn1354  2.023   .     S
O1343  C1346   1.297   .     A
O1343  Zn1353  2.018   .     S
O1344  C1345   1.299   .     A
O1344  Zn1354  2.018   .     S
C1345  C1376   1.471   .     S
C1346  C1375   1.472   .     S
O1347  C1351   1.289   .     A
O1347  Zn1353  1.994   .     S
O1348  C1352   1.291   .     A
O1348  Zn1354  1.994   .     S
O1349  Zn1353  1.999   .     S
O1349  C1352   1.288   .     A
O1350  Zn1354  1.999   .     S
O1350  C1351   1.288   .     A
C1351  C1358   1.436   .     S
C1352  C1357   1.439   .     S
Zn1353 N1381   2.018   .     S
Zn1354 N1382   2.018   .     S
C1355  C1365   1.411   .     A
C1355  C1357   1.412   .     A
C1355  C1383   1.491   .     S
C1356  C1387   1.489   .     S
C1356  C1366   1.407   .     A
C1356  C1358   1.408   .     A
C1357  C1359   1.396   .     A
C1358  C1360   1.395   .     A
C1359  C1361   1.400   .     A
C1359  O1391   1.391   .     S
C1360  O1402   1.391   .     S
C1360  C1362   1.402   .     A
C1361  C1367   1.408   .     A
C1361  C1363   1.401   .     A
C1362  C1368   1.410   .     A
C1362  C1364   1.403   .     A
C1363  C1365   1.407   .     A
C1363  C158    1.396   1_556 S
C1364  C1366   1.409   .     A
C1365  C1370   1.412   .     A
C1366  C1369   1.414   .     A
C1367  C1413   1.474   .     S
C1367  C163    1.402   1_556 S
C1368  C1417   1.474   .     S
C1369  O1421   1.381   .     S
C1370  O1432   1.384   .     S
C1370  C162    1.407   1_556 S
C1371  C1376   1.416   .     A
C1371  C1443   1.503   .     S
C1372  C1447   1.492   .     S
C1372  C1375   1.419   .     A
C1372  C1508   1.399   .     S
C1373  C1451   1.503   .     S
C1373  C1375   1.414   .     A
C1373  C1505   1.396   .     S
C1374  C1455   1.492   .     S
C1374  C1376   1.418   .     A
C1377  N1382   1.369   .     A
C1377  C1459   1.474   .     S
C1377  C2184   1.420   1_545 S
C1378  C1463   1.468   .     S
C1378  N1381   1.374   .     A
C1378  C1781   1.421   .     S
C1379  N1382   1.368   .     A
C1379  C1467   1.473   .     S
C1379  C2182   1.421   1_545 S
C1380  N1381   1.371   .     A
C1380  C1471   1.464   .     S
C1380  C1779   1.420   .     S
C1383  O1384   1.221   .     D
C1383  O1385   1.399   .     S
O1385  H1386   1.014   .     S
C1387  O1389   1.398   .     S
C1387  O1388   1.221   .     D
O1389  H1390   1.014   .     S
O1391  C1392   1.425   .     S
C1392  C1395   1.540   .     S
C1392  H1394   1.110   .     S
C1392  H1393   1.110   .     S
C1395  H1396   1.107   .     S
C1395  H1397   1.111   .     S
C1395  C1398   1.526   .     S
C1398  H1400   1.111   .     S
C1398  H1401   1.111   .     S
C1398  H1399   1.111   .     S
O1402  C1403   1.424   .     S
C1403  H1405   1.111   .     S
C1403  C1406   1.538   .     S
C1403  H1404   1.110   .     S
C1406  H1408   1.111   .     S
C1406  C1409   1.527   .     S
C1406  H1407   1.107   .     S
C1409  H1412   1.111   .     S
C1409  H1410   1.109   .     S
C1409  H2215   1.110   1_545 S
H1411  C1811   1.110   .     S
C1413  O1414   1.223   .     D
C1413  O1415   1.392   .     S
O1415  H1416   1.013   .     S
C1417  O1418   1.223   .     D
C1417  O1419   1.391   .     S
O1419  H1554   1.010   .     S
O1421  C1422   1.415   .     S
C1422  H1423   1.115   .     S
C1422  H1424   1.113   .     S
C1422  C1425   1.529   .     S
C1425  H1427   1.111   .     S
C1425  H1426   1.105   .     S
C1425  C1830   1.526   .     S
C1428  H1431   1.111   .     S
C1428  H1430   1.110   .     S
C1428  H1429   1.109   .     S
C1428  C2229   1.526   1_545 S
O1432  C1433   1.422   .     S
C1433  H1434   1.111   .     S
C1433  C1436   1.540   .     S
C1433  H229    1.104   1_556 S
C1436  H1438   1.112   .     S
C1436  H1437   1.102   .     S
C1436  C1841   1.527   .     S
C1439  H1440   1.110   .     S
C1439  H1441   1.110   .     S
C1439  H1442   1.111   .     S
C1439  C2240   1.527   1_545 S
C1443  O1445   1.399   .     S
C1443  O1444   1.218   .     D
O1445  H1446   1.014   .     S
C1447  O1449   1.398   .     S
C1447  O1448   1.223   .     D
O1449  H1450   1.014   .     S
C1451  O1452   1.218   .     D
C1451  O1453   1.399   .     S
O1453  H1454   1.014   .     S
C1455  O1456   1.223   .     D
C1455  O1457   1.398   .     S
O1457  H1458   1.014   .     S
C1459  O1461   1.394   .     S
C1459  O1460   1.222   .     D
O1461  H1462   1.013   .     S
C1463  O1464   1.223   .     D
C1463  O1465   1.391   .     S
O1465  H1466   1.010   .     S
C1467  O1469   1.394   .     S
C1467  O1468   1.222   .     D
O1469  H1470   1.013   .     S
C1471  O1472   1.222   .     D
C1471  O1473   1.394   .     S
O1473  H1474   1.012   .     S
O1475  C1479   1.299   .     A
O1475  Zn1487  2.023   .     S
O1476  C1480   1.301   .     A
O1476  Zn1488  2.023   .     S
O1477  C1480   1.297   .     A
O1477  Zn1487  2.018   .     S
O1478  C1479   1.299   .     A
O1478  Zn1488  2.018   .     S
C1479  C1510   1.471   .     S
C1480  C1509   1.472   .     S
O1481  C1485   1.289   .     A
O1481  Zn1487  1.994   .     S
O1482  C1486   1.291   .     A
O1482  Zn1488  1.994   .     S
O1483  Zn1487  1.999   .     S
O1483  C1486   1.288   .     A
O1484  Zn1488  1.999   .     S
O1484  C1485   1.288   .     A
C1485  C1492   1.436   .     S
C1486  C1491   1.439   .     S
Zn1487 N1515   2.018   .     S
Zn1488 N1516   2.018   .     S
C1489  C1499   1.411   .     A
C1489  C1491   1.412   .     A
C1489  C1517   1.491   .     S
C1490  C1521   1.489   .     S
C1490  C1500   1.407   .     A
C1490  C1492   1.408   .     A
C1491  C1493   1.396   .     A
C1492  C1494   1.395   .     A
C1493  C1495   1.400   .     A
C1493  O1525   1.391   .     S
C1494  O1536   1.391   .     S
C1494  C1496   1.402   .     A
C1495  C1501   1.408   .     A
C1495  C1497   1.401   .     A
C1496  C1502   1.410   .     A
C1496  C1498   1.403   .     A
C1497  C1499   1.407   .     A
C1497  C292    1.396   1_556 S
C1498  C1500   1.409   .     A
C1499  C1504   1.412   .     A
C1500  C1503   1.414   .     A
C1501  C1547   1.474   .     S
C1501  C297    1.402   1_556 S
C1502  C1551   1.474   .     S
C1503  O1555   1.381   .     S
C1504  O1566   1.384   .     S
C1504  C296    1.407   1_556 S
C1505  C1510   1.416   .     A
C1505  C1577   1.503   .     S
C1506  C1581   1.492   .     S
C1506  C1509   1.419   .     A
C1506  C1240   1.399   1_655 S
C1507  C1585   1.503   .     S
C1507  C1509   1.414   .     A
C1507  C1237   1.396   1_655 S
C1508  C1589   1.492   .     S
C1508  C1510   1.418   .     A
C1511  N1516   1.369   .     A
C1511  C1593   1.474   .     S
C1511  C2318   1.420   1_545 S
C1512  C1597   1.468   .     S
C1512  N1515   1.374   .     A
C1512  C1915   1.421   .     S
C1513  N1516   1.368   .     A
C1513  C1601   1.473   .     S
C1513  C2316   1.421   1_545 S
C1514  N1515   1.371   .     A
C1514  C1605   1.464   .     S
C1514  C1913   1.420   .     S
C1517  O1518   1.221   .     D
C1517  O1519   1.399   .     S
O1519  H1520   1.014   .     S
C1521  O1523   1.398   .     S
C1521  O1522   1.221   .     D
O1523  H1524   1.014   .     S
O1525  C1526   1.425   .     S
C1526  C1529   1.540   .     S
C1526  H1528   1.110   .     S
C1526  H1527   1.110   .     S
C1529  H1530   1.107   .     S
C1529  H1531   1.111   .     S
C1529  C1532   1.526   .     S
C1532  H1534   1.111   .     S
C1532  H1535   1.111   .     S
C1532  H1533   1.111   .     S
O1536  C1537   1.424   .     S
C1537  H1539   1.111   .     S
C1537  C1540   1.538   .     S
C1537  H1538   1.110   .     S
C1540  H1542   1.111   .     S
C1540  C1543   1.527   .     S
C1540  H1541   1.107   .     S
C1543  H1546   1.111   .     S
C1543  H1544   1.109   .     S
C1543  H2349   1.110   1_545 S
H1545  C1945   1.110   .     S
C1547  O1548   1.223   .     D
C1547  O1549   1.392   .     S
O1549  H1550   1.013   .     S
C1551  O1552   1.223   .     D
C1551  O1553   1.391   .     S
O1553  H1286   1.010   1_655 S
O1555  C1556   1.415   .     S
C1556  H1557   1.115   .     S
C1556  H1558   1.113   .     S
C1556  C1559   1.529   .     S
C1559  H1561   1.111   .     S
C1559  H1560   1.105   .     S
C1559  C1964   1.526   .     S
C1562  H1565   1.111   .     S
C1562  H1564   1.110   .     S
C1562  H1563   1.109   .     S
C1562  C2363   1.526   1_545 S
O1566  C1567   1.422   .     S
C1567  H1568   1.111   .     S
C1567  C1570   1.540   .     S
C1567  H363    1.104   1_556 S
C1570  H1572   1.112   .     S
C1570  H1571   1.102   .     S
C1570  C1975   1.527   .     S
C1573  H1574   1.110   .     S
C1573  H1575   1.110   .     S
C1573  H1576   1.111   .     S
C1573  C2374   1.527   1_545 S
C1577  O1579   1.399   .     S
C1577  O1578   1.218   .     D
O1579  H1580   1.014   .     S
C1581  O1583   1.398   .     S
C1581  O1582   1.223   .     D
O1583  H1584   1.014   .     S
C1585  O1586   1.218   .     D
C1585  O1587   1.399   .     S
O1587  H1588   1.014   .     S
C1589  O1590   1.223   .     D
C1589  O1591   1.398   .     S
O1591  H1592   1.014   .     S
C1593  O1595   1.394   .     S
C1593  O1594   1.222   .     D
O1595  H1596   1.013   .     S
C1597  O1598   1.223   .     D
C1597  O1599   1.391   .     S
O1599  H1600   1.010   .     S
C1601  O1603   1.394   .     S
C1601  O1602   1.222   .     D
O1603  H1604   1.013   .     S
C1605  O1606   1.222   .     D
C1605  O1607   1.394   .     S
O1607  H1608   1.012   .     S
O1609  C1613   1.299   .     A
O1609  Zn1621  2.023   .     S
O1610  C1614   1.301   .     A
O1610  Zn1622  2.023   .     S
O1611  C1614   1.297   .     A
O1611  Zn1621  2.018   .     S
O1612  C1613   1.299   .     A
O1612  Zn1622  2.018   .     S
C1613  C1644   1.471   .     S
C1614  C1643   1.472   .     S
O1615  C1619   1.289   .     A
O1615  Zn1621  1.994   .     S
O1616  C1620   1.291   .     A
O1616  Zn1622  1.994   .     S
O1617  Zn1621  1.999   .     S
O1617  C1620   1.288   .     A
O1618  Zn1622  1.999   .     S
O1618  C1619   1.288   .     A
C1619  C1626   1.436   .     S
C1620  C1625   1.439   .     S
Zn1621 N1649   2.018   .     S
Zn1622 N1650   2.018   .     S
C1623  C1633   1.411   .     A
C1623  C1625   1.412   .     A
C1623  C1651   1.491   .     S
C1624  C1655   1.489   .     S
C1624  C1634   1.407   .     A
C1624  C1626   1.408   .     A
C1625  C1627   1.396   .     A
C1626  C1628   1.395   .     A
C1627  C1629   1.400   .     A
C1627  O1659   1.391   .     S
C1628  O1670   1.391   .     S
C1628  C1630   1.402   .     A
C1629  C1635   1.408   .     A
C1629  C1631   1.401   .     A
C1630  C1636   1.410   .     A
C1630  C1632   1.403   .     A
C1631  C1633   1.407   .     A
C1631  C426    1.396   1_556 S
C1632  C1634   1.409   .     A
C1633  C1638   1.412   .     A
C1634  C1637   1.414   .     A
C1635  C1681   1.474   .     S
C1635  C431    1.402   1_556 S
C1636  C1685   1.474   .     S
C1637  O1689   1.381   .     S
C1638  O1700   1.384   .     S
C1638  C430    1.407   1_556 S
C1639  C1644   1.416   .     A
C1639  C1711   1.503   .     S
C1639  C1909   1.396   1_455 S
C1640  C1715   1.492   .     S
C1640  C1643   1.419   .     A
C1640  C1776   1.399   .     S
C1641  C1719   1.503   .     S
C1641  C1643   1.414   .     A
C1641  C1773   1.396   .     S
C1642  C1723   1.492   .     S
C1642  C1644   1.418   .     A
C1642  C1908   1.399   1_455 S
C1645  N1650   1.369   .     A
C1645  C1727   1.474   .     S
C1646  C1731   1.468   .     S
C1646  N1649   1.374   .     A
C1646  C2049   1.421   .     S
C1647  N1650   1.368   .     A
C1647  C1735   1.473   .     S
C1648  N1649   1.371   .     A
C1648  C1739   1.464   .     S
C1648  C2047   1.420   .     S
C1651  O1652   1.221   .     D
C1651  O1653   1.399   .     S
O1653  H1654   1.014   .     S
C1655  O1657   1.398   .     S
C1655  O1656   1.221   .     D
O1657  H1658   1.014   .     S
O1659  C1660   1.425   .     S
C1660  C1663   1.540   .     S
C1660  H1662   1.110   .     S
C1660  H1661   1.110   .     S
C1663  H1664   1.107   .     S
C1663  H1665   1.111   .     S
C1663  C1666   1.526   .     S
C1666  H1668   1.111   .     S
C1666  H1669   1.111   .     S
C1666  H1667   1.111   .     S
O1670  C1671   1.424   .     S
C1671  H1673   1.111   .     S
C1671  C1674   1.538   .     S
C1671  H1672   1.110   .     S
C1674  H1676   1.111   .     S
C1674  C1677   1.527   .     S
C1674  H1675   1.107   .     S
C1677  H1680   1.111   .     S
C1677  H1678   1.109   .     S
H1679  C2079   1.110   .     S
C1681  O1682   1.223   .     D
C1681  O1683   1.392   .     S
O1683  H1684   1.013   .     S
C1685  O1686   1.223   .     D
C1685  O1687   1.391   .     S
O1687  H1822   1.010   .     S
H1688  O1955   1.010   1_455 S
O1689  C1690   1.415   .     S
C1690  H1691   1.115   .     S
C1690  H1692   1.113   .     S
C1690  C1693   1.529   .     S
C1693  H1695   1.111   .     S
C1693  H1694   1.105   .     S
C1693  C2098   1.526   .     S
C1696  H1699   1.111   .     S
C1696  H1698   1.110   .     S
C1696  H1697   1.109   .     S
O1700  C1701   1.422   .     S
C1701  H1702   1.111   .     S
C1701  C1704   1.540   .     S
C1701  H497    1.104   1_556 S
C1704  H1706   1.112   .     S
C1704  H1705   1.102   .     S
C1704  C2109   1.527   .     S
C1707  H1708   1.110   .     S
C1707  H1709   1.110   .     S
C1707  H1710   1.111   .     S
C1711  O1713   1.399   .     S
C1711  O1712   1.218   .     D
O1713  H1714   1.014   .     S
C1715  O1717   1.398   .     S
C1715  O1716   1.223   .     D
O1717  H1718   1.014   .     S
C1719  O1720   1.218   .     D
C1719  O1721   1.399   .     S
O1721  H1722   1.014   .     S
C1723  O1724   1.223   .     D
C1723  O1725   1.398   .     S
O1725  H1726   1.014   .     S
C1727  O1729   1.394   .     S
C1727  O1728   1.222   .     D
O1729  H1730   1.013   .     S
C1731  O1732   1.223   .     D
C1731  O1733   1.391   .     S
O1733  H1734   1.010   .     S
C1735  O1737   1.394   .     S
C1735  O1736   1.222   .     D
O1737  H1738   1.013   .     S
C1739  O1740   1.222   .     D
C1739  O1741   1.394   .     S
O1741  H1742   1.012   .     S
O1743  C1747   1.299   .     A
O1743  Zn1755  2.023   .     S
O1744  C1748   1.301   .     A
O1744  Zn1756  2.023   .     S
O1745  C1748   1.297   .     A
O1745  Zn1755  2.018   .     S
O1746  C1747   1.299   .     A
O1746  Zn1756  2.018   .     S
C1747  C1778   1.471   .     S
C1748  C1777   1.472   .     S
O1749  C1753   1.289   .     A
O1749  Zn1755  1.994   .     S
O1750  C1754   1.291   .     A
O1750  Zn1756  1.994   .     S
O1751  Zn1755  1.999   .     S
O1751  C1754   1.288   .     A
O1752  Zn1756  1.999   .     S
O1752  C1753   1.288   .     A
C1753  C1760   1.436   .     S
C1754  C1759   1.439   .     S
Zn1755 N1783   2.018   .     S
Zn1756 N1784   2.018   .     S
C1757  C1767   1.411   .     A
C1757  C1759   1.412   .     A
C1757  C1785   1.491   .     S
C1758  C1789   1.489   .     S
C1758  C1768   1.407   .     A
C1758  C1760   1.408   .     A
C1759  C1761   1.396   .     A
C1760  C1762   1.395   .     A
C1761  C1763   1.400   .     A
C1761  O1793   1.391   .     S
C1762  O1804   1.391   .     S
C1762  C1764   1.402   .     A
C1763  C1769   1.408   .     A
C1763  C1765   1.401   .     A
C1764  C1770   1.410   .     A
C1764  C1766   1.403   .     A
C1765  C1767   1.407   .     A
C1765  C560    1.396   1_556 S
C1766  C1768   1.409   .     A
C1767  C1772   1.412   .     A
C1768  C1771   1.414   .     A
C1769  C1815   1.474   .     S
C1769  C565    1.402   1_556 S
C1770  C1819   1.474   .     S
C1771  O1823   1.381   .     S
C1772  O1834   1.384   .     S
C1772  C564    1.407   1_556 S
C1773  C1778   1.416   .     A
C1773  C1845   1.503   .     S
C1774  C1849   1.492   .     S
C1774  C1777   1.419   .     A
C1774  C1910   1.399   .     S
C1775  C1853   1.503   .     S
C1775  C1777   1.414   .     A
C1775  C1907   1.396   .     S
C1776  C1857   1.492   .     S
C1776  C1778   1.418   .     A
C1779  N1784   1.369   .     A
C1779  C1861   1.474   .     S
C1780  C1865   1.468   .     S
C1780  N1783   1.374   .     A
C1780  C2183   1.421   .     S
C1781  N1784   1.368   .     A
C1781  C1869   1.473   .     S
C1782  N1783   1.371   .     A
C1782  C1873   1.464   .     S
C1782  C2181   1.420   .     S
C1785  O1786   1.221   .     D
C1785  O1787   1.399   .     S
O1787  H1788   1.014   .     S
C1789  O1791   1.398   .     S
C1789  O1790   1.221   .     D
O1791  H1792   1.014   .     S
O1793  C1794   1.425   .     S
C1794  C1797   1.540   .     S
C1794  H1796   1.110   .     S
C1794  H1795   1.110   .     S
C1797  H1798   1.107   .     S
C1797  H1799   1.111   .     S
C1797  C1800   1.526   .     S
C1800  H1802   1.111   .     S
C1800  H1803   1.111   .     S
C1800  H1801   1.111   .     S
O1804  C1805   1.424   .     S
C1805  H1807   1.111   .     S
C1805  C1808   1.538   .     S
C1805  H1806   1.110   .     S
C1808  H1810   1.111   .     S
C1808  C1811   1.527   .     S
C1808  H1809   1.107   .     S
C1811  H1814   1.111   .     S
C1811  H1812   1.109   .     S
H1813  C2213   1.110   .     S
C1815  O1816   1.223   .     D
C1815  O1817   1.392   .     S
O1817  H1818   1.013   .     S
C1819  O1820   1.223   .     D
C1819  O1821   1.391   .     S
O1821  H1956   1.010   .     S
O1823  C1824   1.415   .     S
C1824  H1825   1.115   .     S
C1824  H1826   1.113   .     S
C1824  C1827   1.529   .     S
C1827  H1829   1.111   .     S
C1827  H1828   1.105   .     S
C1827  C2232   1.526   .     S
C1830  H1833   1.111   .     S
C1830  H1832   1.110   .     S
C1830  H1831   1.109   .     S
O1834  C1835   1.422   .     S
C1835  H1836   1.111   .     S
C1835  C1838   1.540   .     S
C1835  H631    1.104   1_556 S
C1838  H1840   1.112   .     S
C1838  H1839   1.102   .     S
C1838  C2243   1.527   .     S
C1841  H1842   1.110   .     S
C1841  H1843   1.110   .     S
C1841  H1844   1.111   .     S
C1845  O1847   1.399   .     S
C1845  O1846   1.218   .     D
O1847  H1848   1.014   .     S
C1849  O1851   1.398   .     S
C1849  O1850   1.223   .     D
O1851  H1852   1.014   .     S
C1853  O1854   1.218   .     D
C1853  O1855   1.399   .     S
O1855  H1856   1.014   .     S
C1857  O1858   1.223   .     D
C1857  O1859   1.398   .     S
O1859  H1860   1.014   .     S
C1861  O1863   1.394   .     S
C1861  O1862   1.222   .     D
O1863  H1864   1.013   .     S
C1865  O1866   1.223   .     D
C1865  O1867   1.391   .     S
O1867  H1868   1.010   .     S
C1869  O1871   1.394   .     S
C1869  O1870   1.222   .     D
O1871  H1872   1.013   .     S
C1873  O1874   1.222   .     D
C1873  O1875   1.394   .     S
O1875  H1876   1.012   .     S
O1877  C1881   1.299   .     A
O1877  Zn1889  2.023   .     S
O1878  C1882   1.301   .     A
O1878  Zn1890  2.023   .     S
O1879  C1882   1.297   .     A
O1879  Zn1889  2.018   .     S
O1880  C1881   1.299   .     A
O1880  Zn1890  2.018   .     S
C1881  C1912   1.471   .     S
C1882  C1911   1.472   .     S
O1883  C1887   1.289   .     A
O1883  Zn1889  1.994   .     S
O1884  C1888   1.291   .     A
O1884  Zn1890  1.994   .     S
O1885  Zn1889  1.999   .     S
O1885  C1888   1.288   .     A
O1886  Zn1890  1.999   .     S
O1886  C1887   1.288   .     A
C1887  C1894   1.436   .     S
C1888  C1893   1.439   .     S
Zn1889 N1917   2.018   .     S
Zn1890 N1918   2.018   .     S
C1891  C1901   1.411   .     A
C1891  C1893   1.412   .     A
C1891  C1919   1.491   .     S
C1892  C1923   1.489   .     S
C1892  C1902   1.407   .     A
C1892  C1894   1.408   .     A
C1893  C1895   1.396   .     A
C1894  C1896   1.395   .     A
C1895  C1897   1.400   .     A
C1895  O1927   1.391   .     S
C1896  O1938   1.391   .     S
C1896  C1898   1.402   .     A
C1897  C1903   1.408   .     A
C1897  C1899   1.401   .     A
C1898  C1904   1.410   .     A
C1898  C1900   1.403   .     A
C1899  C1901   1.407   .     A
C1899  C694    1.396   1_556 S
C1900  C1902   1.409   .     A
C1901  C1906   1.412   .     A
C1902  C1905   1.414   .     A
C1903  C1949   1.474   .     S
C1903  C699    1.402   1_556 S
C1904  C1953   1.474   .     S
C1905  O1957   1.381   .     S
C1906  O1968   1.384   .     S
C1906  C698    1.407   1_556 S
C1907  C1912   1.416   .     A
C1907  C1979   1.503   .     S
C1908  C1983   1.492   .     S
C1908  C1911   1.419   .     A
C1908  C1642   1.399   1_655 S
C1909  C1987   1.503   .     S
C1909  C1911   1.414   .     A
C1909  C1639   1.396   1_655 S
C1910  C1991   1.492   .     S
C1910  C1912   1.418   .     A
C1913  N1918   1.369   .     A
C1913  C1995   1.474   .     S
C1914  C1999   1.468   .     S
C1914  N1917   1.374   .     A
C1914  C2317   1.421   .     S
C1915  N1918   1.368   .     A
C1915  C2003   1.473   .     S
C1916  N1917   1.371   .     A
C1916  C2007   1.464   .     S
C1916  C2315   1.420   .     S
C1919  O1920   1.221   .     D
C1919  O1921   1.399   .     S
O1921  H1922   1.014   .     S
C1923  O1925   1.398   .     S
C1923  O1924   1.221   .     D
O1925  H1926   1.014   .     S
O1927  C1928   1.425   .     S
C1928  C1931   1.540   .     S
C1928  H1930   1.110   .     S
C1928  H1929   1.110   .     S
C1931  H1932   1.107   .     S
C1931  H1933   1.111   .     S
C1931  C1934   1.526   .     S
C1934  H1936   1.111   .     S
C1934  H1937   1.111   .     S
C1934  H1935   1.111   .     S
O1938  C1939   1.424   .     S
C1939  H1941   1.111   .     S
C1939  C1942   1.538   .     S
C1939  H1940   1.110   .     S
C1942  H1944   1.111   .     S
C1942  C1945   1.527   .     S
C1942  H1943   1.107   .     S
C1945  H1948   1.111   .     S
C1945  H1946   1.109   .     S
H1947  C2347   1.110   .     S
C1949  O1950   1.223   .     D
C1949  O1951   1.392   .     S
O1951  H1952   1.013   .     S
C1953  O1954   1.223   .     D
C1953  O1955   1.391   .     S
O1955  H1688   1.010   1_655 S
O1957  C1958   1.415   .     S
C1958  H1959   1.115   .     S
C1958  H1960   1.113   .     S
C1958  C1961   1.529   .     S
C1961  H1963   1.111   .     S
C1961  H1962   1.105   .     S
C1961  C2366   1.526   .     S
C1964  H1967   1.111   .     S
C1964  H1966   1.110   .     S
C1964  H1965   1.109   .     S
O1968  C1969   1.422   .     S
C1969  H1970   1.111   .     S
C1969  C1972   1.540   .     S
C1969  H765    1.104   1_556 S
C1972  H1974   1.112   .     S
C1972  H1973   1.102   .     S
C1972  C2377   1.527   .     S
C1975  H1976   1.110   .     S
C1975  H1977   1.110   .     S
C1975  H1978   1.111   .     S
C1979  O1981   1.399   .     S
C1979  O1980   1.218   .     D
O1981  H1982   1.014   .     S
C1983  O1985   1.398   .     S
C1983  O1984   1.223   .     D
O1985  H1986   1.014   .     S
C1987  O1988   1.218   .     D
C1987  O1989   1.399   .     S
O1989  H1990   1.014   .     S
C1991  O1992   1.223   .     D
C1991  O1993   1.398   .     S
O1993  H1994   1.014   .     S
C1995  O1997   1.394   .     S
C1995  O1996   1.222   .     D
O1997  H1998   1.013   .     S
C1999  O2000   1.223   .     D
C1999  O2001   1.391   .     S
O2001  H2002   1.010   .     S
C2003  O2005   1.394   .     S
C2003  O2004   1.222   .     D
O2005  H2006   1.013   .     S
C2007  O2008   1.222   .     D
C2007  O2009   1.394   .     S
O2009  H2010   1.012   .     S
O2011  C2015   1.299   .     A
O2011  Zn2023  2.023   .     S
O2012  C2016   1.301   .     A
O2012  Zn2024  2.023   .     S
O2013  C2016   1.297   .     A
O2013  Zn2023  2.018   .     S
O2014  C2015   1.299   .     A
O2014  Zn2024  2.018   .     S
C2015  C2046   1.471   .     S
C2016  C2045   1.472   .     S
O2017  C2021   1.289   .     A
O2017  Zn2023  1.994   .     S
O2018  C2022   1.291   .     A
O2018  Zn2024  1.994   .     S
O2019  Zn2023  1.999   .     S
O2019  C2022   1.288   .     A
O2020  Zn2024  1.999   .     S
O2020  C2021   1.288   .     A
C2021  C2028   1.436   .     S
C2022  C2027   1.439   .     S
Zn2023 N2051   2.018   .     S
Zn2024 N2052   2.018   .     S
C2025  C2035   1.411   .     A
C2025  C2027   1.412   .     A
C2025  C2053   1.491   .     S
C2026  C2057   1.489   .     S
C2026  C2036   1.407   .     A
C2026  C2028   1.408   .     A
C2027  C2029   1.396   .     A
C2028  C2030   1.395   .     A
C2029  C2031   1.400   .     A
C2029  O2061   1.391   .     S
C2030  O2072   1.391   .     S
C2030  C2032   1.402   .     A
C2031  C2037   1.408   .     A
C2031  C2033   1.401   .     A
C2032  C2038   1.410   .     A
C2032  C2034   1.403   .     A
C2033  C2035   1.407   .     A
C2033  C828    1.396   1_556 S
C2034  C2036   1.409   .     A
C2035  C2040   1.412   .     A
C2036  C2039   1.414   .     A
C2037  C2083   1.474   .     S
C2037  C833    1.402   1_556 S
C2038  C2087   1.474   .     S
C2039  O2091   1.381   .     S
C2040  O2102   1.384   .     S
C2040  C832    1.407   1_556 S
C2041  C2046   1.416   .     A
C2041  C2113   1.503   .     S
C2041  C2311   1.396   1_455 S
C2042  C2117   1.492   .     S
C2042  C2045   1.419   .     A
C2042  C2178   1.399   .     S
C2043  C2121   1.503   .     S
C2043  C2045   1.414   .     A
C2043  C2175   1.396   .     S
C2044  C2125   1.492   .     S
C2044  C2046   1.418   .     A
C2044  C2310   1.399   1_455 S
C2047  N2052   1.369   .     A
C2047  C2129   1.474   .     S
C2048  C2133   1.468   .     S
C2048  N2051   1.374   .     A
C2048  C1245   1.421   1_565 S
C2049  N2052   1.368   .     A
C2049  C2137   1.473   .     S
C2050  N2051   1.371   .     A
C2050  C2141   1.464   .     S
C2050  C1243   1.420   1_565 S
C2053  O2054   1.221   .     D
C2053  O2055   1.399   .     S
O2055  H2056   1.014   .     S
C2057  O2059   1.398   .     S
C2057  O2058   1.221   .     D
O2059  H2060   1.014   .     S
O2061  C2062   1.425   .     S
C2062  C2065   1.540   .     S
C2062  H2064   1.110   .     S
C2062  H2063   1.110   .     S
C2065  H2066   1.107   .     S
C2065  H2067   1.111   .     S
C2065  C2068   1.526   .     S
C2068  H2070   1.111   .     S
C2068  H2071   1.111   .     S
C2068  H2069   1.111   .     S
O2072  C2073   1.424   .     S
C2073  H2075   1.111   .     S
C2073  C2076   1.538   .     S
C2073  H2074   1.110   .     S
C2076  H2078   1.111   .     S
C2076  C2079   1.527   .     S
C2076  H2077   1.107   .     S
C2079  H2082   1.111   .     S
C2079  H2080   1.109   .     S
H2081  C1275   1.110   1_565 S
C2083  O2084   1.223   .     D
C2083  O2085   1.392   .     S
O2085  H2086   1.013   .     S
C2087  O2088   1.223   .     D
C2087  O2089   1.391   .     S
O2089  H2224   1.010   .     S
H2090  O2357   1.010   1_455 S
O2091  C2092   1.415   .     S
C2092  H2093   1.115   .     S
C2092  H2094   1.113   .     S
C2092  C2095   1.529   .     S
C2095  H2097   1.111   .     S
C2095  H2096   1.105   .     S
C2095  C1294   1.526   1_565 S
C2098  H2101   1.111   .     S
C2098  H2100   1.110   .     S
C2098  H2099   1.109   .     S
O2102  C2103   1.422   .     S
C2103  H2104   1.111   .     S
C2103  C2106   1.540   .     S
C2103  H899    1.104   1_556 S
C2106  H2108   1.112   .     S
C2106  H2107   1.102   .     S
C2106  C1305   1.527   1_565 S
C2109  H2110   1.110   .     S
C2109  H2111   1.110   .     S
C2109  H2112   1.111   .     S
C2113  O2115   1.399   .     S
C2113  O2114   1.218   .     D
O2115  H2116   1.014   .     S
C2117  O2119   1.398   .     S
C2117  O2118   1.223   .     D
O2119  H2120   1.014   .     S
C2121  O2122   1.218   .     D
C2121  O2123   1.399   .     S
O2123  H2124   1.014   .     S
C2125  O2126   1.223   .     D
C2125  O2127   1.398   .     S
O2127  H2128   1.014   .     S
C2129  O2131   1.394   .     S
C2129  O2130   1.222   .     D
O2131  H2132   1.013   .     S
C2133  O2134   1.223   .     D
C2133  O2135   1.391   .     S
O2135  H2136   1.010   .     S
C2137  O2139   1.394   .     S
C2137  O2138   1.222   .     D
O2139  H2140   1.013   .     S
C2141  O2142   1.222   .     D
C2141  O2143   1.394   .     S
O2143  H2144   1.012   .     S
O2145  C2149   1.299   .     A
O2145  Zn2157  2.023   .     S
O2146  C2150   1.301   .     A
O2146  Zn2158  2.023   .     S
O2147  C2150   1.297   .     A
O2147  Zn2157  2.018   .     S
O2148  C2149   1.299   .     A
O2148  Zn2158  2.018   .     S
C2149  C2180   1.471   .     S
C2150  C2179   1.472   .     S
O2151  C2155   1.289   .     A
O2151  Zn2157  1.994   .     S
O2152  C2156   1.291   .     A
O2152  Zn2158  1.994   .     S
O2153  Zn2157  1.999   .     S
O2153  C2156   1.288   .     A
O2154  Zn2158  1.999   .     S
O2154  C2155   1.288   .     A
C2155  C2162   1.436   .     S
C2156  C2161   1.439   .     S
Zn2157 N2185   2.018   .     S
Zn2158 N2186   2.018   .     S
C2159  C2169   1.411   .     A
C2159  C2161   1.412   .     A
C2159  C2187   1.491   .     S
C2160  C2191   1.489   .     S
C2160  C2170   1.407   .     A
C2160  C2162   1.408   .     A
C2161  C2163   1.396   .     A
C2162  C2164   1.395   .     A
C2163  C2165   1.400   .     A
C2163  O2195   1.391   .     S
C2164  O2206   1.391   .     S
C2164  C2166   1.402   .     A
C2165  C2171   1.408   .     A
C2165  C2167   1.401   .     A
C2166  C2172   1.410   .     A
C2166  C2168   1.403   .     A
C2167  C2169   1.407   .     A
C2167  C962    1.396   1_556 S
C2168  C2170   1.409   .     A
C2169  C2174   1.412   .     A
C2170  C2173   1.414   .     A
C2171  C2217   1.474   .     S
C2171  C967    1.402   1_556 S
C2172  C2221   1.474   .     S
C2173  O2225   1.381   .     S
C2174  O2236   1.384   .     S
C2174  C966    1.407   1_556 S
C2175  C2180   1.416   .     A
C2175  C2247   1.503   .     S
C2176  C2251   1.492   .     S
C2176  C2179   1.419   .     A
C2176  C2312   1.399   .     S
C2177  C2255   1.503   .     S
C2177  C2179   1.414   .     A
C2177  C2309   1.396   .     S
C2178  C2259   1.492   .     S
C2178  C2180   1.418   .     A
C2181  N2186   1.369   .     A
C2181  C2263   1.474   .     S
C2182  C2267   1.468   .     S
C2182  N2185   1.374   .     A
C2182  C1379   1.421   1_565 S
C2183  N2186   1.368   .     A
C2183  C2271   1.473   .     S
C2184  N2185   1.371   .     A
C2184  C2275   1.464   .     S
C2184  C1377   1.420   1_565 S
C2187  O2188   1.221   .     D
C2187  O2189   1.399   .     S
O2189  H2190   1.014   .     S
C2191  O2193   1.398   .     S
C2191  O2192   1.221   .     D
O2193  H2194   1.014   .     S
O2195  C2196   1.425   .     S
C2196  C2199   1.540   .     S
C2196  H2198   1.110   .     S
C2196  H2197   1.110   .     S
C2199  H2200   1.107   .     S
C2199  H2201   1.111   .     S
C2199  C2202   1.526   .     S
C2202  H2204   1.111   .     S
C2202  H2205   1.111   .     S
C2202  H2203   1.111   .     S
O2206  C2207   1.424   .     S
C2207  H2209   1.111   .     S
C2207  C2210   1.538   .     S
C2207  H2208   1.110   .     S
C2210  H2212   1.111   .     S
C2210  C2213   1.527   .     S
C2210  H2211   1.107   .     S
C2213  H2216   1.111   .     S
C2213  H2214   1.109   .     S
H2215  C1409   1.110   1_565 S
C2217  O2218   1.223   .     D
C2217  O2219   1.392   .     S
O2219  H2220   1.013   .     S
C2221  O2222   1.223   .     D
C2221  O2223   1.391   .     S
O2223  H2358   1.010   .     S
O2225  C2226   1.415   .     S
C2226  H2227   1.115   .     S
C2226  H2228   1.113   .     S
C2226  C2229   1.529   .     S
C2229  H2231   1.111   .     S
C2229  H2230   1.105   .     S
C2229  C1428   1.526   1_565 S
C2232  H2235   1.111   .     S
C2232  H2234   1.110   .     S
C2232  H2233   1.109   .     S
O2236  C2237   1.422   .     S
C2237  H2238   1.111   .     S
C2237  C2240   1.540   .     S
C2237  H1033   1.104   1_556 S
C2240  H2242   1.112   .     S
C2240  H2241   1.102   .     S
C2240  C1439   1.527   1_565 S
C2243  H2244   1.110   .     S
C2243  H2245   1.110   .     S
C2243  H2246   1.111   .     S
C2247  O2249   1.399   .     S
C2247  O2248   1.218   .     D
O2249  H2250   1.014   .     S
C2251  O2253   1.398   .     S
C2251  O2252   1.223   .     D
O2253  H2254   1.014   .     S
C2255  O2256   1.218   .     D
C2255  O2257   1.399   .     S
O2257  H2258   1.014   .     S
C2259  O2260   1.223   .     D
C2259  O2261   1.398   .     S
O2261  H2262   1.014   .     S
C2263  O2265   1.394   .     S
C2263  O2264   1.222   .     D
O2265  H2266   1.013   .     S
C2267  O2268   1.223   .     D
C2267  O2269   1.391   .     S
O2269  H2270   1.010   .     S
C2271  O2273   1.394   .     S
C2271  O2272   1.222   .     D
O2273  H2274   1.013   .     S
C2275  O2276   1.222   .     D
C2275  O2277   1.394   .     S
O2277  H2278   1.012   .     S
O2279  C2283   1.299   .     A
O2279  Zn2291  2.023   .     S
O2280  C2284   1.301   .     A
O2280  Zn2292  2.023   .     S
O2281  C2284   1.297   .     A
O2281  Zn2291  2.018   .     S
O2282  C2283   1.299   .     A
O2282  Zn2292  2.018   .     S
C2283  C2314   1.471   .     S
C2284  C2313   1.472   .     S
O2285  C2289   1.289   .     A
O2285  Zn2291  1.994   .     S
O2286  C2290   1.291   .     A
O2286  Zn2292  1.994   .     S
O2287  Zn2291  1.999   .     S
O2287  C2290   1.288   .     A
O2288  Zn2292  1.999   .     S
O2288  C2289   1.288   .     A
C2289  C2296   1.436   .     S
C2290  C2295   1.439   .     S
Zn2291 N2319   2.018   .     S
Zn2292 N2320   2.018   .     S
C2293  C2303   1.411   .     A
C2293  C2295   1.412   .     A
C2293  C2321   1.491   .     S
C2294  C2325   1.489   .     S
C2294  C2304   1.407   .     A
C2294  C2296   1.408   .     A
C2295  C2297   1.396   .     A
C2296  C2298   1.395   .     A
C2297  C2299   1.400   .     A
C2297  O2329   1.391   .     S
C2298  O2340   1.391   .     S
C2298  C2300   1.402   .     A
C2299  C2305   1.408   .     A
C2299  C2301   1.401   .     A
C2300  C2306   1.410   .     A
C2300  C2302   1.403   .     A
C2301  C2303   1.407   .     A
C2301  C1096   1.396   1_556 S
C2302  C2304   1.409   .     A
C2303  C2308   1.412   .     A
C2304  C2307   1.414   .     A
C2305  C2351   1.474   .     S
C2305  C1101   1.402   1_556 S
C2306  C2355   1.474   .     S
C2307  O2359   1.381   .     S
C2308  O2370   1.384   .     S
C2308  C1100   1.407   1_556 S
C2309  C2314   1.416   .     A
C2309  C2381   1.503   .     S
C2310  C2385   1.492   .     S
C2310  C2313   1.419   .     A
C2310  C2044   1.399   1_655 S
C2311  C2389   1.503   .     S
C2311  C2313   1.414   .     A
C2311  C2041   1.396   1_655 S
C2312  C2393   1.492   .     S
C2312  C2314   1.418   .     A
C2315  N2320   1.369   .     A
C2315  C2397   1.474   .     S
C2316  C2401   1.468   .     S
C2316  N2319   1.374   .     A
C2316  C1513   1.421   1_565 S
C2317  N2320   1.368   .     A
C2317  C2405   1.473   .     S
C2318  N2319   1.371   .     A
C2318  C2409   1.464   .     S
C2318  C1511   1.420   1_565 S
C2321  O2322   1.221   .     D
C2321  O2323   1.399   .     S
O2323  H2324   1.014   .     S
C2325  O2327   1.398   .     S
C2325  O2326   1.221   .     D
O2327  H2328   1.014   .     S
O2329  C2330   1.425   .     S
C2330  C2333   1.540   .     S
C2330  H2332   1.110   .     S
C2330  H2331   1.110   .     S
C2333  H2334   1.107   .     S
C2333  H2335   1.111   .     S
C2333  C2336   1.526   .     S
C2336  H2338   1.111   .     S
C2336  H2339   1.111   .     S
C2336  H2337   1.111   .     S
O2340  C2341   1.424   .     S
C2341  H2343   1.111   .     S
C2341  C2344   1.538   .     S
C2341  H2342   1.110   .     S
C2344  H2346   1.111   .     S
C2344  C2347   1.527   .     S
C2344  H2345   1.107   .     S
C2347  H2350   1.111   .     S
C2347  H2348   1.109   .     S
H2349  C1543   1.110   1_565 S
C2351  O2352   1.223   .     D
C2351  O2353   1.392   .     S
O2353  H2354   1.013   .     S
C2355  O2356   1.223   .     D
C2355  O2357   1.391   .     S
O2357  H2090   1.010   1_655 S
O2359  C2360   1.415   .     S
C2360  H2361   1.115   .     S
C2360  H2362   1.113   .     S
C2360  C2363   1.529   .     S
C2363  H2365   1.111   .     S
C2363  H2364   1.105   .     S
C2363  C1562   1.526   1_565 S
C2366  H2369   1.111   .     S
C2366  H2368   1.110   .     S
C2366  H2367   1.109   .     S
O2370  C2371   1.422   .     S
C2371  H2372   1.111   .     S
C2371  C2374   1.540   .     S
C2371  H1167   1.104   1_556 S
C2374  H2376   1.112   .     S
C2374  H2375   1.102   .     S
C2374  C1573   1.527   1_565 S
C2377  H2378   1.110   .     S
C2377  H2379   1.110   .     S
C2377  H2380   1.111   .     S
C2381  O2383   1.399   .     S
C2381  O2382   1.218   .     D
O2383  H2384   1.014   .     S
C2385  O2387   1.398   .     S
C2385  O2386   1.223   .     D
O2387  H2388   1.014   .     S
C2389  O2390   1.218   .     D
C2389  O2391   1.399   .     S
O2391  H2392   1.014   .     S
C2393  O2394   1.223   .     D
C2393  O2395   1.398   .     S
O2395  H2396   1.014   .     S
C2397  O2399   1.394   .     S
C2397  O2398   1.222   .     D
O2399  H2400   1.013   .     S
C2401  O2402   1.223   .     D
C2401  O2403   1.391   .     S
O2403  H2404   1.010   .     S
C2405  O2407   1.394   .     S
C2405  O2406   1.222   .     D
O2407  H2408   1.013   .     S
C2409  O2410   1.222   .     D
C2409  O2411   1.394   .     S
O2411  H2412   1.012   .     S
