data_str_m2_o1_o17_pcu_sym.183
_audit_creation_date              2020-01-03
_audit_creation_method            'Materials Studio'
_symmetry_space_group_name_H-M    'P1'
_symmetry_Int_Tables_number       1
_symmetry_cell_setting            triclinic
loop_
_symmetry_equiv_pos_as_xyz
  x,y,z
_cell_length_a                    32.6587
_cell_length_b                    29.3193
_cell_length_c                    30.1224
_cell_angle_alpha                 86.3930
_cell_angle_beta                  95.0657
_cell_angle_gamma                 90.2377
loop_
_atom_site_label
_atom_site_type_symbol
_atom_site_fract_x
_atom_site_fract_y
_atom_site_fract_z
_atom_site_U_iso_or_equiv
_atom_site_adp_type
_atom_site_occupancy
C1     C     0.08770   0.16667   0.24915   0.00000  Uiso   1.00
C2     C     0.24582   0.16674   0.25083   0.00000  Uiso   1.00
C3     C     0.09382   0.18499   0.01574   0.00000  Uiso   1.00
C4     C     0.23971   0.15093   0.48428   0.00000  Uiso   1.00
C5     C     0.02392   0.13186   0.27408   0.00000  Uiso   1.00
C6     C     0.31056   0.20309   0.22732   0.00000  Uiso   1.00
C7     C     0.31462   0.13141   0.27404   0.00000  Uiso   1.00
C8     C     0.01976   0.20192   0.22573   0.00000  Uiso   1.00
C9     C     0.29074   0.16710   0.25074   0.00000  Uiso   1.00
C10    C     0.04311   0.16661   0.24932   0.00000  Uiso   1.00
C11    C     0.14131   0.02652   0.21936   0.00000  Uiso   1.00
C12    C     0.18966   0.30652   0.28303   0.00000  Uiso   1.00
C13    C     0.18803   0.02231   0.28372   0.00000  Uiso   1.00
C14    C     0.14369   0.31088   0.21753   0.00000  Uiso   1.00
C15    C     0.16629   0.16776   0.16479   0.00000  Uiso   1.00
C16    C     0.16689   0.16552   0.33524   0.00000  Uiso   1.00
C17    C     0.20264   0.15613   0.41073   0.00000  Uiso   1.00
C18    C     0.13040   0.17659   0.08956   0.00000  Uiso   1.00
C19    C     0.16565   0.16341   0.38357   0.00000  Uiso   1.00
C20    C     0.16751   0.16975   0.11657   0.00000  Uiso   1.00
C21    C     0.12860   0.17322   0.40223   0.00000  Uiso   1.00
C22    C     0.20464   0.16044   0.09785   0.00000  Uiso   1.00
C23    C     0.12908   0.17511   0.44918   0.00000  Uiso   1.00
C24    C     0.20439   0.16031   0.05081   0.00000  Uiso   1.00
C25    C     0.16641   0.16740   0.47647   0.00000  Uiso   1.00
C26    C     0.16712   0.16850   0.02352   0.00000  Uiso   1.00
C27    C     0.20303   0.15820   0.45701   0.00000  Uiso   1.00
C28    C     0.13035   0.17689   0.04308   0.00000  Uiso   1.00
C29    C     0.09319   0.18435   0.46974   0.00000  Uiso   1.00
C30    C     0.24043   0.15199   0.03020   0.00000  Uiso   1.00
Cu31   Cu    0.16667   0.21355   0.25000   0.00000  Uiso   1.00
Cu32   Cu    0.16667   0.11978   0.25000   0.00000  Uiso   1.00
H33    H     0.06395   0.19121   0.45097   0.00000  Uiso   1.00
H34    H     0.26981   0.14583   0.04889   0.00000  Uiso   1.00
H35    H     0.06523   0.19201   0.02972   0.00000  Uiso   1.00
H36    H     0.26836   0.14406   0.47037   0.00000  Uiso   1.00
N37    N     0.16667   0.28402   0.25000   0.00000  Uiso   1.00
N38    N     0.16667   0.04931   0.25000   0.00000  Uiso   1.00
O39    O     0.10655   0.20625   0.24999   0.00000  Uiso   1.00
O40    O     0.22679   0.12709   0.25000   0.00000  Uiso   1.00
O41    O     0.22679   0.20625   0.25000   0.00000  Uiso   1.00
O42    O     0.10655   0.12709   0.24999   0.00000  Uiso   1.00
O43    O     0.16666   0.20627   0.18513   0.00000  Uiso   1.00
O44    O     0.16668   0.12707   0.31487   0.00000  Uiso   1.00
O45    O     0.16668   0.20627   0.31487   0.00000  Uiso   1.00
O46    O     0.16666   0.12707   0.18513   0.00000  Uiso   1.00
N47    N     0.24028   0.14661   0.39166   0.00000  Uiso   1.00
H48    H     0.24497   0.17071   0.36557   0.00000  Uiso   1.00
H49    H     0.23778   0.11435   0.37915   0.00000  Uiso   1.00
N50    N     0.09212   0.18093   0.10917   0.00000  Uiso   1.00
H51    H     0.08780   0.15188   0.13017   0.00000  Uiso   1.00
H52    H     0.09348   0.20947   0.12816   0.00000  Uiso   1.00
C53    C     0.08891   0.18075   0.37195   0.00000  Uiso   1.00
C54    C     0.07896   0.23150   0.36258   0.00000  Uiso   1.00
H55    H     0.07602   0.24852   0.39401   0.00000  Uiso   1.00
H56    H     0.10344   0.24884   0.34455   0.00000  Uiso   1.00
H57    H     0.04948   0.23536   0.34130   0.00000  Uiso   1.00
H58    H     0.09088   0.16553   0.33964   0.00000  Uiso   1.00
H59    H     0.06282   0.16244   0.38620   0.00000  Uiso   1.00
C60    C     0.24378   0.14933   0.12818   0.00000  Uiso   1.00
C61    C     0.25231   0.09796   0.13309   0.00000  Uiso   1.00
H62    H     0.22645   0.07970   0.14798   0.00000  Uiso   1.00
H63    H     0.25642   0.08411   0.10035   0.00000  Uiso   1.00
H64    H     0.28079   0.09127   0.15552   0.00000  Uiso   1.00
H65    H     0.27055   0.16834   0.11624   0.00000  Uiso   1.00
H66    H     0.24167   0.16083   0.16199   0.00000  Uiso   1.00
N67    N     0.04799   0.09744   0.30057   0.00000  Uiso   1.00
H68    H     0.03853   0.06532   0.29050   0.00000  Uiso   1.00
H69    H     0.04198   0.09920   0.33394   0.00000  Uiso   1.00
N70    N     0.28864   0.24139   0.20453   0.00000  Uiso   1.00
H71    H     0.26484   0.23016   0.18248   0.00000  Uiso   1.00
H72    H     0.27700   0.26145   0.22800   0.00000  Uiso   1.00
N73    N     0.29687   0.09529   0.30017   0.00000  Uiso   1.00
H74    H     0.27940   0.07427   0.27910   0.00000  Uiso   1.00
H75    H     0.27905   0.10977   0.32261   0.00000  Uiso   1.00
N76    N     0.03937   0.23667   0.19949   0.00000  Uiso   1.00
H77    H     0.02661   0.23645   0.16642   0.00000  Uiso   1.00
H78    H     0.03339   0.26841   0.21157   0.00000  Uiso   1.00
C79    C     0.10708   0.05169   0.18946   0.00000  Uiso   1.00
C80    C     0.06397   0.03980   0.20361   0.00000  Uiso   1.00
H81    H     0.04547   0.02266   0.17681   0.00000  Uiso   1.00
H82    H     0.06535   0.01724   0.23476   0.00000  Uiso   1.00
H83    H     0.04704   0.07139   0.20913   0.00000  Uiso   1.00
H84    H     0.10917   0.08850   0.18842   0.00000  Uiso   1.00
H85    H     0.10899   0.04485   0.15395   0.00000  Uiso   1.00
C86    C     0.22163   0.28088   0.31614   0.00000  Uiso   1.00
C87    C     0.21103   0.27392   0.36483   0.00000  Uiso   1.00
H88    H     0.17758   0.26884   0.36691   0.00000  Uiso   1.00
H89    H     0.22715   0.24332   0.38100   0.00000  Uiso   1.00
H90    H     0.22244   0.30198   0.38544   0.00000  Uiso   1.00
H91    H     0.22802   0.24712   0.30668   0.00000  Uiso   1.00
H92    H     0.25208   0.29770   0.31486   0.00000  Uiso   1.00
C93    C     0.20486   0.04377   0.32556   0.00000  Uiso   1.00
C94    C     0.17185   0.04393   0.35934   0.00000  Uiso   1.00
H95    H     0.16440   0.00949   0.37286   0.00000  Uiso   1.00
H96    H     0.18248   0.06418   0.38797   0.00000  Uiso   1.00
H97    H     0.14204   0.05757   0.34360   0.00000  Uiso   1.00
H98    H     0.23345   0.02796   0.34146   0.00000  Uiso   1.00
H99    H     0.21666   0.07751   0.31654   0.00000  Uiso   1.00
C100   C     0.12344   0.28952   0.17674   0.00000  Uiso   1.00
C101   C     0.15103   0.29399   0.13805   0.00000  Uiso   1.00
H102   H     0.15378   0.33024   0.12581   0.00000  Uiso   1.00
H103   H     0.18251   0.28107   0.14862   0.00000  Uiso   1.00
H104   H     0.13767   0.27453   0.10987   0.00000  Uiso   1.00
H105   H     0.11473   0.25435   0.18493   0.00000  Uiso   1.00
H106   H     0.09320   0.30430   0.16499   0.00000  Uiso   1.00
C107   C     0.42103   0.16667   0.24915   0.00000  Uiso   1.00
C108   C     0.57915   0.16674   0.25083   0.00000  Uiso   1.00
C109   C     0.42716   0.18499   0.01574   0.00000  Uiso   1.00
C110   C     0.57304   0.15093   0.48428   0.00000  Uiso   1.00
C111   C     0.35725   0.13186   0.27408   0.00000  Uiso   1.00
C112   C     0.64389   0.20309   0.22732   0.00000  Uiso   1.00
C113   C     0.64796   0.13141   0.27404   0.00000  Uiso   1.00
C114   C     0.35309   0.20192   0.22573   0.00000  Uiso   1.00
C115   C     0.62407   0.16710   0.25074   0.00000  Uiso   1.00
C116   C     0.37644   0.16661   0.24932   0.00000  Uiso   1.00
C117   C     0.47464   0.02652   0.21936   0.00000  Uiso   1.00
C118   C     0.52300   0.30652   0.28303   0.00000  Uiso   1.00
C119   C     0.52136   0.02231   0.28372   0.00000  Uiso   1.00
C120   C     0.47702   0.31088   0.21753   0.00000  Uiso   1.00
C121   C     0.49962   0.16776   0.16479   0.00000  Uiso   1.00
C122   C     0.50022   0.16552   0.33524   0.00000  Uiso   1.00
C123   C     0.53598   0.15613   0.41073   0.00000  Uiso   1.00
C124   C     0.46373   0.17659   0.08956   0.00000  Uiso   1.00
C125   C     0.49898   0.16341   0.38357   0.00000  Uiso   1.00
C126   C     0.50084   0.16975   0.11657   0.00000  Uiso   1.00
C127   C     0.46193   0.17322   0.40223   0.00000  Uiso   1.00
C128   C     0.53798   0.16044   0.09785   0.00000  Uiso   1.00
C129   C     0.46242   0.17511   0.44918   0.00000  Uiso   1.00
C130   C     0.53772   0.16031   0.05081   0.00000  Uiso   1.00
C131   C     0.49974   0.16740   0.47647   0.00000  Uiso   1.00
C132   C     0.50045   0.16850   0.02352   0.00000  Uiso   1.00
C133   C     0.53636   0.15820   0.45701   0.00000  Uiso   1.00
C134   C     0.46368   0.17689   0.04308   0.00000  Uiso   1.00
C135   C     0.42653   0.18435   0.46974   0.00000  Uiso   1.00
C136   C     0.57376   0.15199   0.03020   0.00000  Uiso   1.00
Cu137  Cu    0.50000   0.21355   0.25000   0.00000  Uiso   1.00
Cu138  Cu    0.50000   0.11978   0.25000   0.00000  Uiso   1.00
H139   H     0.39728   0.19121   0.45097   0.00000  Uiso   1.00
H140   H     0.60315   0.14583   0.04889   0.00000  Uiso   1.00
H141   H     0.39857   0.19201   0.02972   0.00000  Uiso   1.00
H142   H     0.60169   0.14406   0.47037   0.00000  Uiso   1.00
N143   N     0.50000   0.28402   0.25000   0.00000  Uiso   1.00
N144   N     0.50000   0.04931   0.25000   0.00000  Uiso   1.00
O145   O     0.43988   0.20625   0.24999   0.00000  Uiso   1.00
O146   O     0.56012   0.12709   0.25000   0.00000  Uiso   1.00
O147   O     0.56012   0.20625   0.25000   0.00000  Uiso   1.00
O148   O     0.43988   0.12709   0.24999   0.00000  Uiso   1.00
O149   O     0.49999   0.20627   0.18513   0.00000  Uiso   1.00
O150   O     0.50001   0.12707   0.31487   0.00000  Uiso   1.00
O151   O     0.50001   0.20627   0.31487   0.00000  Uiso   1.00
O152   O     0.49999   0.12707   0.18513   0.00000  Uiso   1.00
N153   N     0.57361   0.14661   0.39166   0.00000  Uiso   1.00
H154   H     0.57831   0.17071   0.36557   0.00000  Uiso   1.00
H155   H     0.57112   0.11435   0.37915   0.00000  Uiso   1.00
N156   N     0.42545   0.18093   0.10917   0.00000  Uiso   1.00
H157   H     0.42113   0.15188   0.13017   0.00000  Uiso   1.00
H158   H     0.42681   0.20947   0.12816   0.00000  Uiso   1.00
C159   C     0.42224   0.18075   0.37195   0.00000  Uiso   1.00
C160   C     0.41229   0.23150   0.36258   0.00000  Uiso   1.00
H161   H     0.40935   0.24852   0.39401   0.00000  Uiso   1.00
H162   H     0.43677   0.24884   0.34455   0.00000  Uiso   1.00
H163   H     0.38281   0.23536   0.34130   0.00000  Uiso   1.00
H164   H     0.42421   0.16553   0.33964   0.00000  Uiso   1.00
H165   H     0.39615   0.16244   0.38620   0.00000  Uiso   1.00
C166   C     0.57712   0.14933   0.12818   0.00000  Uiso   1.00
C167   C     0.58564   0.09796   0.13309   0.00000  Uiso   1.00
H168   H     0.55978   0.07970   0.14798   0.00000  Uiso   1.00
H169   H     0.58975   0.08411   0.10035   0.00000  Uiso   1.00
H170   H     0.61412   0.09127   0.15552   0.00000  Uiso   1.00
H171   H     0.60388   0.16834   0.11624   0.00000  Uiso   1.00
H172   H     0.57500   0.16083   0.16199   0.00000  Uiso   1.00
N173   N     0.38133   0.09744   0.30057   0.00000  Uiso   1.00
H174   H     0.37186   0.06532   0.29050   0.00000  Uiso   1.00
H175   H     0.37531   0.09920   0.33394   0.00000  Uiso   1.00
N176   N     0.62198   0.24139   0.20453   0.00000  Uiso   1.00
H177   H     0.59818   0.23016   0.18248   0.00000  Uiso   1.00
H178   H     0.61033   0.26145   0.22800   0.00000  Uiso   1.00
N179   N     0.63020   0.09529   0.30017   0.00000  Uiso   1.00
H180   H     0.61273   0.07427   0.27910   0.00000  Uiso   1.00
H181   H     0.61239   0.10977   0.32261   0.00000  Uiso   1.00
N182   N     0.37270   0.23667   0.19949   0.00000  Uiso   1.00
H183   H     0.35994   0.23645   0.16642   0.00000  Uiso   1.00
H184   H     0.36672   0.26841   0.21157   0.00000  Uiso   1.00
C185   C     0.44042   0.05169   0.18946   0.00000  Uiso   1.00
C186   C     0.39730   0.03980   0.20361   0.00000  Uiso   1.00
H187   H     0.37881   0.02266   0.17681   0.00000  Uiso   1.00
H188   H     0.39868   0.01724   0.23476   0.00000  Uiso   1.00
H189   H     0.38038   0.07139   0.20913   0.00000  Uiso   1.00
H190   H     0.44250   0.08850   0.18842   0.00000  Uiso   1.00
H191   H     0.44232   0.04485   0.15395   0.00000  Uiso   1.00
C192   C     0.55497   0.28088   0.31614   0.00000  Uiso   1.00
C193   C     0.54436   0.27392   0.36483   0.00000  Uiso   1.00
H194   H     0.51091   0.26884   0.36691   0.00000  Uiso   1.00
H195   H     0.56049   0.24332   0.38100   0.00000  Uiso   1.00
H196   H     0.55577   0.30198   0.38544   0.00000  Uiso   1.00
H197   H     0.56135   0.24712   0.30668   0.00000  Uiso   1.00
H198   H     0.58541   0.29770   0.31486   0.00000  Uiso   1.00
C199   C     0.53820   0.04377   0.32556   0.00000  Uiso   1.00
C200   C     0.50519   0.04393   0.35934   0.00000  Uiso   1.00
H201   H     0.49774   0.00949   0.37286   0.00000  Uiso   1.00
H202   H     0.51582   0.06418   0.38797   0.00000  Uiso   1.00
H203   H     0.47537   0.05757   0.34360   0.00000  Uiso   1.00
H204   H     0.56679   0.02796   0.34146   0.00000  Uiso   1.00
H205   H     0.55000   0.07751   0.31654   0.00000  Uiso   1.00
C206   C     0.45677   0.28952   0.17674   0.00000  Uiso   1.00
C207   C     0.48436   0.29399   0.13805   0.00000  Uiso   1.00
H208   H     0.48712   0.33024   0.12581   0.00000  Uiso   1.00
H209   H     0.51584   0.28107   0.14862   0.00000  Uiso   1.00
H210   H     0.47100   0.27453   0.10987   0.00000  Uiso   1.00
H211   H     0.44806   0.25435   0.18493   0.00000  Uiso   1.00
H212   H     0.42654   0.30430   0.16499   0.00000  Uiso   1.00
C213   C     0.75436   0.16667   0.24915   0.00000  Uiso   1.00
C214   C     0.91248   0.16674   0.25083   0.00000  Uiso   1.00
C215   C     0.76049   0.18499   0.01574   0.00000  Uiso   1.00
C216   C     0.90638   0.15093   0.48428   0.00000  Uiso   1.00
C217   C     0.69059   0.13186   0.27408   0.00000  Uiso   1.00
C218   C     0.97723   0.20309   0.22732   0.00000  Uiso   1.00
C219   C     0.98129   0.13141   0.27404   0.00000  Uiso   1.00
C220   C     0.68643   0.20192   0.22573   0.00000  Uiso   1.00
C221   C     0.95740   0.16710   0.25074   0.00000  Uiso   1.00
C222   C     0.70978   0.16661   0.24932   0.00000  Uiso   1.00
C223   C     0.80798   0.02652   0.21936   0.00000  Uiso   1.00
C224   C     0.85633   0.30652   0.28303   0.00000  Uiso   1.00
C225   C     0.85469   0.02231   0.28372   0.00000  Uiso   1.00
C226   C     0.81035   0.31088   0.21753   0.00000  Uiso   1.00
C227   C     0.83296   0.16776   0.16479   0.00000  Uiso   1.00
C228   C     0.83356   0.16552   0.33524   0.00000  Uiso   1.00
C229   C     0.86931   0.15613   0.41073   0.00000  Uiso   1.00
C230   C     0.79707   0.17659   0.08956   0.00000  Uiso   1.00
C231   C     0.83232   0.16341   0.38357   0.00000  Uiso   1.00
C232   C     0.83418   0.16975   0.11657   0.00000  Uiso   1.00
C233   C     0.79527   0.17322   0.40223   0.00000  Uiso   1.00
C234   C     0.87131   0.16044   0.09785   0.00000  Uiso   1.00
C235   C     0.79575   0.17511   0.44918   0.00000  Uiso   1.00
C236   C     0.87105   0.16031   0.05081   0.00000  Uiso   1.00
C237   C     0.83307   0.16740   0.47647   0.00000  Uiso   1.00
C238   C     0.83378   0.16850   0.02352   0.00000  Uiso   1.00
C239   C     0.86970   0.15820   0.45701   0.00000  Uiso   1.00
C240   C     0.79702   0.17689   0.04308   0.00000  Uiso   1.00
C241   C     0.75986   0.18435   0.46974   0.00000  Uiso   1.00
C242   C     0.90709   0.15199   0.03020   0.00000  Uiso   1.00
Cu243  Cu    0.83333   0.21355   0.25000   0.00000  Uiso   1.00
Cu244  Cu    0.83333   0.11978   0.25000   0.00000  Uiso   1.00
H245   H     0.73062   0.19121   0.45097   0.00000  Uiso   1.00
H246   H     0.93648   0.14583   0.04889   0.00000  Uiso   1.00
H247   H     0.73190   0.19201   0.02972   0.00000  Uiso   1.00
H248   H     0.93503   0.14406   0.47037   0.00000  Uiso   1.00
N249   N     0.83333   0.28402   0.25000   0.00000  Uiso   1.00
N250   N     0.83333   0.04931   0.25000   0.00000  Uiso   1.00
O251   O     0.77321   0.20625   0.24999   0.00000  Uiso   1.00
O252   O     0.89345   0.12709   0.25000   0.00000  Uiso   1.00
O253   O     0.89345   0.20625   0.25000   0.00000  Uiso   1.00
O254   O     0.77321   0.12709   0.24999   0.00000  Uiso   1.00
O255   O     0.83332   0.20627   0.18513   0.00000  Uiso   1.00
O256   O     0.83334   0.12707   0.31487   0.00000  Uiso   1.00
O257   O     0.83334   0.20627   0.31487   0.00000  Uiso   1.00
O258   O     0.83332   0.12707   0.18513   0.00000  Uiso   1.00
N259   N     0.90695   0.14661   0.39166   0.00000  Uiso   1.00
H260   H     0.91164   0.17071   0.36557   0.00000  Uiso   1.00
H261   H     0.90445   0.11435   0.37915   0.00000  Uiso   1.00
N262   N     0.75878   0.18093   0.10917   0.00000  Uiso   1.00
H263   H     0.75446   0.15188   0.13017   0.00000  Uiso   1.00
H264   H     0.76015   0.20947   0.12816   0.00000  Uiso   1.00
C265   C     0.75557   0.18075   0.37195   0.00000  Uiso   1.00
C266   C     0.74562   0.23150   0.36258   0.00000  Uiso   1.00
H267   H     0.74268   0.24852   0.39401   0.00000  Uiso   1.00
H268   H     0.77011   0.24884   0.34455   0.00000  Uiso   1.00
H269   H     0.71614   0.23536   0.34130   0.00000  Uiso   1.00
H270   H     0.75755   0.16553   0.33964   0.00000  Uiso   1.00
H271   H     0.72949   0.16244   0.38620   0.00000  Uiso   1.00
C272   C     0.91045   0.14933   0.12818   0.00000  Uiso   1.00
C273   C     0.91897   0.09796   0.13309   0.00000  Uiso   1.00
H274   H     0.89311   0.07970   0.14798   0.00000  Uiso   1.00
H275   H     0.92308   0.08411   0.10035   0.00000  Uiso   1.00
H276   H     0.94745   0.09127   0.15552   0.00000  Uiso   1.00
H277   H     0.93721   0.16834   0.11624   0.00000  Uiso   1.00
H278   H     0.90834   0.16083   0.16199   0.00000  Uiso   1.00
N279   N     0.71466   0.09744   0.30057   0.00000  Uiso   1.00
H280   H     0.70520   0.06532   0.29050   0.00000  Uiso   1.00
H281   H     0.70865   0.09920   0.33394   0.00000  Uiso   1.00
N282   N     0.95531   0.24139   0.20453   0.00000  Uiso   1.00
H283   H     0.93151   0.23016   0.18248   0.00000  Uiso   1.00
H284   H     0.94366   0.26145   0.22800   0.00000  Uiso   1.00
N285   N     0.96353   0.09529   0.30017   0.00000  Uiso   1.00
H286   H     0.94606   0.07427   0.27910   0.00000  Uiso   1.00
H287   H     0.94572   0.10977   0.32261   0.00000  Uiso   1.00
N288   N     0.70604   0.23667   0.19949   0.00000  Uiso   1.00
H289   H     0.69328   0.23645   0.16642   0.00000  Uiso   1.00
H290   H     0.70005   0.26841   0.21157   0.00000  Uiso   1.00
C291   C     0.77375   0.05169   0.18946   0.00000  Uiso   1.00
C292   C     0.73064   0.03980   0.20361   0.00000  Uiso   1.00
H293   H     0.71214   0.02266   0.17681   0.00000  Uiso   1.00
H294   H     0.73201   0.01724   0.23476   0.00000  Uiso   1.00
H295   H     0.71371   0.07139   0.20913   0.00000  Uiso   1.00
H296   H     0.77583   0.08850   0.18842   0.00000  Uiso   1.00
H297   H     0.77566   0.04485   0.15395   0.00000  Uiso   1.00
C298   C     0.88830   0.28088   0.31614   0.00000  Uiso   1.00
C299   C     0.87769   0.27392   0.36483   0.00000  Uiso   1.00
H300   H     0.84425   0.26884   0.36691   0.00000  Uiso   1.00
H301   H     0.89382   0.24332   0.38100   0.00000  Uiso   1.00
H302   H     0.88910   0.30198   0.38544   0.00000  Uiso   1.00
H303   H     0.89469   0.24712   0.30668   0.00000  Uiso   1.00
H304   H     0.91875   0.29770   0.31486   0.00000  Uiso   1.00
C305   C     0.87153   0.04377   0.32556   0.00000  Uiso   1.00
C306   C     0.83852   0.04393   0.35934   0.00000  Uiso   1.00
H307   H     0.83107   0.00949   0.37286   0.00000  Uiso   1.00
H308   H     0.84915   0.06418   0.38797   0.00000  Uiso   1.00
H309   H     0.80870   0.05757   0.34360   0.00000  Uiso   1.00
H310   H     0.90012   0.02796   0.34146   0.00000  Uiso   1.00
H311   H     0.88333   0.07751   0.31654   0.00000  Uiso   1.00
C312   C     0.79011   0.28952   0.17674   0.00000  Uiso   1.00
C313   C     0.81770   0.29399   0.13805   0.00000  Uiso   1.00
H314   H     0.82045   0.33024   0.12581   0.00000  Uiso   1.00
H315   H     0.84918   0.28107   0.14862   0.00000  Uiso   1.00
H316   H     0.80433   0.27453   0.10987   0.00000  Uiso   1.00
H317   H     0.78139   0.25435   0.18493   0.00000  Uiso   1.00
H318   H     0.75987   0.30430   0.16499   0.00000  Uiso   1.00
C319   C     0.08770   0.50000   0.24915   0.00000  Uiso   1.00
C320   C     0.24582   0.50007   0.25083   0.00000  Uiso   1.00
C321   C     0.09382   0.51832   0.01574   0.00000  Uiso   1.00
C322   C     0.23971   0.48427   0.48428   0.00000  Uiso   1.00
C323   C     0.02392   0.46519   0.27408   0.00000  Uiso   1.00
C324   C     0.31056   0.53643   0.22732   0.00000  Uiso   1.00
C325   C     0.31462   0.46474   0.27404   0.00000  Uiso   1.00
C326   C     0.01976   0.53525   0.22573   0.00000  Uiso   1.00
C327   C     0.29074   0.50043   0.25074   0.00000  Uiso   1.00
C328   C     0.04311   0.49994   0.24932   0.00000  Uiso   1.00
C329   C     0.14131   0.35985   0.21936   0.00000  Uiso   1.00
C330   C     0.18966   0.63986   0.28303   0.00000  Uiso   1.00
C331   C     0.18803   0.35564   0.28372   0.00000  Uiso   1.00
C332   C     0.14369   0.64422   0.21753   0.00000  Uiso   1.00
C333   C     0.16629   0.50109   0.16479   0.00000  Uiso   1.00
C334   C     0.16689   0.49885   0.33524   0.00000  Uiso   1.00
C335   C     0.20264   0.48947   0.41073   0.00000  Uiso   1.00
C336   C     0.13040   0.50992   0.08956   0.00000  Uiso   1.00
C337   C     0.16565   0.49675   0.38357   0.00000  Uiso   1.00
C338   C     0.16751   0.50308   0.11657   0.00000  Uiso   1.00
C339   C     0.12860   0.50655   0.40223   0.00000  Uiso   1.00
C340   C     0.20464   0.49377   0.09785   0.00000  Uiso   1.00
C341   C     0.12908   0.50844   0.44918   0.00000  Uiso   1.00
C342   C     0.20439   0.49365   0.05081   0.00000  Uiso   1.00
C343   C     0.16641   0.50073   0.47647   0.00000  Uiso   1.00
C344   C     0.16712   0.50183   0.02352   0.00000  Uiso   1.00
C345   C     0.20303   0.49153   0.45701   0.00000  Uiso   1.00
C346   C     0.13035   0.51022   0.04308   0.00000  Uiso   1.00
C347   C     0.09319   0.51768   0.46974   0.00000  Uiso   1.00
C348   C     0.24043   0.48533   0.03020   0.00000  Uiso   1.00
Cu349  Cu    0.16667   0.54689   0.25000   0.00000  Uiso   1.00
Cu350  Cu    0.16667   0.45311   0.25000   0.00000  Uiso   1.00
H351   H     0.06395   0.52454   0.45097   0.00000  Uiso   1.00
H352   H     0.26981   0.47916   0.04889   0.00000  Uiso   1.00
H353   H     0.06523   0.52535   0.02972   0.00000  Uiso   1.00
H354   H     0.26836   0.47740   0.47037   0.00000  Uiso   1.00
N355   N     0.16667   0.61736   0.25000   0.00000  Uiso   1.00
N356   N     0.16667   0.38264   0.25000   0.00000  Uiso   1.00
O357   O     0.10655   0.53958   0.24999   0.00000  Uiso   1.00
O358   O     0.22679   0.46042   0.25000   0.00000  Uiso   1.00
O359   O     0.22679   0.53958   0.25000   0.00000  Uiso   1.00
O360   O     0.10655   0.46042   0.24999   0.00000  Uiso   1.00
O361   O     0.16666   0.53960   0.18513   0.00000  Uiso   1.00
O362   O     0.16668   0.46040   0.31487   0.00000  Uiso   1.00
O363   O     0.16668   0.53960   0.31487   0.00000  Uiso   1.00
O364   O     0.16666   0.46040   0.18513   0.00000  Uiso   1.00
N365   N     0.24028   0.47994   0.39166   0.00000  Uiso   1.00
H366   H     0.24497   0.50404   0.36557   0.00000  Uiso   1.00
H367   H     0.23778   0.44769   0.37915   0.00000  Uiso   1.00
N368   N     0.09212   0.51426   0.10917   0.00000  Uiso   1.00
H369   H     0.08780   0.48521   0.13017   0.00000  Uiso   1.00
H370   H     0.09348   0.54281   0.12816   0.00000  Uiso   1.00
C371   C     0.08891   0.51408   0.37195   0.00000  Uiso   1.00
C372   C     0.07896   0.56483   0.36258   0.00000  Uiso   1.00
H373   H     0.07602   0.58185   0.39401   0.00000  Uiso   1.00
H374   H     0.10344   0.58217   0.34455   0.00000  Uiso   1.00
H375   H     0.04948   0.56869   0.34130   0.00000  Uiso   1.00
H376   H     0.09088   0.49886   0.33964   0.00000  Uiso   1.00
H377   H     0.06282   0.49577   0.38620   0.00000  Uiso   1.00
C378   C     0.24378   0.48266   0.12818   0.00000  Uiso   1.00
C379   C     0.25231   0.43129   0.13309   0.00000  Uiso   1.00
H380   H     0.22645   0.41303   0.14798   0.00000  Uiso   1.00
H381   H     0.25642   0.41745   0.10035   0.00000  Uiso   1.00
H382   H     0.28079   0.42461   0.15552   0.00000  Uiso   1.00
H383   H     0.27055   0.50168   0.11624   0.00000  Uiso   1.00
H384   H     0.24167   0.49416   0.16199   0.00000  Uiso   1.00
N385   N     0.04799   0.43077   0.30057   0.00000  Uiso   1.00
H386   H     0.03853   0.39865   0.29050   0.00000  Uiso   1.00
H387   H     0.04198   0.43253   0.33394   0.00000  Uiso   1.00
N388   N     0.28864   0.57473   0.20453   0.00000  Uiso   1.00
H389   H     0.26484   0.56349   0.18248   0.00000  Uiso   1.00
H390   H     0.27700   0.59478   0.22800   0.00000  Uiso   1.00
N391   N     0.29687   0.42863   0.30017   0.00000  Uiso   1.00
H392   H     0.27940   0.40761   0.27910   0.00000  Uiso   1.00
H393   H     0.27905   0.44310   0.32261   0.00000  Uiso   1.00
N394   N     0.03937   0.57000   0.19949   0.00000  Uiso   1.00
H395   H     0.02661   0.56979   0.16642   0.00000  Uiso   1.00
H396   H     0.03339   0.60174   0.21157   0.00000  Uiso   1.00
C397   C     0.10708   0.38502   0.18946   0.00000  Uiso   1.00
C398   C     0.06397   0.37313   0.20361   0.00000  Uiso   1.00
H399   H     0.04547   0.35599   0.17681   0.00000  Uiso   1.00
H400   H     0.06535   0.35057   0.23476   0.00000  Uiso   1.00
H401   H     0.04704   0.40472   0.20913   0.00000  Uiso   1.00
H402   H     0.10917   0.42184   0.18842   0.00000  Uiso   1.00
H403   H     0.10899   0.37818   0.15395   0.00000  Uiso   1.00
C404   C     0.22163   0.61422   0.31614   0.00000  Uiso   1.00
C405   C     0.21103   0.60726   0.36483   0.00000  Uiso   1.00
H406   H     0.17758   0.60217   0.36691   0.00000  Uiso   1.00
H407   H     0.22715   0.57665   0.38100   0.00000  Uiso   1.00
H408   H     0.22244   0.63532   0.38544   0.00000  Uiso   1.00
H409   H     0.22802   0.58045   0.30668   0.00000  Uiso   1.00
H410   H     0.25208   0.63103   0.31486   0.00000  Uiso   1.00
C411   C     0.20486   0.37711   0.32556   0.00000  Uiso   1.00
C412   C     0.17185   0.37727   0.35934   0.00000  Uiso   1.00
H413   H     0.16440   0.34283   0.37286   0.00000  Uiso   1.00
H414   H     0.18248   0.39751   0.38797   0.00000  Uiso   1.00
H415   H     0.14204   0.39090   0.34360   0.00000  Uiso   1.00
H416   H     0.23345   0.36129   0.34146   0.00000  Uiso   1.00
H417   H     0.21666   0.41085   0.31654   0.00000  Uiso   1.00
C418   C     0.12344   0.62285   0.17674   0.00000  Uiso   1.00
C419   C     0.15103   0.62732   0.13805   0.00000  Uiso   1.00
H420   H     0.15378   0.66358   0.12581   0.00000  Uiso   1.00
H421   H     0.18251   0.61440   0.14862   0.00000  Uiso   1.00
H422   H     0.13767   0.60786   0.10987   0.00000  Uiso   1.00
H423   H     0.11473   0.58769   0.18493   0.00000  Uiso   1.00
H424   H     0.09320   0.63763   0.16499   0.00000  Uiso   1.00
C425   C     0.42103   0.50000   0.24915   0.00000  Uiso   1.00
C426   C     0.57915   0.50007   0.25083   0.00000  Uiso   1.00
C427   C     0.42716   0.51832   0.01574   0.00000  Uiso   1.00
C428   C     0.57304   0.48427   0.48428   0.00000  Uiso   1.00
C429   C     0.35725   0.46519   0.27408   0.00000  Uiso   1.00
C430   C     0.64389   0.53643   0.22732   0.00000  Uiso   1.00
C431   C     0.64796   0.46474   0.27404   0.00000  Uiso   1.00
C432   C     0.35309   0.53525   0.22573   0.00000  Uiso   1.00
C433   C     0.62407   0.50043   0.25074   0.00000  Uiso   1.00
C434   C     0.37644   0.49994   0.24932   0.00000  Uiso   1.00
C435   C     0.47464   0.35985   0.21936   0.00000  Uiso   1.00
C436   C     0.52300   0.63986   0.28303   0.00000  Uiso   1.00
C437   C     0.52136   0.35564   0.28372   0.00000  Uiso   1.00
C438   C     0.47702   0.64422   0.21753   0.00000  Uiso   1.00
C439   C     0.49962   0.50109   0.16479   0.00000  Uiso   1.00
C440   C     0.50022   0.49885   0.33524   0.00000  Uiso   1.00
C441   C     0.53598   0.48947   0.41073   0.00000  Uiso   1.00
C442   C     0.46373   0.50992   0.08956   0.00000  Uiso   1.00
C443   C     0.49898   0.49675   0.38357   0.00000  Uiso   1.00
C444   C     0.50084   0.50308   0.11657   0.00000  Uiso   1.00
C445   C     0.46193   0.50655   0.40223   0.00000  Uiso   1.00
C446   C     0.53798   0.49377   0.09785   0.00000  Uiso   1.00
C447   C     0.46242   0.50844   0.44918   0.00000  Uiso   1.00
C448   C     0.53772   0.49365   0.05081   0.00000  Uiso   1.00
C449   C     0.49974   0.50073   0.47647   0.00000  Uiso   1.00
C450   C     0.50045   0.50183   0.02352   0.00000  Uiso   1.00
C451   C     0.53636   0.49153   0.45701   0.00000  Uiso   1.00
C452   C     0.46368   0.51022   0.04308   0.00000  Uiso   1.00
C453   C     0.42653   0.51768   0.46974   0.00000  Uiso   1.00
C454   C     0.57376   0.48533   0.03020   0.00000  Uiso   1.00
Cu455  Cu    0.50000   0.54689   0.25000   0.00000  Uiso   1.00
Cu456  Cu    0.50000   0.45311   0.25000   0.00000  Uiso   1.00
H457   H     0.39728   0.52454   0.45097   0.00000  Uiso   1.00
H458   H     0.60315   0.47916   0.04889   0.00000  Uiso   1.00
H459   H     0.39857   0.52535   0.02972   0.00000  Uiso   1.00
H460   H     0.60169   0.47740   0.47037   0.00000  Uiso   1.00
N461   N     0.50000   0.61736   0.25000   0.00000  Uiso   1.00
N462   N     0.50000   0.38264   0.25000   0.00000  Uiso   1.00
O463   O     0.43988   0.53958   0.24999   0.00000  Uiso   1.00
O464   O     0.56012   0.46042   0.25000   0.00000  Uiso   1.00
O465   O     0.56012   0.53958   0.25000   0.00000  Uiso   1.00
O466   O     0.43988   0.46042   0.24999   0.00000  Uiso   1.00
O467   O     0.49999   0.53960   0.18513   0.00000  Uiso   1.00
O468   O     0.50001   0.46040   0.31487   0.00000  Uiso   1.00
O469   O     0.50001   0.53960   0.31487   0.00000  Uiso   1.00
O470   O     0.49999   0.46040   0.18513   0.00000  Uiso   1.00
N471   N     0.57361   0.47994   0.39166   0.00000  Uiso   1.00
H472   H     0.57831   0.50404   0.36557   0.00000  Uiso   1.00
H473   H     0.57112   0.44769   0.37915   0.00000  Uiso   1.00
N474   N     0.42545   0.51426   0.10917   0.00000  Uiso   1.00
H475   H     0.42113   0.48521   0.13017   0.00000  Uiso   1.00
H476   H     0.42681   0.54281   0.12816   0.00000  Uiso   1.00
C477   C     0.42224   0.51408   0.37195   0.00000  Uiso   1.00
C478   C     0.41229   0.56483   0.36258   0.00000  Uiso   1.00
H479   H     0.40935   0.58185   0.39401   0.00000  Uiso   1.00
H480   H     0.43677   0.58217   0.34455   0.00000  Uiso   1.00
H481   H     0.38281   0.56869   0.34130   0.00000  Uiso   1.00
H482   H     0.42421   0.49886   0.33964   0.00000  Uiso   1.00
H483   H     0.39615   0.49577   0.38620   0.00000  Uiso   1.00
C484   C     0.57712   0.48266   0.12818   0.00000  Uiso   1.00
C485   C     0.58564   0.43129   0.13309   0.00000  Uiso   1.00
H486   H     0.55978   0.41303   0.14798   0.00000  Uiso   1.00
H487   H     0.58975   0.41745   0.10035   0.00000  Uiso   1.00
H488   H     0.61412   0.42461   0.15552   0.00000  Uiso   1.00
H489   H     0.60388   0.50168   0.11624   0.00000  Uiso   1.00
H490   H     0.57500   0.49416   0.16199   0.00000  Uiso   1.00
N491   N     0.38133   0.43077   0.30057   0.00000  Uiso   1.00
H492   H     0.37186   0.39865   0.29050   0.00000  Uiso   1.00
H493   H     0.37531   0.43253   0.33394   0.00000  Uiso   1.00
N494   N     0.62198   0.57473   0.20453   0.00000  Uiso   1.00
H495   H     0.59818   0.56349   0.18248   0.00000  Uiso   1.00
H496   H     0.61033   0.59478   0.22800   0.00000  Uiso   1.00
N497   N     0.63020   0.42863   0.30017   0.00000  Uiso   1.00
H498   H     0.61273   0.40761   0.27910   0.00000  Uiso   1.00
H499   H     0.61239   0.44310   0.32261   0.00000  Uiso   1.00
N500   N     0.37270   0.57000   0.19949   0.00000  Uiso   1.00
H501   H     0.35994   0.56979   0.16642   0.00000  Uiso   1.00
H502   H     0.36672   0.60174   0.21157   0.00000  Uiso   1.00
C503   C     0.44042   0.38502   0.18946   0.00000  Uiso   1.00
C504   C     0.39730   0.37313   0.20361   0.00000  Uiso   1.00
H505   H     0.37881   0.35599   0.17681   0.00000  Uiso   1.00
H506   H     0.39868   0.35057   0.23476   0.00000  Uiso   1.00
H507   H     0.38038   0.40472   0.20913   0.00000  Uiso   1.00
H508   H     0.44250   0.42184   0.18842   0.00000  Uiso   1.00
H509   H     0.44232   0.37818   0.15395   0.00000  Uiso   1.00
C510   C     0.55497   0.61422   0.31614   0.00000  Uiso   1.00
C511   C     0.54436   0.60726   0.36483   0.00000  Uiso   1.00
H512   H     0.51091   0.60217   0.36691   0.00000  Uiso   1.00
H513   H     0.56049   0.57665   0.38100   0.00000  Uiso   1.00
H514   H     0.55577   0.63532   0.38544   0.00000  Uiso   1.00
H515   H     0.56135   0.58045   0.30668   0.00000  Uiso   1.00
H516   H     0.58541   0.63103   0.31486   0.00000  Uiso   1.00
C517   C     0.53820   0.37711   0.32556   0.00000  Uiso   1.00
C518   C     0.50519   0.37727   0.35934   0.00000  Uiso   1.00
H519   H     0.49774   0.34283   0.37286   0.00000  Uiso   1.00
H520   H     0.51582   0.39751   0.38797   0.00000  Uiso   1.00
H521   H     0.47537   0.39090   0.34360   0.00000  Uiso   1.00
H522   H     0.56679   0.36129   0.34146   0.00000  Uiso   1.00
H523   H     0.55000   0.41085   0.31654   0.00000  Uiso   1.00
C524   C     0.45677   0.62285   0.17674   0.00000  Uiso   1.00
C525   C     0.48436   0.62732   0.13805   0.00000  Uiso   1.00
H526   H     0.48712   0.66358   0.12581   0.00000  Uiso   1.00
H527   H     0.51584   0.61440   0.14862   0.00000  Uiso   1.00
H528   H     0.47100   0.60786   0.10987   0.00000  Uiso   1.00
H529   H     0.44806   0.58769   0.18493   0.00000  Uiso   1.00
H530   H     0.42654   0.63763   0.16499   0.00000  Uiso   1.00
C531   C     0.75436   0.50000   0.24915   0.00000  Uiso   1.00
C532   C     0.91248   0.50007   0.25083   0.00000  Uiso   1.00
C533   C     0.76049   0.51832   0.01574   0.00000  Uiso   1.00
C534   C     0.90638   0.48427   0.48428   0.00000  Uiso   1.00
C535   C     0.69059   0.46519   0.27408   0.00000  Uiso   1.00
C536   C     0.97723   0.53643   0.22732   0.00000  Uiso   1.00
C537   C     0.98129   0.46474   0.27404   0.00000  Uiso   1.00
C538   C     0.68643   0.53525   0.22573   0.00000  Uiso   1.00
C539   C     0.95740   0.50043   0.25074   0.00000  Uiso   1.00
C540   C     0.70978   0.49994   0.24932   0.00000  Uiso   1.00
C541   C     0.80798   0.35985   0.21936   0.00000  Uiso   1.00
C542   C     0.85633   0.63986   0.28303   0.00000  Uiso   1.00
C543   C     0.85469   0.35564   0.28372   0.00000  Uiso   1.00
C544   C     0.81035   0.64422   0.21753   0.00000  Uiso   1.00
C545   C     0.83296   0.50109   0.16479   0.00000  Uiso   1.00
C546   C     0.83356   0.49885   0.33524   0.00000  Uiso   1.00
C547   C     0.86931   0.48947   0.41073   0.00000  Uiso   1.00
C548   C     0.79707   0.50992   0.08956   0.00000  Uiso   1.00
C549   C     0.83232   0.49675   0.38357   0.00000  Uiso   1.00
C550   C     0.83418   0.50308   0.11657   0.00000  Uiso   1.00
C551   C     0.79527   0.50655   0.40223   0.00000  Uiso   1.00
C552   C     0.87131   0.49377   0.09785   0.00000  Uiso   1.00
C553   C     0.79575   0.50844   0.44918   0.00000  Uiso   1.00
C554   C     0.87105   0.49365   0.05081   0.00000  Uiso   1.00
C555   C     0.83307   0.50073   0.47647   0.00000  Uiso   1.00
C556   C     0.83378   0.50183   0.02352   0.00000  Uiso   1.00
C557   C     0.86970   0.49153   0.45701   0.00000  Uiso   1.00
C558   C     0.79702   0.51022   0.04308   0.00000  Uiso   1.00
C559   C     0.75986   0.51768   0.46974   0.00000  Uiso   1.00
C560   C     0.90709   0.48533   0.03020   0.00000  Uiso   1.00
Cu561  Cu    0.83333   0.54689   0.25000   0.00000  Uiso   1.00
Cu562  Cu    0.83333   0.45311   0.25000   0.00000  Uiso   1.00
H563   H     0.73062   0.52454   0.45097   0.00000  Uiso   1.00
H564   H     0.93648   0.47916   0.04889   0.00000  Uiso   1.00
H565   H     0.73190   0.52535   0.02972   0.00000  Uiso   1.00
H566   H     0.93503   0.47740   0.47037   0.00000  Uiso   1.00
N567   N     0.83333   0.61736   0.25000   0.00000  Uiso   1.00
N568   N     0.83333   0.38264   0.25000   0.00000  Uiso   1.00
O569   O     0.77321   0.53958   0.24999   0.00000  Uiso   1.00
O570   O     0.89345   0.46042   0.25000   0.00000  Uiso   1.00
O571   O     0.89345   0.53958   0.25000   0.00000  Uiso   1.00
O572   O     0.77321   0.46042   0.24999   0.00000  Uiso   1.00
O573   O     0.83332   0.53960   0.18513   0.00000  Uiso   1.00
O574   O     0.83334   0.46040   0.31487   0.00000  Uiso   1.00
O575   O     0.83334   0.53960   0.31487   0.00000  Uiso   1.00
O576   O     0.83332   0.46040   0.18513   0.00000  Uiso   1.00
N577   N     0.90695   0.47994   0.39166   0.00000  Uiso   1.00
H578   H     0.91164   0.50404   0.36557   0.00000  Uiso   1.00
H579   H     0.90445   0.44769   0.37915   0.00000  Uiso   1.00
N580   N     0.75878   0.51426   0.10917   0.00000  Uiso   1.00
H581   H     0.75446   0.48521   0.13017   0.00000  Uiso   1.00
H582   H     0.76015   0.54281   0.12816   0.00000  Uiso   1.00
C583   C     0.75557   0.51408   0.37195   0.00000  Uiso   1.00
C584   C     0.74562   0.56483   0.36258   0.00000  Uiso   1.00
H585   H     0.74268   0.58185   0.39401   0.00000  Uiso   1.00
H586   H     0.77011   0.58217   0.34455   0.00000  Uiso   1.00
H587   H     0.71614   0.56869   0.34130   0.00000  Uiso   1.00
H588   H     0.75755   0.49886   0.33964   0.00000  Uiso   1.00
H589   H     0.72949   0.49577   0.38620   0.00000  Uiso   1.00
C590   C     0.91045   0.48266   0.12818   0.00000  Uiso   1.00
C591   C     0.91897   0.43129   0.13309   0.00000  Uiso   1.00
H592   H     0.89311   0.41303   0.14798   0.00000  Uiso   1.00
H593   H     0.92308   0.41745   0.10035   0.00000  Uiso   1.00
H594   H     0.94745   0.42461   0.15552   0.00000  Uiso   1.00
H595   H     0.93721   0.50168   0.11624   0.00000  Uiso   1.00
H596   H     0.90834   0.49416   0.16199   0.00000  Uiso   1.00
N597   N     0.71466   0.43077   0.30057   0.00000  Uiso   1.00
H598   H     0.70520   0.39865   0.29050   0.00000  Uiso   1.00
H599   H     0.70865   0.43253   0.33394   0.00000  Uiso   1.00
N600   N     0.95531   0.57473   0.20453   0.00000  Uiso   1.00
H601   H     0.93151   0.56349   0.18248   0.00000  Uiso   1.00
H602   H     0.94366   0.59478   0.22800   0.00000  Uiso   1.00
N603   N     0.96353   0.42863   0.30017   0.00000  Uiso   1.00
H604   H     0.94606   0.40761   0.27910   0.00000  Uiso   1.00
H605   H     0.94572   0.44310   0.32261   0.00000  Uiso   1.00
N606   N     0.70604   0.57000   0.19949   0.00000  Uiso   1.00
H607   H     0.69328   0.56979   0.16642   0.00000  Uiso   1.00
H608   H     0.70005   0.60174   0.21157   0.00000  Uiso   1.00
C609   C     0.77375   0.38502   0.18946   0.00000  Uiso   1.00
C610   C     0.73064   0.37313   0.20361   0.00000  Uiso   1.00
H611   H     0.71214   0.35599   0.17681   0.00000  Uiso   1.00
H612   H     0.73201   0.35057   0.23476   0.00000  Uiso   1.00
H613   H     0.71371   0.40472   0.20913   0.00000  Uiso   1.00
H614   H     0.77583   0.42184   0.18842   0.00000  Uiso   1.00
H615   H     0.77566   0.37818   0.15395   0.00000  Uiso   1.00
C616   C     0.88830   0.61422   0.31614   0.00000  Uiso   1.00
C617   C     0.87769   0.60726   0.36483   0.00000  Uiso   1.00
H618   H     0.84425   0.60217   0.36691   0.00000  Uiso   1.00
H619   H     0.89382   0.57665   0.38100   0.00000  Uiso   1.00
H620   H     0.88910   0.63532   0.38544   0.00000  Uiso   1.00
H621   H     0.89469   0.58045   0.30668   0.00000  Uiso   1.00
H622   H     0.91875   0.63103   0.31486   0.00000  Uiso   1.00
C623   C     0.87153   0.37711   0.32556   0.00000  Uiso   1.00
C624   C     0.83852   0.37727   0.35934   0.00000  Uiso   1.00
H625   H     0.83107   0.34283   0.37286   0.00000  Uiso   1.00
H626   H     0.84915   0.39751   0.38797   0.00000  Uiso   1.00
H627   H     0.80870   0.39090   0.34360   0.00000  Uiso   1.00
H628   H     0.90012   0.36129   0.34146   0.00000  Uiso   1.00
H629   H     0.88333   0.41085   0.31654   0.00000  Uiso   1.00
C630   C     0.79011   0.62285   0.17674   0.00000  Uiso   1.00
C631   C     0.81770   0.62732   0.13805   0.00000  Uiso   1.00
H632   H     0.82045   0.66358   0.12581   0.00000  Uiso   1.00
H633   H     0.84918   0.61440   0.14862   0.00000  Uiso   1.00
H634   H     0.80433   0.60786   0.10987   0.00000  Uiso   1.00
H635   H     0.78139   0.58769   0.18493   0.00000  Uiso   1.00
H636   H     0.75987   0.63763   0.16499   0.00000  Uiso   1.00
C637   C     0.08770   0.83333   0.24915   0.00000  Uiso   1.00
C638   C     0.24582   0.83341   0.25083   0.00000  Uiso   1.00
C639   C     0.09382   0.85166   0.01574   0.00000  Uiso   1.00
C640   C     0.23971   0.81760   0.48428   0.00000  Uiso   1.00
C641   C     0.02392   0.79853   0.27408   0.00000  Uiso   1.00
C642   C     0.31056   0.86976   0.22732   0.00000  Uiso   1.00
C643   C     0.31462   0.79808   0.27404   0.00000  Uiso   1.00
C644   C     0.01976   0.86858   0.22573   0.00000  Uiso   1.00
C645   C     0.29074   0.83376   0.25074   0.00000  Uiso   1.00
C646   C     0.04311   0.83328   0.24932   0.00000  Uiso   1.00
C647   C     0.14131   0.69319   0.21936   0.00000  Uiso   1.00
C648   C     0.18966   0.97319   0.28303   0.00000  Uiso   1.00
C649   C     0.18803   0.68898   0.28372   0.00000  Uiso   1.00
C650   C     0.14369   0.97755   0.21753   0.00000  Uiso   1.00
C651   C     0.16629   0.83443   0.16479   0.00000  Uiso   1.00
C652   C     0.16689   0.83219   0.33524   0.00000  Uiso   1.00
C653   C     0.20264   0.82280   0.41073   0.00000  Uiso   1.00
C654   C     0.13040   0.84325   0.08956   0.00000  Uiso   1.00
C655   C     0.16565   0.83008   0.38357   0.00000  Uiso   1.00
C656   C     0.16751   0.83641   0.11657   0.00000  Uiso   1.00
C657   C     0.12860   0.83988   0.40223   0.00000  Uiso   1.00
C658   C     0.20464   0.82710   0.09785   0.00000  Uiso   1.00
C659   C     0.12908   0.84177   0.44918   0.00000  Uiso   1.00
C660   C     0.20439   0.82698   0.05081   0.00000  Uiso   1.00
C661   C     0.16641   0.83407   0.47647   0.00000  Uiso   1.00
C662   C     0.16712   0.83517   0.02352   0.00000  Uiso   1.00
C663   C     0.20303   0.82486   0.45701   0.00000  Uiso   1.00
C664   C     0.13035   0.84355   0.04308   0.00000  Uiso   1.00
C665   C     0.09319   0.85102   0.46974   0.00000  Uiso   1.00
C666   C     0.24043   0.81866   0.03020   0.00000  Uiso   1.00
Cu667  Cu    0.16667   0.88022   0.25000   0.00000  Uiso   1.00
Cu668  Cu    0.16667   0.78645   0.25000   0.00000  Uiso   1.00
H669   H     0.06395   0.85788   0.45097   0.00000  Uiso   1.00
H670   H     0.26981   0.81249   0.04889   0.00000  Uiso   1.00
H671   H     0.06523   0.85868   0.02972   0.00000  Uiso   1.00
H672   H     0.26836   0.81073   0.47037   0.00000  Uiso   1.00
N673   N     0.16667   0.95069   0.25000   0.00000  Uiso   1.00
N674   N     0.16667   0.71598   0.25000   0.00000  Uiso   1.00
O675   O     0.10655   0.87291   0.24999   0.00000  Uiso   1.00
O676   O     0.22679   0.79375   0.25000   0.00000  Uiso   1.00
O677   O     0.22679   0.87291   0.25000   0.00000  Uiso   1.00
O678   O     0.10655   0.79375   0.24999   0.00000  Uiso   1.00
O679   O     0.16666   0.87293   0.18513   0.00000  Uiso   1.00
O680   O     0.16668   0.79373   0.31487   0.00000  Uiso   1.00
O681   O     0.16668   0.87293   0.31487   0.00000  Uiso   1.00
O682   O     0.16666   0.79373   0.18513   0.00000  Uiso   1.00
N683   N     0.24028   0.81327   0.39166   0.00000  Uiso   1.00
H684   H     0.24497   0.83738   0.36557   0.00000  Uiso   1.00
H685   H     0.23778   0.78102   0.37915   0.00000  Uiso   1.00
N686   N     0.09212   0.84760   0.10917   0.00000  Uiso   1.00
H687   H     0.08780   0.81854   0.13017   0.00000  Uiso   1.00
H688   H     0.09348   0.87614   0.12816   0.00000  Uiso   1.00
C689   C     0.08891   0.84742   0.37195   0.00000  Uiso   1.00
C690   C     0.07896   0.89817   0.36258   0.00000  Uiso   1.00
H691   H     0.07602   0.91518   0.39401   0.00000  Uiso   1.00
H692   H     0.10344   0.91551   0.34455   0.00000  Uiso   1.00
H693   H     0.04948   0.90203   0.34130   0.00000  Uiso   1.00
H694   H     0.09088   0.83219   0.33964   0.00000  Uiso   1.00
H695   H     0.06282   0.82910   0.38620   0.00000  Uiso   1.00
C696   C     0.24378   0.81599   0.12818   0.00000  Uiso   1.00
C697   C     0.25231   0.76462   0.13309   0.00000  Uiso   1.00
H698   H     0.22645   0.74636   0.14798   0.00000  Uiso   1.00
H699   H     0.25642   0.75078   0.10035   0.00000  Uiso   1.00
H700   H     0.28079   0.75794   0.15552   0.00000  Uiso   1.00
H701   H     0.27055   0.83501   0.11624   0.00000  Uiso   1.00
H702   H     0.24167   0.82750   0.16199   0.00000  Uiso   1.00
N703   N     0.04799   0.76410   0.30057   0.00000  Uiso   1.00
H704   H     0.03853   0.73198   0.29050   0.00000  Uiso   1.00
H705   H     0.04198   0.76587   0.33394   0.00000  Uiso   1.00
N706   N     0.28864   0.90806   0.20453   0.00000  Uiso   1.00
H707   H     0.26484   0.89682   0.18248   0.00000  Uiso   1.00
H708   H     0.27700   0.92811   0.22800   0.00000  Uiso   1.00
N709   N     0.29687   0.76196   0.30017   0.00000  Uiso   1.00
H710   H     0.27940   0.74094   0.27910   0.00000  Uiso   1.00
H711   H     0.27905   0.77644   0.32261   0.00000  Uiso   1.00
N712   N     0.03937   0.90334   0.19949   0.00000  Uiso   1.00
H713   H     0.02661   0.90312   0.16642   0.00000  Uiso   1.00
H714   H     0.03339   0.93508   0.21157   0.00000  Uiso   1.00
C715   C     0.10708   0.71836   0.18946   0.00000  Uiso   1.00
C716   C     0.06397   0.70646   0.20361   0.00000  Uiso   1.00
H717   H     0.04547   0.68932   0.17681   0.00000  Uiso   1.00
H718   H     0.06535   0.68391   0.23476   0.00000  Uiso   1.00
H719   H     0.04704   0.73806   0.20913   0.00000  Uiso   1.00
H720   H     0.10917   0.75517   0.18842   0.00000  Uiso   1.00
H721   H     0.10899   0.71152   0.15395   0.00000  Uiso   1.00
C722   C     0.22163   0.94755   0.31614   0.00000  Uiso   1.00
C723   C     0.21103   0.94059   0.36483   0.00000  Uiso   1.00
H724   H     0.17758   0.93550   0.36691   0.00000  Uiso   1.00
H725   H     0.22715   0.90998   0.38100   0.00000  Uiso   1.00
H726   H     0.22244   0.96865   0.38544   0.00000  Uiso   1.00
H727   H     0.22802   0.91378   0.30668   0.00000  Uiso   1.00
H728   H     0.25208   0.96436   0.31486   0.00000  Uiso   1.00
C729   C     0.20486   0.71044   0.32556   0.00000  Uiso   1.00
C730   C     0.17185   0.71060   0.35934   0.00000  Uiso   1.00
H731   H     0.16440   0.67616   0.37286   0.00000  Uiso   1.00
H732   H     0.18248   0.73085   0.38797   0.00000  Uiso   1.00
H733   H     0.14204   0.72424   0.34360   0.00000  Uiso   1.00
H734   H     0.23345   0.69463   0.34146   0.00000  Uiso   1.00
H735   H     0.21666   0.74418   0.31654   0.00000  Uiso   1.00
C736   C     0.12344   0.95618   0.17674   0.00000  Uiso   1.00
C737   C     0.15103   0.96066   0.13805   0.00000  Uiso   1.00
H738   H     0.15378   0.99691   0.12581   0.00000  Uiso   1.00
H739   H     0.18251   0.94773   0.14862   0.00000  Uiso   1.00
H740   H     0.13767   0.94120   0.10987   0.00000  Uiso   1.00
H741   H     0.11473   0.92102   0.18493   0.00000  Uiso   1.00
H742   H     0.09320   0.97097   0.16499   0.00000  Uiso   1.00
C743   C     0.42103   0.83333   0.24915   0.00000  Uiso   1.00
C744   C     0.57915   0.83341   0.25083   0.00000  Uiso   1.00
C745   C     0.42716   0.85166   0.01574   0.00000  Uiso   1.00
C746   C     0.57304   0.81760   0.48428   0.00000  Uiso   1.00
C747   C     0.35725   0.79853   0.27408   0.00000  Uiso   1.00
C748   C     0.64389   0.86976   0.22732   0.00000  Uiso   1.00
C749   C     0.64796   0.79808   0.27404   0.00000  Uiso   1.00
C750   C     0.35309   0.86858   0.22573   0.00000  Uiso   1.00
C751   C     0.62407   0.83376   0.25074   0.00000  Uiso   1.00
C752   C     0.37644   0.83328   0.24932   0.00000  Uiso   1.00
C753   C     0.47464   0.69319   0.21936   0.00000  Uiso   1.00
C754   C     0.52300   0.97319   0.28303   0.00000  Uiso   1.00
C755   C     0.52136   0.68898   0.28372   0.00000  Uiso   1.00
C756   C     0.47702   0.97755   0.21753   0.00000  Uiso   1.00
C757   C     0.49962   0.83443   0.16479   0.00000  Uiso   1.00
C758   C     0.50022   0.83219   0.33524   0.00000  Uiso   1.00
C759   C     0.53598   0.82280   0.41073   0.00000  Uiso   1.00
C760   C     0.46373   0.84325   0.08956   0.00000  Uiso   1.00
C761   C     0.49898   0.83008   0.38357   0.00000  Uiso   1.00
C762   C     0.50084   0.83641   0.11657   0.00000  Uiso   1.00
C763   C     0.46193   0.83988   0.40223   0.00000  Uiso   1.00
C764   C     0.53798   0.82710   0.09785   0.00000  Uiso   1.00
C765   C     0.46242   0.84177   0.44918   0.00000  Uiso   1.00
C766   C     0.53772   0.82698   0.05081   0.00000  Uiso   1.00
C767   C     0.49974   0.83407   0.47647   0.00000  Uiso   1.00
C768   C     0.50045   0.83517   0.02352   0.00000  Uiso   1.00
C769   C     0.53636   0.82486   0.45701   0.00000  Uiso   1.00
C770   C     0.46368   0.84355   0.04308   0.00000  Uiso   1.00
C771   C     0.42653   0.85102   0.46974   0.00000  Uiso   1.00
C772   C     0.57376   0.81866   0.03020   0.00000  Uiso   1.00
Cu773  Cu    0.50000   0.88022   0.25000   0.00000  Uiso   1.00
Cu774  Cu    0.50000   0.78645   0.25000   0.00000  Uiso   1.00
H775   H     0.39728   0.85788   0.45097   0.00000  Uiso   1.00
H776   H     0.60315   0.81249   0.04889   0.00000  Uiso   1.00
H777   H     0.39857   0.85868   0.02972   0.00000  Uiso   1.00
H778   H     0.60169   0.81073   0.47037   0.00000  Uiso   1.00
N779   N     0.50000   0.95069   0.25000   0.00000  Uiso   1.00
N780   N     0.50000   0.71598   0.25000   0.00000  Uiso   1.00
O781   O     0.43988   0.87291   0.24999   0.00000  Uiso   1.00
O782   O     0.56012   0.79375   0.25000   0.00000  Uiso   1.00
O783   O     0.56012   0.87291   0.25000   0.00000  Uiso   1.00
O784   O     0.43988   0.79375   0.24999   0.00000  Uiso   1.00
O785   O     0.49999   0.87293   0.18513   0.00000  Uiso   1.00
O786   O     0.50001   0.79373   0.31487   0.00000  Uiso   1.00
O787   O     0.50001   0.87293   0.31487   0.00000  Uiso   1.00
O788   O     0.49999   0.79373   0.18513   0.00000  Uiso   1.00
N789   N     0.57361   0.81327   0.39166   0.00000  Uiso   1.00
H790   H     0.57831   0.83738   0.36557   0.00000  Uiso   1.00
H791   H     0.57112   0.78102   0.37915   0.00000  Uiso   1.00
N792   N     0.42545   0.84760   0.10917   0.00000  Uiso   1.00
H793   H     0.42113   0.81854   0.13017   0.00000  Uiso   1.00
H794   H     0.42681   0.87614   0.12816   0.00000  Uiso   1.00
C795   C     0.42224   0.84742   0.37195   0.00000  Uiso   1.00
C796   C     0.41229   0.89817   0.36258   0.00000  Uiso   1.00
H797   H     0.40935   0.91518   0.39401   0.00000  Uiso   1.00
H798   H     0.43677   0.91551   0.34455   0.00000  Uiso   1.00
H799   H     0.38281   0.90203   0.34130   0.00000  Uiso   1.00
H800   H     0.42421   0.83219   0.33964   0.00000  Uiso   1.00
H801   H     0.39615   0.82910   0.38620   0.00000  Uiso   1.00
C802   C     0.57712   0.81599   0.12818   0.00000  Uiso   1.00
C803   C     0.58564   0.76462   0.13309   0.00000  Uiso   1.00
H804   H     0.55978   0.74636   0.14798   0.00000  Uiso   1.00
H805   H     0.58975   0.75078   0.10035   0.00000  Uiso   1.00
H806   H     0.61412   0.75794   0.15552   0.00000  Uiso   1.00
H807   H     0.60388   0.83501   0.11624   0.00000  Uiso   1.00
H808   H     0.57500   0.82750   0.16199   0.00000  Uiso   1.00
N809   N     0.38133   0.76410   0.30057   0.00000  Uiso   1.00
H810   H     0.37186   0.73198   0.29050   0.00000  Uiso   1.00
H811   H     0.37531   0.76587   0.33394   0.00000  Uiso   1.00
N812   N     0.62198   0.90806   0.20453   0.00000  Uiso   1.00
H813   H     0.59818   0.89682   0.18248   0.00000  Uiso   1.00
H814   H     0.61033   0.92811   0.22800   0.00000  Uiso   1.00
N815   N     0.63020   0.76196   0.30017   0.00000  Uiso   1.00
H816   H     0.61273   0.74094   0.27910   0.00000  Uiso   1.00
H817   H     0.61239   0.77644   0.32261   0.00000  Uiso   1.00
N818   N     0.37270   0.90334   0.19949   0.00000  Uiso   1.00
H819   H     0.35994   0.90312   0.16642   0.00000  Uiso   1.00
H820   H     0.36672   0.93508   0.21157   0.00000  Uiso   1.00
C821   C     0.44042   0.71836   0.18946   0.00000  Uiso   1.00
C822   C     0.39730   0.70646   0.20361   0.00000  Uiso   1.00
H823   H     0.37881   0.68932   0.17681   0.00000  Uiso   1.00
H824   H     0.39868   0.68391   0.23476   0.00000  Uiso   1.00
H825   H     0.38038   0.73806   0.20913   0.00000  Uiso   1.00
H826   H     0.44250   0.75517   0.18842   0.00000  Uiso   1.00
H827   H     0.44232   0.71152   0.15395   0.00000  Uiso   1.00
C828   C     0.55497   0.94755   0.31614   0.00000  Uiso   1.00
C829   C     0.54436   0.94059   0.36483   0.00000  Uiso   1.00
H830   H     0.51091   0.93550   0.36691   0.00000  Uiso   1.00
H831   H     0.56049   0.90998   0.38100   0.00000  Uiso   1.00
H832   H     0.55577   0.96865   0.38544   0.00000  Uiso   1.00
H833   H     0.56135   0.91378   0.30668   0.00000  Uiso   1.00
H834   H     0.58541   0.96436   0.31486   0.00000  Uiso   1.00
C835   C     0.53820   0.71044   0.32556   0.00000  Uiso   1.00
C836   C     0.50519   0.71060   0.35934   0.00000  Uiso   1.00
H837   H     0.49774   0.67616   0.37286   0.00000  Uiso   1.00
H838   H     0.51582   0.73085   0.38797   0.00000  Uiso   1.00
H839   H     0.47537   0.72424   0.34360   0.00000  Uiso   1.00
H840   H     0.56679   0.69463   0.34146   0.00000  Uiso   1.00
H841   H     0.55000   0.74418   0.31654   0.00000  Uiso   1.00
C842   C     0.45677   0.95618   0.17674   0.00000  Uiso   1.00
C843   C     0.48436   0.96066   0.13805   0.00000  Uiso   1.00
H844   H     0.48712   0.99691   0.12581   0.00000  Uiso   1.00
H845   H     0.51584   0.94773   0.14862   0.00000  Uiso   1.00
H846   H     0.47100   0.94120   0.10987   0.00000  Uiso   1.00
H847   H     0.44806   0.92102   0.18493   0.00000  Uiso   1.00
H848   H     0.42654   0.97097   0.16499   0.00000  Uiso   1.00
C849   C     0.75436   0.83333   0.24915   0.00000  Uiso   1.00
C850   C     0.91248   0.83341   0.25083   0.00000  Uiso   1.00
C851   C     0.76049   0.85166   0.01574   0.00000  Uiso   1.00
C852   C     0.90638   0.81760   0.48428   0.00000  Uiso   1.00
C853   C     0.69059   0.79853   0.27408   0.00000  Uiso   1.00
C854   C     0.97723   0.86976   0.22732   0.00000  Uiso   1.00
C855   C     0.98129   0.79808   0.27404   0.00000  Uiso   1.00
C856   C     0.68643   0.86858   0.22573   0.00000  Uiso   1.00
C857   C     0.95740   0.83376   0.25074   0.00000  Uiso   1.00
C858   C     0.70978   0.83328   0.24932   0.00000  Uiso   1.00
C859   C     0.80798   0.69319   0.21936   0.00000  Uiso   1.00
C860   C     0.85633   0.97319   0.28303   0.00000  Uiso   1.00
C861   C     0.85469   0.68898   0.28372   0.00000  Uiso   1.00
C862   C     0.81035   0.97755   0.21753   0.00000  Uiso   1.00
C863   C     0.83296   0.83443   0.16479   0.00000  Uiso   1.00
C864   C     0.83356   0.83219   0.33524   0.00000  Uiso   1.00
C865   C     0.86931   0.82280   0.41073   0.00000  Uiso   1.00
C866   C     0.79707   0.84325   0.08956   0.00000  Uiso   1.00
C867   C     0.83232   0.83008   0.38357   0.00000  Uiso   1.00
C868   C     0.83418   0.83641   0.11657   0.00000  Uiso   1.00
C869   C     0.79527   0.83988   0.40223   0.00000  Uiso   1.00
C870   C     0.87131   0.82710   0.09785   0.00000  Uiso   1.00
C871   C     0.79575   0.84177   0.44918   0.00000  Uiso   1.00
C872   C     0.87105   0.82698   0.05081   0.00000  Uiso   1.00
C873   C     0.83307   0.83407   0.47647   0.00000  Uiso   1.00
C874   C     0.83378   0.83517   0.02352   0.00000  Uiso   1.00
C875   C     0.86970   0.82486   0.45701   0.00000  Uiso   1.00
C876   C     0.79702   0.84355   0.04308   0.00000  Uiso   1.00
C877   C     0.75986   0.85102   0.46974   0.00000  Uiso   1.00
C878   C     0.90709   0.81866   0.03020   0.00000  Uiso   1.00
Cu879  Cu    0.83333   0.88022   0.25000   0.00000  Uiso   1.00
Cu880  Cu    0.83333   0.78645   0.25000   0.00000  Uiso   1.00
H881   H     0.73062   0.85788   0.45097   0.00000  Uiso   1.00
H882   H     0.93648   0.81249   0.04889   0.00000  Uiso   1.00
H883   H     0.73190   0.85868   0.02972   0.00000  Uiso   1.00
H884   H     0.93503   0.81073   0.47037   0.00000  Uiso   1.00
N885   N     0.83333   0.95069   0.25000   0.00000  Uiso   1.00
N886   N     0.83333   0.71598   0.25000   0.00000  Uiso   1.00
O887   O     0.77321   0.87291   0.24999   0.00000  Uiso   1.00
O888   O     0.89345   0.79375   0.25000   0.00000  Uiso   1.00
O889   O     0.89345   0.87291   0.25000   0.00000  Uiso   1.00
O890   O     0.77321   0.79375   0.24999   0.00000  Uiso   1.00
O891   O     0.83332   0.87293   0.18513   0.00000  Uiso   1.00
O892   O     0.83334   0.79373   0.31487   0.00000  Uiso   1.00
O893   O     0.83334   0.87293   0.31487   0.00000  Uiso   1.00
O894   O     0.83332   0.79373   0.18513   0.00000  Uiso   1.00
N895   N     0.90695   0.81327   0.39166   0.00000  Uiso   1.00
H896   H     0.91164   0.83738   0.36557   0.00000  Uiso   1.00
H897   H     0.90445   0.78102   0.37915   0.00000  Uiso   1.00
N898   N     0.75878   0.84760   0.10917   0.00000  Uiso   1.00
H899   H     0.75446   0.81854   0.13017   0.00000  Uiso   1.00
H900   H     0.76015   0.87614   0.12816   0.00000  Uiso   1.00
C901   C     0.75557   0.84742   0.37195   0.00000  Uiso   1.00
C902   C     0.74562   0.89817   0.36258   0.00000  Uiso   1.00
H903   H     0.74268   0.91518   0.39401   0.00000  Uiso   1.00
H904   H     0.77011   0.91551   0.34455   0.00000  Uiso   1.00
H905   H     0.71614   0.90203   0.34130   0.00000  Uiso   1.00
H906   H     0.75755   0.83219   0.33964   0.00000  Uiso   1.00
H907   H     0.72949   0.82910   0.38620   0.00000  Uiso   1.00
C908   C     0.91045   0.81599   0.12818   0.00000  Uiso   1.00
C909   C     0.91897   0.76462   0.13309   0.00000  Uiso   1.00
H910   H     0.89311   0.74636   0.14798   0.00000  Uiso   1.00
H911   H     0.92308   0.75078   0.10035   0.00000  Uiso   1.00
H912   H     0.94745   0.75794   0.15552   0.00000  Uiso   1.00
H913   H     0.93721   0.83501   0.11624   0.00000  Uiso   1.00
H914   H     0.90834   0.82750   0.16199   0.00000  Uiso   1.00
N915   N     0.71466   0.76410   0.30057   0.00000  Uiso   1.00
H916   H     0.70520   0.73198   0.29050   0.00000  Uiso   1.00
H917   H     0.70865   0.76587   0.33394   0.00000  Uiso   1.00
N918   N     0.95531   0.90806   0.20453   0.00000  Uiso   1.00
H919   H     0.93151   0.89682   0.18248   0.00000  Uiso   1.00
H920   H     0.94366   0.92811   0.22800   0.00000  Uiso   1.00
N921   N     0.96353   0.76196   0.30017   0.00000  Uiso   1.00
H922   H     0.94606   0.74094   0.27910   0.00000  Uiso   1.00
H923   H     0.94572   0.77644   0.32261   0.00000  Uiso   1.00
N924   N     0.70604   0.90334   0.19949   0.00000  Uiso   1.00
H925   H     0.69328   0.90312   0.16642   0.00000  Uiso   1.00
H926   H     0.70005   0.93508   0.21157   0.00000  Uiso   1.00
C927   C     0.77375   0.71836   0.18946   0.00000  Uiso   1.00
C928   C     0.73064   0.70646   0.20361   0.00000  Uiso   1.00
H929   H     0.71214   0.68932   0.17681   0.00000  Uiso   1.00
H930   H     0.73201   0.68391   0.23476   0.00000  Uiso   1.00
H931   H     0.71371   0.73806   0.20913   0.00000  Uiso   1.00
H932   H     0.77583   0.75517   0.18842   0.00000  Uiso   1.00
H933   H     0.77566   0.71152   0.15395   0.00000  Uiso   1.00
C934   C     0.88830   0.94755   0.31614   0.00000  Uiso   1.00
C935   C     0.87769   0.94059   0.36483   0.00000  Uiso   1.00
H936   H     0.84425   0.93550   0.36691   0.00000  Uiso   1.00
H937   H     0.89382   0.90998   0.38100   0.00000  Uiso   1.00
H938   H     0.88910   0.96865   0.38544   0.00000  Uiso   1.00
H939   H     0.89469   0.91378   0.30668   0.00000  Uiso   1.00
H940   H     0.91875   0.96436   0.31486   0.00000  Uiso   1.00
C941   C     0.87153   0.71044   0.32556   0.00000  Uiso   1.00
C942   C     0.83852   0.71060   0.35934   0.00000  Uiso   1.00
H943   H     0.83107   0.67616   0.37286   0.00000  Uiso   1.00
H944   H     0.84915   0.73085   0.38797   0.00000  Uiso   1.00
H945   H     0.80870   0.72424   0.34360   0.00000  Uiso   1.00
H946   H     0.90012   0.69463   0.34146   0.00000  Uiso   1.00
H947   H     0.88333   0.74418   0.31654   0.00000  Uiso   1.00
C948   C     0.79011   0.95618   0.17674   0.00000  Uiso   1.00
C949   C     0.81770   0.96066   0.13805   0.00000  Uiso   1.00
H950   H     0.82045   0.99691   0.12581   0.00000  Uiso   1.00
H951   H     0.84918   0.94773   0.14862   0.00000  Uiso   1.00
H952   H     0.80433   0.94120   0.10987   0.00000  Uiso   1.00
H953   H     0.78139   0.92102   0.18493   0.00000  Uiso   1.00
H954   H     0.75987   0.97097   0.16499   0.00000  Uiso   1.00
C955   C     0.08770   0.16667   0.74915   0.00000  Uiso   1.00
C956   C     0.24582   0.16674   0.75083   0.00000  Uiso   1.00
C957   C     0.09382   0.18499   0.51574   0.00000  Uiso   1.00
C958   C     0.23971   0.15093   0.98428   0.00000  Uiso   1.00
C959   C     0.02392   0.13186   0.77408   0.00000  Uiso   1.00
C960   C     0.31056   0.20309   0.72732   0.00000  Uiso   1.00
C961   C     0.31462   0.13141   0.77404   0.00000  Uiso   1.00
C962   C     0.01976   0.20192   0.72573   0.00000  Uiso   1.00
C963   C     0.29074   0.16710   0.75074   0.00000  Uiso   1.00
C964   C     0.04311   0.16661   0.74932   0.00000  Uiso   1.00
C965   C     0.14131   0.02652   0.71936   0.00000  Uiso   1.00
C966   C     0.18966   0.30652   0.78303   0.00000  Uiso   1.00
C967   C     0.18803   0.02231   0.78372   0.00000  Uiso   1.00
C968   C     0.14369   0.31088   0.71753   0.00000  Uiso   1.00
C969   C     0.16629   0.16776   0.66479   0.00000  Uiso   1.00
C970   C     0.16689   0.16552   0.83524   0.00000  Uiso   1.00
C971   C     0.20264   0.15613   0.91073   0.00000  Uiso   1.00
C972   C     0.13040   0.17659   0.58956   0.00000  Uiso   1.00
C973   C     0.16565   0.16341   0.88357   0.00000  Uiso   1.00
C974   C     0.16751   0.16975   0.61657   0.00000  Uiso   1.00
C975   C     0.12860   0.17322   0.90223   0.00000  Uiso   1.00
C976   C     0.20464   0.16044   0.59785   0.00000  Uiso   1.00
C977   C     0.12908   0.17511   0.94918   0.00000  Uiso   1.00
C978   C     0.20439   0.16031   0.55081   0.00000  Uiso   1.00
C979   C     0.16641   0.16740   0.97647   0.00000  Uiso   1.00
C980   C     0.16712   0.16850   0.52352   0.00000  Uiso   1.00
C981   C     0.20303   0.15820   0.95701   0.00000  Uiso   1.00
C982   C     0.13035   0.17689   0.54308   0.00000  Uiso   1.00
C983   C     0.09319   0.18435   0.96974   0.00000  Uiso   1.00
C984   C     0.24043   0.15199   0.53020   0.00000  Uiso   1.00
Cu985  Cu    0.16667   0.21355   0.75000   0.00000  Uiso   1.00
Cu986  Cu    0.16667   0.11978   0.75000   0.00000  Uiso   1.00
H987   H     0.06395   0.19121   0.95097   0.00000  Uiso   1.00
H988   H     0.26981   0.14583   0.54889   0.00000  Uiso   1.00
H989   H     0.06523   0.19201   0.52972   0.00000  Uiso   1.00
H990   H     0.26836   0.14406   0.97037   0.00000  Uiso   1.00
N991   N     0.16667   0.28402   0.75000   0.00000  Uiso   1.00
N992   N     0.16667   0.04931   0.75000   0.00000  Uiso   1.00
O993   O     0.10655   0.20625   0.74999   0.00000  Uiso   1.00
O994   O     0.22679   0.12709   0.75000   0.00000  Uiso   1.00
O995   O     0.22679   0.20625   0.75000   0.00000  Uiso   1.00
O996   O     0.10655   0.12709   0.74999   0.00000  Uiso   1.00
O997   O     0.16666   0.20627   0.68513   0.00000  Uiso   1.00
O998   O     0.16668   0.12707   0.81487   0.00000  Uiso   1.00
O999   O     0.16668   0.20627   0.81487   0.00000  Uiso   1.00
O1000  O     0.16666   0.12707   0.68513   0.00000  Uiso   1.00
N1001  N     0.24028   0.14661   0.89166   0.00000  Uiso   1.00
H1002  H     0.24497   0.17071   0.86557   0.00000  Uiso   1.00
H1003  H     0.23778   0.11435   0.87915   0.00000  Uiso   1.00
N1004  N     0.09212   0.18093   0.60917   0.00000  Uiso   1.00
H1005  H     0.08780   0.15188   0.63017   0.00000  Uiso   1.00
H1006  H     0.09348   0.20947   0.62816   0.00000  Uiso   1.00
C1007  C     0.08891   0.18075   0.87195   0.00000  Uiso   1.00
C1008  C     0.07896   0.23150   0.86258   0.00000  Uiso   1.00
H1009  H     0.07602   0.24852   0.89401   0.00000  Uiso   1.00
H1010  H     0.10344   0.24884   0.84455   0.00000  Uiso   1.00
H1011  H     0.04948   0.23536   0.84130   0.00000  Uiso   1.00
H1012  H     0.09088   0.16553   0.83964   0.00000  Uiso   1.00
H1013  H     0.06282   0.16244   0.88620   0.00000  Uiso   1.00
C1014  C     0.24378   0.14933   0.62818   0.00000  Uiso   1.00
C1015  C     0.25231   0.09796   0.63309   0.00000  Uiso   1.00
H1016  H     0.22645   0.07970   0.64798   0.00000  Uiso   1.00
H1017  H     0.25642   0.08411   0.60035   0.00000  Uiso   1.00
H1018  H     0.28079   0.09127   0.65552   0.00000  Uiso   1.00
H1019  H     0.27055   0.16834   0.61624   0.00000  Uiso   1.00
H1020  H     0.24167   0.16083   0.66199   0.00000  Uiso   1.00
N1021  N     0.04799   0.09744   0.80057   0.00000  Uiso   1.00
H1022  H     0.03853   0.06532   0.79050   0.00000  Uiso   1.00
H1023  H     0.04198   0.09920   0.83394   0.00000  Uiso   1.00
N1024  N     0.28864   0.24139   0.70453   0.00000  Uiso   1.00
H1025  H     0.26484   0.23016   0.68248   0.00000  Uiso   1.00
H1026  H     0.27700   0.26145   0.72800   0.00000  Uiso   1.00
N1027  N     0.29687   0.09529   0.80017   0.00000  Uiso   1.00
H1028  H     0.27940   0.07427   0.77910   0.00000  Uiso   1.00
H1029  H     0.27905   0.10977   0.82261   0.00000  Uiso   1.00
N1030  N     0.03937   0.23667   0.69949   0.00000  Uiso   1.00
H1031  H     0.02661   0.23645   0.66642   0.00000  Uiso   1.00
H1032  H     0.03339   0.26841   0.71157   0.00000  Uiso   1.00
C1033  C     0.10708   0.05169   0.68946   0.00000  Uiso   1.00
C1034  C     0.06397   0.03980   0.70361   0.00000  Uiso   1.00
H1035  H     0.04547   0.02266   0.67681   0.00000  Uiso   1.00
H1036  H     0.06535   0.01724   0.73476   0.00000  Uiso   1.00
H1037  H     0.04704   0.07139   0.70913   0.00000  Uiso   1.00
H1038  H     0.10917   0.08850   0.68842   0.00000  Uiso   1.00
H1039  H     0.10899   0.04485   0.65395   0.00000  Uiso   1.00
C1040  C     0.22163   0.28088   0.81614   0.00000  Uiso   1.00
C1041  C     0.21103   0.27392   0.86483   0.00000  Uiso   1.00
H1042  H     0.17758   0.26884   0.86691   0.00000  Uiso   1.00
H1043  H     0.22715   0.24332   0.88100   0.00000  Uiso   1.00
H1044  H     0.22244   0.30198   0.88544   0.00000  Uiso   1.00
H1045  H     0.22802   0.24712   0.80668   0.00000  Uiso   1.00
H1046  H     0.25208   0.29770   0.81486   0.00000  Uiso   1.00
C1047  C     0.20486   0.04377   0.82556   0.00000  Uiso   1.00
C1048  C     0.17185   0.04393   0.85934   0.00000  Uiso   1.00
H1049  H     0.16440   0.00949   0.87286   0.00000  Uiso   1.00
H1050  H     0.18248   0.06418   0.88797   0.00000  Uiso   1.00
H1051  H     0.14204   0.05757   0.84360   0.00000  Uiso   1.00
H1052  H     0.23345   0.02796   0.84146   0.00000  Uiso   1.00
H1053  H     0.21666   0.07751   0.81654   0.00000  Uiso   1.00
C1054  C     0.12344   0.28952   0.67674   0.00000  Uiso   1.00
C1055  C     0.15103   0.29399   0.63805   0.00000  Uiso   1.00
H1056  H     0.15378   0.33024   0.62581   0.00000  Uiso   1.00
H1057  H     0.18251   0.28107   0.64862   0.00000  Uiso   1.00
H1058  H     0.13767   0.27453   0.60987   0.00000  Uiso   1.00
H1059  H     0.11473   0.25435   0.68493   0.00000  Uiso   1.00
H1060  H     0.09320   0.30430   0.66499   0.00000  Uiso   1.00
C1061  C     0.42103   0.16667   0.74915   0.00000  Uiso   1.00
C1062  C     0.57915   0.16674   0.75083   0.00000  Uiso   1.00
C1063  C     0.42716   0.18499   0.51574   0.00000  Uiso   1.00
C1064  C     0.57304   0.15093   0.98428   0.00000  Uiso   1.00
C1065  C     0.35725   0.13186   0.77408   0.00000  Uiso   1.00
C1066  C     0.64389   0.20309   0.72732   0.00000  Uiso   1.00
C1067  C     0.64796   0.13141   0.77404   0.00000  Uiso   1.00
C1068  C     0.35309   0.20192   0.72573   0.00000  Uiso   1.00
C1069  C     0.62407   0.16710   0.75074   0.00000  Uiso   1.00
C1070  C     0.37644   0.16661   0.74932   0.00000  Uiso   1.00
C1071  C     0.47464   0.02652   0.71936   0.00000  Uiso   1.00
C1072  C     0.52300   0.30652   0.78303   0.00000  Uiso   1.00
C1073  C     0.52136   0.02231   0.78372   0.00000  Uiso   1.00
C1074  C     0.47702   0.31088   0.71753   0.00000  Uiso   1.00
C1075  C     0.49962   0.16776   0.66479   0.00000  Uiso   1.00
C1076  C     0.50022   0.16552   0.83524   0.00000  Uiso   1.00
C1077  C     0.53598   0.15613   0.91073   0.00000  Uiso   1.00
C1078  C     0.46373   0.17659   0.58956   0.00000  Uiso   1.00
C1079  C     0.49898   0.16341   0.88357   0.00000  Uiso   1.00
C1080  C     0.50084   0.16975   0.61657   0.00000  Uiso   1.00
C1081  C     0.46193   0.17322   0.90223   0.00000  Uiso   1.00
C1082  C     0.53798   0.16044   0.59785   0.00000  Uiso   1.00
C1083  C     0.46242   0.17511   0.94918   0.00000  Uiso   1.00
C1084  C     0.53772   0.16031   0.55081   0.00000  Uiso   1.00
C1085  C     0.49974   0.16740   0.97647   0.00000  Uiso   1.00
C1086  C     0.50045   0.16850   0.52352   0.00000  Uiso   1.00
C1087  C     0.53636   0.15820   0.95701   0.00000  Uiso   1.00
C1088  C     0.46368   0.17689   0.54308   0.00000  Uiso   1.00
C1089  C     0.42653   0.18435   0.96974   0.00000  Uiso   1.00
C1090  C     0.57376   0.15199   0.53020   0.00000  Uiso   1.00
Cu1091 Cu    0.50000   0.21355   0.75000   0.00000  Uiso   1.00
Cu1092 Cu    0.50000   0.11978   0.75000   0.00000  Uiso   1.00
H1093  H     0.39728   0.19121   0.95097   0.00000  Uiso   1.00
H1094  H     0.60315   0.14583   0.54889   0.00000  Uiso   1.00
H1095  H     0.39857   0.19201   0.52972   0.00000  Uiso   1.00
H1096  H     0.60169   0.14406   0.97037   0.00000  Uiso   1.00
N1097  N     0.50000   0.28402   0.75000   0.00000  Uiso   1.00
N1098  N     0.50000   0.04931   0.75000   0.00000  Uiso   1.00
O1099  O     0.43988   0.20625   0.74999   0.00000  Uiso   1.00
O1100  O     0.56012   0.12709   0.75000   0.00000  Uiso   1.00
O1101  O     0.56012   0.20625   0.75000   0.00000  Uiso   1.00
O1102  O     0.43988   0.12709   0.74999   0.00000  Uiso   1.00
O1103  O     0.49999   0.20627   0.68513   0.00000  Uiso   1.00
O1104  O     0.50001   0.12707   0.81487   0.00000  Uiso   1.00
O1105  O     0.50001   0.20627   0.81487   0.00000  Uiso   1.00
O1106  O     0.49999   0.12707   0.68513   0.00000  Uiso   1.00
N1107  N     0.57361   0.14661   0.89166   0.00000  Uiso   1.00
H1108  H     0.57831   0.17071   0.86557   0.00000  Uiso   1.00
H1109  H     0.57112   0.11435   0.87915   0.00000  Uiso   1.00
N1110  N     0.42545   0.18093   0.60917   0.00000  Uiso   1.00
H1111  H     0.42113   0.15188   0.63017   0.00000  Uiso   1.00
H1112  H     0.42681   0.20947   0.62816   0.00000  Uiso   1.00
C1113  C     0.42224   0.18075   0.87195   0.00000  Uiso   1.00
C1114  C     0.41229   0.23150   0.86258   0.00000  Uiso   1.00
H1115  H     0.40935   0.24852   0.89401   0.00000  Uiso   1.00
H1116  H     0.43677   0.24884   0.84455   0.00000  Uiso   1.00
H1117  H     0.38281   0.23536   0.84130   0.00000  Uiso   1.00
H1118  H     0.42421   0.16553   0.83964   0.00000  Uiso   1.00
H1119  H     0.39615   0.16244   0.88620   0.00000  Uiso   1.00
C1120  C     0.57712   0.14933   0.62818   0.00000  Uiso   1.00
C1121  C     0.58564   0.09796   0.63309   0.00000  Uiso   1.00
H1122  H     0.55978   0.07970   0.64798   0.00000  Uiso   1.00
H1123  H     0.58975   0.08411   0.60035   0.00000  Uiso   1.00
H1124  H     0.61412   0.09127   0.65552   0.00000  Uiso   1.00
H1125  H     0.60388   0.16834   0.61624   0.00000  Uiso   1.00
H1126  H     0.57500   0.16083   0.66199   0.00000  Uiso   1.00
N1127  N     0.38133   0.09744   0.80057   0.00000  Uiso   1.00
H1128  H     0.37186   0.06532   0.79050   0.00000  Uiso   1.00
H1129  H     0.37531   0.09920   0.83394   0.00000  Uiso   1.00
N1130  N     0.62198   0.24139   0.70453   0.00000  Uiso   1.00
H1131  H     0.59818   0.23016   0.68248   0.00000  Uiso   1.00
H1132  H     0.61033   0.26145   0.72800   0.00000  Uiso   1.00
N1133  N     0.63020   0.09529   0.80017   0.00000  Uiso   1.00
H1134  H     0.61273   0.07427   0.77910   0.00000  Uiso   1.00
H1135  H     0.61239   0.10977   0.82261   0.00000  Uiso   1.00
N1136  N     0.37270   0.23667   0.69949   0.00000  Uiso   1.00
H1137  H     0.35994   0.23645   0.66642   0.00000  Uiso   1.00
H1138  H     0.36672   0.26841   0.71157   0.00000  Uiso   1.00
C1139  C     0.44042   0.05169   0.68946   0.00000  Uiso   1.00
C1140  C     0.39730   0.03980   0.70361   0.00000  Uiso   1.00
H1141  H     0.37881   0.02266   0.67681   0.00000  Uiso   1.00
H1142  H     0.39868   0.01724   0.73476   0.00000  Uiso   1.00
H1143  H     0.38038   0.07139   0.70913   0.00000  Uiso   1.00
H1144  H     0.44250   0.08850   0.68842   0.00000  Uiso   1.00
H1145  H     0.44232   0.04485   0.65395   0.00000  Uiso   1.00
C1146  C     0.55497   0.28088   0.81614   0.00000  Uiso   1.00
C1147  C     0.54436   0.27392   0.86483   0.00000  Uiso   1.00
H1148  H     0.51091   0.26884   0.86691   0.00000  Uiso   1.00
H1149  H     0.56049   0.24332   0.88100   0.00000  Uiso   1.00
H1150  H     0.55577   0.30198   0.88544   0.00000  Uiso   1.00
H1151  H     0.56135   0.24712   0.80668   0.00000  Uiso   1.00
H1152  H     0.58541   0.29770   0.81486   0.00000  Uiso   1.00
C1153  C     0.53820   0.04377   0.82556   0.00000  Uiso   1.00
C1154  C     0.50519   0.04393   0.85934   0.00000  Uiso   1.00
H1155  H     0.49774   0.00949   0.87286   0.00000  Uiso   1.00
H1156  H     0.51582   0.06418   0.88797   0.00000  Uiso   1.00
H1157  H     0.47537   0.05757   0.84360   0.00000  Uiso   1.00
H1158  H     0.56679   0.02796   0.84146   0.00000  Uiso   1.00
H1159  H     0.55000   0.07751   0.81654   0.00000  Uiso   1.00
C1160  C     0.45677   0.28952   0.67674   0.00000  Uiso   1.00
C1161  C     0.48436   0.29399   0.63805   0.00000  Uiso   1.00
H1162  H     0.48712   0.33024   0.62581   0.00000  Uiso   1.00
H1163  H     0.51584   0.28107   0.64862   0.00000  Uiso   1.00
H1164  H     0.47100   0.27453   0.60987   0.00000  Uiso   1.00
H1165  H     0.44806   0.25435   0.68493   0.00000  Uiso   1.00
H1166  H     0.42654   0.30430   0.66499   0.00000  Uiso   1.00
C1167  C     0.75436   0.16667   0.74915   0.00000  Uiso   1.00
C1168  C     0.91248   0.16674   0.75083   0.00000  Uiso   1.00
C1169  C     0.76049   0.18499   0.51574   0.00000  Uiso   1.00
C1170  C     0.90638   0.15093   0.98428   0.00000  Uiso   1.00
C1171  C     0.69059   0.13186   0.77408   0.00000  Uiso   1.00
C1172  C     0.97723   0.20309   0.72732   0.00000  Uiso   1.00
C1173  C     0.98129   0.13141   0.77404   0.00000  Uiso   1.00
C1174  C     0.68643   0.20192   0.72573   0.00000  Uiso   1.00
C1175  C     0.95740   0.16710   0.75074   0.00000  Uiso   1.00
C1176  C     0.70978   0.16661   0.74932   0.00000  Uiso   1.00
C1177  C     0.80798   0.02652   0.71936   0.00000  Uiso   1.00
C1178  C     0.85633   0.30652   0.78303   0.00000  Uiso   1.00
C1179  C     0.85469   0.02231   0.78372   0.00000  Uiso   1.00
C1180  C     0.81035   0.31088   0.71753   0.00000  Uiso   1.00
C1181  C     0.83296   0.16776   0.66479   0.00000  Uiso   1.00
C1182  C     0.83356   0.16552   0.83524   0.00000  Uiso   1.00
C1183  C     0.86931   0.15613   0.91073   0.00000  Uiso   1.00
C1184  C     0.79707   0.17659   0.58956   0.00000  Uiso   1.00
C1185  C     0.83232   0.16341   0.88357   0.00000  Uiso   1.00
C1186  C     0.83418   0.16975   0.61657   0.00000  Uiso   1.00
C1187  C     0.79527   0.17322   0.90223   0.00000  Uiso   1.00
C1188  C     0.87131   0.16044   0.59785   0.00000  Uiso   1.00
C1189  C     0.79575   0.17511   0.94918   0.00000  Uiso   1.00
C1190  C     0.87105   0.16031   0.55081   0.00000  Uiso   1.00
C1191  C     0.83307   0.16740   0.97647   0.00000  Uiso   1.00
C1192  C     0.83378   0.16850   0.52352   0.00000  Uiso   1.00
C1193  C     0.86970   0.15820   0.95701   0.00000  Uiso   1.00
C1194  C     0.79702   0.17689   0.54308   0.00000  Uiso   1.00
C1195  C     0.75986   0.18435   0.96974   0.00000  Uiso   1.00
C1196  C     0.90709   0.15199   0.53020   0.00000  Uiso   1.00
Cu1197 Cu    0.83333   0.21355   0.75000   0.00000  Uiso   1.00
Cu1198 Cu    0.83333   0.11978   0.75000   0.00000  Uiso   1.00
H1199  H     0.73062   0.19121   0.95097   0.00000  Uiso   1.00
H1200  H     0.93648   0.14583   0.54889   0.00000  Uiso   1.00
H1201  H     0.73190   0.19201   0.52972   0.00000  Uiso   1.00
H1202  H     0.93503   0.14406   0.97037   0.00000  Uiso   1.00
N1203  N     0.83333   0.28402   0.75000   0.00000  Uiso   1.00
N1204  N     0.83333   0.04931   0.75000   0.00000  Uiso   1.00
O1205  O     0.77321   0.20625   0.74999   0.00000  Uiso   1.00
O1206  O     0.89345   0.12709   0.75000   0.00000  Uiso   1.00
O1207  O     0.89345   0.20625   0.75000   0.00000  Uiso   1.00
O1208  O     0.77321   0.12709   0.74999   0.00000  Uiso   1.00
O1209  O     0.83332   0.20627   0.68513   0.00000  Uiso   1.00
O1210  O     0.83334   0.12707   0.81487   0.00000  Uiso   1.00
O1211  O     0.83334   0.20627   0.81487   0.00000  Uiso   1.00
O1212  O     0.83332   0.12707   0.68513   0.00000  Uiso   1.00
N1213  N     0.90695   0.14661   0.89166   0.00000  Uiso   1.00
H1214  H     0.91164   0.17071   0.86557   0.00000  Uiso   1.00
H1215  H     0.90445   0.11435   0.87915   0.00000  Uiso   1.00
N1216  N     0.75878   0.18093   0.60917   0.00000  Uiso   1.00
H1217  H     0.75446   0.15188   0.63017   0.00000  Uiso   1.00
H1218  H     0.76015   0.20947   0.62816   0.00000  Uiso   1.00
C1219  C     0.75557   0.18075   0.87195   0.00000  Uiso   1.00
C1220  C     0.74562   0.23150   0.86258   0.00000  Uiso   1.00
H1221  H     0.74268   0.24852   0.89401   0.00000  Uiso   1.00
H1222  H     0.77011   0.24884   0.84455   0.00000  Uiso   1.00
H1223  H     0.71614   0.23536   0.84130   0.00000  Uiso   1.00
H1224  H     0.75755   0.16553   0.83964   0.00000  Uiso   1.00
H1225  H     0.72949   0.16244   0.88620   0.00000  Uiso   1.00
C1226  C     0.91045   0.14933   0.62818   0.00000  Uiso   1.00
C1227  C     0.91897   0.09796   0.63309   0.00000  Uiso   1.00
H1228  H     0.89311   0.07970   0.64798   0.00000  Uiso   1.00
H1229  H     0.92308   0.08411   0.60035   0.00000  Uiso   1.00
H1230  H     0.94745   0.09127   0.65552   0.00000  Uiso   1.00
H1231  H     0.93721   0.16834   0.61624   0.00000  Uiso   1.00
H1232  H     0.90834   0.16083   0.66199   0.00000  Uiso   1.00
N1233  N     0.71466   0.09744   0.80057   0.00000  Uiso   1.00
H1234  H     0.70520   0.06532   0.79050   0.00000  Uiso   1.00
H1235  H     0.70865   0.09920   0.83394   0.00000  Uiso   1.00
N1236  N     0.95531   0.24139   0.70453   0.00000  Uiso   1.00
H1237  H     0.93151   0.23016   0.68248   0.00000  Uiso   1.00
H1238  H     0.94366   0.26145   0.72800   0.00000  Uiso   1.00
N1239  N     0.96353   0.09529   0.80017   0.00000  Uiso   1.00
H1240  H     0.94606   0.07427   0.77910   0.00000  Uiso   1.00
H1241  H     0.94572   0.10977   0.82261   0.00000  Uiso   1.00
N1242  N     0.70604   0.23667   0.69949   0.00000  Uiso   1.00
H1243  H     0.69328   0.23645   0.66642   0.00000  Uiso   1.00
H1244  H     0.70005   0.26841   0.71157   0.00000  Uiso   1.00
C1245  C     0.77375   0.05169   0.68946   0.00000  Uiso   1.00
C1246  C     0.73064   0.03980   0.70361   0.00000  Uiso   1.00
H1247  H     0.71214   0.02266   0.67681   0.00000  Uiso   1.00
H1248  H     0.73201   0.01724   0.73476   0.00000  Uiso   1.00
H1249  H     0.71371   0.07139   0.70913   0.00000  Uiso   1.00
H1250  H     0.77583   0.08850   0.68842   0.00000  Uiso   1.00
H1251  H     0.77566   0.04485   0.65395   0.00000  Uiso   1.00
C1252  C     0.88830   0.28088   0.81614   0.00000  Uiso   1.00
C1253  C     0.87769   0.27392   0.86483   0.00000  Uiso   1.00
H1254  H     0.84425   0.26884   0.86691   0.00000  Uiso   1.00
H1255  H     0.89382   0.24332   0.88100   0.00000  Uiso   1.00
H1256  H     0.88910   0.30198   0.88544   0.00000  Uiso   1.00
H1257  H     0.89469   0.24712   0.80668   0.00000  Uiso   1.00
H1258  H     0.91875   0.29770   0.81486   0.00000  Uiso   1.00
C1259  C     0.87153   0.04377   0.82556   0.00000  Uiso   1.00
C1260  C     0.83852   0.04393   0.85934   0.00000  Uiso   1.00
H1261  H     0.83107   0.00949   0.87286   0.00000  Uiso   1.00
H1262  H     0.84915   0.06418   0.88797   0.00000  Uiso   1.00
H1263  H     0.80870   0.05757   0.84360   0.00000  Uiso   1.00
H1264  H     0.90012   0.02796   0.84146   0.00000  Uiso   1.00
H1265  H     0.88333   0.07751   0.81654   0.00000  Uiso   1.00
C1266  C     0.79011   0.28952   0.67674   0.00000  Uiso   1.00
C1267  C     0.81770   0.29399   0.63805   0.00000  Uiso   1.00
H1268  H     0.82045   0.33024   0.62581   0.00000  Uiso   1.00
H1269  H     0.84918   0.28107   0.64862   0.00000  Uiso   1.00
H1270  H     0.80433   0.27453   0.60987   0.00000  Uiso   1.00
H1271  H     0.78139   0.25435   0.68493   0.00000  Uiso   1.00
H1272  H     0.75987   0.30430   0.66499   0.00000  Uiso   1.00
C1273  C     0.08770   0.50000   0.74915   0.00000  Uiso   1.00
C1274  C     0.24582   0.50007   0.75083   0.00000  Uiso   1.00
C1275  C     0.09382   0.51832   0.51574   0.00000  Uiso   1.00
C1276  C     0.23971   0.48427   0.98428   0.00000  Uiso   1.00
C1277  C     0.02392   0.46519   0.77408   0.00000  Uiso   1.00
C1278  C     0.31056   0.53643   0.72732   0.00000  Uiso   1.00
C1279  C     0.31462   0.46474   0.77404   0.00000  Uiso   1.00
C1280  C     0.01976   0.53525   0.72573   0.00000  Uiso   1.00
C1281  C     0.29074   0.50043   0.75074   0.00000  Uiso   1.00
C1282  C     0.04311   0.49994   0.74932   0.00000  Uiso   1.00
C1283  C     0.14131   0.35985   0.71936   0.00000  Uiso   1.00
C1284  C     0.18966   0.63986   0.78303   0.00000  Uiso   1.00
C1285  C     0.18803   0.35564   0.78372   0.00000  Uiso   1.00
C1286  C     0.14369   0.64422   0.71753   0.00000  Uiso   1.00
C1287  C     0.16629   0.50109   0.66479   0.00000  Uiso   1.00
C1288  C     0.16689   0.49885   0.83524   0.00000  Uiso   1.00
C1289  C     0.20264   0.48947   0.91073   0.00000  Uiso   1.00
C1290  C     0.13040   0.50992   0.58956   0.00000  Uiso   1.00
C1291  C     0.16565   0.49675   0.88357   0.00000  Uiso   1.00
C1292  C     0.16751   0.50308   0.61657   0.00000  Uiso   1.00
C1293  C     0.12860   0.50655   0.90223   0.00000  Uiso   1.00
C1294  C     0.20464   0.49377   0.59785   0.00000  Uiso   1.00
C1295  C     0.12908   0.50844   0.94918   0.00000  Uiso   1.00
C1296  C     0.20439   0.49365   0.55081   0.00000  Uiso   1.00
C1297  C     0.16641   0.50073   0.97647   0.00000  Uiso   1.00
C1298  C     0.16712   0.50183   0.52352   0.00000  Uiso   1.00
C1299  C     0.20303   0.49153   0.95701   0.00000  Uiso   1.00
C1300  C     0.13035   0.51022   0.54308   0.00000  Uiso   1.00
C1301  C     0.09319   0.51768   0.96974   0.00000  Uiso   1.00
C1302  C     0.24043   0.48533   0.53020   0.00000  Uiso   1.00
Cu1303 Cu    0.16667   0.54689   0.75000   0.00000  Uiso   1.00
Cu1304 Cu    0.16667   0.45311   0.75000   0.00000  Uiso   1.00
H1305  H     0.06395   0.52454   0.95097   0.00000  Uiso   1.00
H1306  H     0.26981   0.47916   0.54889   0.00000  Uiso   1.00
H1307  H     0.06523   0.52535   0.52972   0.00000  Uiso   1.00
H1308  H     0.26836   0.47740   0.97037   0.00000  Uiso   1.00
N1309  N     0.16667   0.61736   0.75000   0.00000  Uiso   1.00
N1310  N     0.16667   0.38264   0.75000   0.00000  Uiso   1.00
O1311  O     0.10655   0.53958   0.74999   0.00000  Uiso   1.00
O1312  O     0.22679   0.46042   0.75000   0.00000  Uiso   1.00
O1313  O     0.22679   0.53958   0.75000   0.00000  Uiso   1.00
O1314  O     0.10655   0.46042   0.74999   0.00000  Uiso   1.00
O1315  O     0.16666   0.53960   0.68513   0.00000  Uiso   1.00
O1316  O     0.16668   0.46040   0.81487   0.00000  Uiso   1.00
O1317  O     0.16668   0.53960   0.81487   0.00000  Uiso   1.00
O1318  O     0.16666   0.46040   0.68513   0.00000  Uiso   1.00
N1319  N     0.24028   0.47994   0.89166   0.00000  Uiso   1.00
H1320  H     0.24497   0.50404   0.86557   0.00000  Uiso   1.00
H1321  H     0.23778   0.44769   0.87915   0.00000  Uiso   1.00
N1322  N     0.09212   0.51426   0.60917   0.00000  Uiso   1.00
H1323  H     0.08780   0.48521   0.63017   0.00000  Uiso   1.00
H1324  H     0.09348   0.54281   0.62816   0.00000  Uiso   1.00
C1325  C     0.08891   0.51408   0.87195   0.00000  Uiso   1.00
C1326  C     0.07896   0.56483   0.86258   0.00000  Uiso   1.00
H1327  H     0.07602   0.58185   0.89401   0.00000  Uiso   1.00
H1328  H     0.10344   0.58217   0.84455   0.00000  Uiso   1.00
H1329  H     0.04948   0.56869   0.84130   0.00000  Uiso   1.00
H1330  H     0.09088   0.49886   0.83964   0.00000  Uiso   1.00
H1331  H     0.06282   0.49577   0.88620   0.00000  Uiso   1.00
C1332  C     0.24378   0.48266   0.62818   0.00000  Uiso   1.00
C1333  C     0.25231   0.43129   0.63309   0.00000  Uiso   1.00
H1334  H     0.22645   0.41303   0.64798   0.00000  Uiso   1.00
H1335  H     0.25642   0.41745   0.60035   0.00000  Uiso   1.00
H1336  H     0.28079   0.42461   0.65552   0.00000  Uiso   1.00
H1337  H     0.27055   0.50168   0.61624   0.00000  Uiso   1.00
H1338  H     0.24167   0.49416   0.66199   0.00000  Uiso   1.00
N1339  N     0.04799   0.43077   0.80057   0.00000  Uiso   1.00
H1340  H     0.03853   0.39865   0.79050   0.00000  Uiso   1.00
H1341  H     0.04198   0.43253   0.83394   0.00000  Uiso   1.00
N1342  N     0.28864   0.57473   0.70453   0.00000  Uiso   1.00
H1343  H     0.26484   0.56349   0.68248   0.00000  Uiso   1.00
H1344  H     0.27700   0.59478   0.72800   0.00000  Uiso   1.00
N1345  N     0.29687   0.42863   0.80017   0.00000  Uiso   1.00
H1346  H     0.27940   0.40761   0.77910   0.00000  Uiso   1.00
H1347  H     0.27905   0.44310   0.82261   0.00000  Uiso   1.00
N1348  N     0.03937   0.57000   0.69949   0.00000  Uiso   1.00
H1349  H     0.02661   0.56979   0.66642   0.00000  Uiso   1.00
H1350  H     0.03339   0.60174   0.71157   0.00000  Uiso   1.00
C1351  C     0.10708   0.38502   0.68946   0.00000  Uiso   1.00
C1352  C     0.06397   0.37313   0.70361   0.00000  Uiso   1.00
H1353  H     0.04547   0.35599   0.67681   0.00000  Uiso   1.00
H1354  H     0.06535   0.35057   0.73476   0.00000  Uiso   1.00
H1355  H     0.04704   0.40472   0.70913   0.00000  Uiso   1.00
H1356  H     0.10917   0.42184   0.68842   0.00000  Uiso   1.00
H1357  H     0.10899   0.37818   0.65395   0.00000  Uiso   1.00
C1358  C     0.22163   0.61422   0.81614   0.00000  Uiso   1.00
C1359  C     0.21103   0.60726   0.86483   0.00000  Uiso   1.00
H1360  H     0.17758   0.60217   0.86691   0.00000  Uiso   1.00
H1361  H     0.22715   0.57665   0.88100   0.00000  Uiso   1.00
H1362  H     0.22244   0.63532   0.88544   0.00000  Uiso   1.00
H1363  H     0.22802   0.58045   0.80668   0.00000  Uiso   1.00
H1364  H     0.25208   0.63103   0.81486   0.00000  Uiso   1.00
C1365  C     0.20486   0.37711   0.82556   0.00000  Uiso   1.00
C1366  C     0.17185   0.37727   0.85934   0.00000  Uiso   1.00
H1367  H     0.16440   0.34283   0.87286   0.00000  Uiso   1.00
H1368  H     0.18248   0.39751   0.88797   0.00000  Uiso   1.00
H1369  H     0.14204   0.39090   0.84360   0.00000  Uiso   1.00
H1370  H     0.23345   0.36129   0.84146   0.00000  Uiso   1.00
H1371  H     0.21666   0.41085   0.81654   0.00000  Uiso   1.00
C1372  C     0.12344   0.62285   0.67674   0.00000  Uiso   1.00
C1373  C     0.15103   0.62732   0.63805   0.00000  Uiso   1.00
H1374  H     0.15378   0.66358   0.62581   0.00000  Uiso   1.00
H1375  H     0.18251   0.61440   0.64862   0.00000  Uiso   1.00
H1376  H     0.13767   0.60786   0.60987   0.00000  Uiso   1.00
H1377  H     0.11473   0.58769   0.68493   0.00000  Uiso   1.00
H1378  H     0.09320   0.63763   0.66499   0.00000  Uiso   1.00
C1379  C     0.42103   0.50000   0.74915   0.00000  Uiso   1.00
C1380  C     0.57915   0.50007   0.75083   0.00000  Uiso   1.00
C1381  C     0.42716   0.51832   0.51574   0.00000  Uiso   1.00
C1382  C     0.57304   0.48427   0.98428   0.00000  Uiso   1.00
C1383  C     0.35725   0.46519   0.77408   0.00000  Uiso   1.00
C1384  C     0.64389   0.53643   0.72732   0.00000  Uiso   1.00
C1385  C     0.64796   0.46474   0.77404   0.00000  Uiso   1.00
C1386  C     0.35309   0.53525   0.72573   0.00000  Uiso   1.00
C1387  C     0.62407   0.50043   0.75074   0.00000  Uiso   1.00
C1388  C     0.37644   0.49994   0.74932   0.00000  Uiso   1.00
C1389  C     0.47464   0.35985   0.71936   0.00000  Uiso   1.00
C1390  C     0.52300   0.63986   0.78303   0.00000  Uiso   1.00
C1391  C     0.52136   0.35564   0.78372   0.00000  Uiso   1.00
C1392  C     0.47702   0.64422   0.71753   0.00000  Uiso   1.00
C1393  C     0.49962   0.50109   0.66479   0.00000  Uiso   1.00
C1394  C     0.50022   0.49885   0.83524   0.00000  Uiso   1.00
C1395  C     0.53598   0.48947   0.91073   0.00000  Uiso   1.00
C1396  C     0.46373   0.50992   0.58956   0.00000  Uiso   1.00
C1397  C     0.49898   0.49675   0.88357   0.00000  Uiso   1.00
C1398  C     0.50084   0.50308   0.61657   0.00000  Uiso   1.00
C1399  C     0.46193   0.50655   0.90223   0.00000  Uiso   1.00
C1400  C     0.53798   0.49377   0.59785   0.00000  Uiso   1.00
C1401  C     0.46242   0.50844   0.94918   0.00000  Uiso   1.00
C1402  C     0.53772   0.49365   0.55081   0.00000  Uiso   1.00
C1403  C     0.49974   0.50073   0.97647   0.00000  Uiso   1.00
C1404  C     0.50045   0.50183   0.52352   0.00000  Uiso   1.00
C1405  C     0.53636   0.49153   0.95701   0.00000  Uiso   1.00
C1406  C     0.46368   0.51022   0.54308   0.00000  Uiso   1.00
C1407  C     0.42653   0.51768   0.96974   0.00000  Uiso   1.00
C1408  C     0.57376   0.48533   0.53020   0.00000  Uiso   1.00
Cu1409 Cu    0.50000   0.54689   0.75000   0.00000  Uiso   1.00
Cu1410 Cu    0.50000   0.45311   0.75000   0.00000  Uiso   1.00
H1411  H     0.39728   0.52454   0.95097   0.00000  Uiso   1.00
H1412  H     0.60315   0.47916   0.54889   0.00000  Uiso   1.00
H1413  H     0.39857   0.52535   0.52972   0.00000  Uiso   1.00
H1414  H     0.60169   0.47740   0.97037   0.00000  Uiso   1.00
N1415  N     0.50000   0.61736   0.75000   0.00000  Uiso   1.00
N1416  N     0.50000   0.38264   0.75000   0.00000  Uiso   1.00
O1417  O     0.43988   0.53958   0.74999   0.00000  Uiso   1.00
O1418  O     0.56012   0.46042   0.75000   0.00000  Uiso   1.00
O1419  O     0.56012   0.53958   0.75000   0.00000  Uiso   1.00
O1420  O     0.43988   0.46042   0.74999   0.00000  Uiso   1.00
O1421  O     0.49999   0.53960   0.68513   0.00000  Uiso   1.00
O1422  O     0.50001   0.46040   0.81487   0.00000  Uiso   1.00
O1423  O     0.50001   0.53960   0.81487   0.00000  Uiso   1.00
O1424  O     0.49999   0.46040   0.68513   0.00000  Uiso   1.00
N1425  N     0.57361   0.47994   0.89166   0.00000  Uiso   1.00
H1426  H     0.57831   0.50404   0.86557   0.00000  Uiso   1.00
H1427  H     0.57112   0.44769   0.87915   0.00000  Uiso   1.00
N1428  N     0.42545   0.51426   0.60917   0.00000  Uiso   1.00
H1429  H     0.42113   0.48521   0.63017   0.00000  Uiso   1.00
H1430  H     0.42681   0.54281   0.62816   0.00000  Uiso   1.00
C1431  C     0.42224   0.51408   0.87195   0.00000  Uiso   1.00
C1432  C     0.41229   0.56483   0.86258   0.00000  Uiso   1.00
H1433  H     0.40935   0.58185   0.89401   0.00000  Uiso   1.00
H1434  H     0.43677   0.58217   0.84455   0.00000  Uiso   1.00
H1435  H     0.38281   0.56869   0.84130   0.00000  Uiso   1.00
H1436  H     0.42421   0.49886   0.83964   0.00000  Uiso   1.00
H1437  H     0.39615   0.49577   0.88620   0.00000  Uiso   1.00
C1438  C     0.57712   0.48266   0.62818   0.00000  Uiso   1.00
C1439  C     0.58564   0.43129   0.63309   0.00000  Uiso   1.00
H1440  H     0.55978   0.41303   0.64798   0.00000  Uiso   1.00
H1441  H     0.58975   0.41745   0.60035   0.00000  Uiso   1.00
H1442  H     0.61412   0.42461   0.65552   0.00000  Uiso   1.00
H1443  H     0.60388   0.50168   0.61624   0.00000  Uiso   1.00
H1444  H     0.57500   0.49416   0.66199   0.00000  Uiso   1.00
N1445  N     0.38133   0.43077   0.80057   0.00000  Uiso   1.00
H1446  H     0.37186   0.39865   0.79050   0.00000  Uiso   1.00
H1447  H     0.37531   0.43253   0.83394   0.00000  Uiso   1.00
N1448  N     0.62198   0.57473   0.70453   0.00000  Uiso   1.00
H1449  H     0.59818   0.56349   0.68248   0.00000  Uiso   1.00
H1450  H     0.61033   0.59478   0.72800   0.00000  Uiso   1.00
N1451  N     0.63020   0.42863   0.80017   0.00000  Uiso   1.00
H1452  H     0.61273   0.40761   0.77910   0.00000  Uiso   1.00
H1453  H     0.61239   0.44310   0.82261   0.00000  Uiso   1.00
N1454  N     0.37270   0.57000   0.69949   0.00000  Uiso   1.00
H1455  H     0.35994   0.56979   0.66642   0.00000  Uiso   1.00
H1456  H     0.36672   0.60174   0.71157   0.00000  Uiso   1.00
C1457  C     0.44042   0.38502   0.68946   0.00000  Uiso   1.00
C1458  C     0.39730   0.37313   0.70361   0.00000  Uiso   1.00
H1459  H     0.37881   0.35599   0.67681   0.00000  Uiso   1.00
H1460  H     0.39868   0.35057   0.73476   0.00000  Uiso   1.00
H1461  H     0.38038   0.40472   0.70913   0.00000  Uiso   1.00
H1462  H     0.44250   0.42184   0.68842   0.00000  Uiso   1.00
H1463  H     0.44232   0.37818   0.65395   0.00000  Uiso   1.00
C1464  C     0.55497   0.61422   0.81614   0.00000  Uiso   1.00
C1465  C     0.54436   0.60726   0.86483   0.00000  Uiso   1.00
H1466  H     0.51091   0.60217   0.86691   0.00000  Uiso   1.00
H1467  H     0.56049   0.57665   0.88100   0.00000  Uiso   1.00
H1468  H     0.55577   0.63532   0.88544   0.00000  Uiso   1.00
H1469  H     0.56135   0.58045   0.80668   0.00000  Uiso   1.00
H1470  H     0.58541   0.63103   0.81486   0.00000  Uiso   1.00
C1471  C     0.53820   0.37711   0.82556   0.00000  Uiso   1.00
C1472  C     0.50519   0.37727   0.85934   0.00000  Uiso   1.00
H1473  H     0.49774   0.34283   0.87286   0.00000  Uiso   1.00
H1474  H     0.51582   0.39751   0.88797   0.00000  Uiso   1.00
H1475  H     0.47537   0.39090   0.84360   0.00000  Uiso   1.00
H1476  H     0.56679   0.36129   0.84146   0.00000  Uiso   1.00
H1477  H     0.55000   0.41085   0.81654   0.00000  Uiso   1.00
C1478  C     0.45677   0.62285   0.67674   0.00000  Uiso   1.00
C1479  C     0.48436   0.62732   0.63805   0.00000  Uiso   1.00
H1480  H     0.48712   0.66358   0.62581   0.00000  Uiso   1.00
H1481  H     0.51584   0.61440   0.64862   0.00000  Uiso   1.00
H1482  H     0.47100   0.60786   0.60987   0.00000  Uiso   1.00
H1483  H     0.44806   0.58769   0.68493   0.00000  Uiso   1.00
H1484  H     0.42654   0.63763   0.66499   0.00000  Uiso   1.00
C1485  C     0.75436   0.50000   0.74915   0.00000  Uiso   1.00
C1486  C     0.91248   0.50007   0.75083   0.00000  Uiso   1.00
C1487  C     0.76049   0.51832   0.51574   0.00000  Uiso   1.00
C1488  C     0.90638   0.48427   0.98428   0.00000  Uiso   1.00
C1489  C     0.69059   0.46519   0.77408   0.00000  Uiso   1.00
C1490  C     0.97723   0.53643   0.72732   0.00000  Uiso   1.00
C1491  C     0.98129   0.46474   0.77404   0.00000  Uiso   1.00
C1492  C     0.68643   0.53525   0.72573   0.00000  Uiso   1.00
C1493  C     0.95740   0.50043   0.75074   0.00000  Uiso   1.00
C1494  C     0.70978   0.49994   0.74932   0.00000  Uiso   1.00
C1495  C     0.80798   0.35985   0.71936   0.00000  Uiso   1.00
C1496  C     0.85633   0.63986   0.78303   0.00000  Uiso   1.00
C1497  C     0.85469   0.35564   0.78372   0.00000  Uiso   1.00
C1498  C     0.81035   0.64422   0.71753   0.00000  Uiso   1.00
C1499  C     0.83296   0.50109   0.66479   0.00000  Uiso   1.00
C1500  C     0.83356   0.49885   0.83524   0.00000  Uiso   1.00
C1501  C     0.86931   0.48947   0.91073   0.00000  Uiso   1.00
C1502  C     0.79707   0.50992   0.58956   0.00000  Uiso   1.00
C1503  C     0.83232   0.49675   0.88357   0.00000  Uiso   1.00
C1504  C     0.83418   0.50308   0.61657   0.00000  Uiso   1.00
C1505  C     0.79527   0.50655   0.90223   0.00000  Uiso   1.00
C1506  C     0.87131   0.49377   0.59785   0.00000  Uiso   1.00
C1507  C     0.79575   0.50844   0.94918   0.00000  Uiso   1.00
C1508  C     0.87105   0.49365   0.55081   0.00000  Uiso   1.00
C1509  C     0.83307   0.50073   0.97647   0.00000  Uiso   1.00
C1510  C     0.83378   0.50183   0.52352   0.00000  Uiso   1.00
C1511  C     0.86970   0.49153   0.95701   0.00000  Uiso   1.00
C1512  C     0.79702   0.51022   0.54308   0.00000  Uiso   1.00
C1513  C     0.75986   0.51768   0.96974   0.00000  Uiso   1.00
C1514  C     0.90709   0.48533   0.53020   0.00000  Uiso   1.00
Cu1515 Cu    0.83333   0.54689   0.75000   0.00000  Uiso   1.00
Cu1516 Cu    0.83333   0.45311   0.75000   0.00000  Uiso   1.00
H1517  H     0.73062   0.52454   0.95097   0.00000  Uiso   1.00
H1518  H     0.93648   0.47916   0.54889   0.00000  Uiso   1.00
H1519  H     0.73190   0.52535   0.52972   0.00000  Uiso   1.00
H1520  H     0.93503   0.47740   0.97037   0.00000  Uiso   1.00
N1521  N     0.83333   0.61736   0.75000   0.00000  Uiso   1.00
N1522  N     0.83333   0.38264   0.75000   0.00000  Uiso   1.00
O1523  O     0.77321   0.53958   0.74999   0.00000  Uiso   1.00
O1524  O     0.89345   0.46042   0.75000   0.00000  Uiso   1.00
O1525  O     0.89345   0.53958   0.75000   0.00000  Uiso   1.00
O1526  O     0.77321   0.46042   0.74999   0.00000  Uiso   1.00
O1527  O     0.83332   0.53960   0.68513   0.00000  Uiso   1.00
O1528  O     0.83334   0.46040   0.81487   0.00000  Uiso   1.00
O1529  O     0.83334   0.53960   0.81487   0.00000  Uiso   1.00
O1530  O     0.83332   0.46040   0.68513   0.00000  Uiso   1.00
N1531  N     0.90695   0.47994   0.89166   0.00000  Uiso   1.00
H1532  H     0.91164   0.50404   0.86557   0.00000  Uiso   1.00
H1533  H     0.90445   0.44769   0.87915   0.00000  Uiso   1.00
N1534  N     0.75878   0.51426   0.60917   0.00000  Uiso   1.00
H1535  H     0.75446   0.48521   0.63017   0.00000  Uiso   1.00
H1536  H     0.76015   0.54281   0.62816   0.00000  Uiso   1.00
C1537  C     0.75557   0.51408   0.87195   0.00000  Uiso   1.00
C1538  C     0.74562   0.56483   0.86258   0.00000  Uiso   1.00
H1539  H     0.74268   0.58185   0.89401   0.00000  Uiso   1.00
H1540  H     0.77011   0.58217   0.84455   0.00000  Uiso   1.00
H1541  H     0.71614   0.56869   0.84130   0.00000  Uiso   1.00
H1542  H     0.75755   0.49886   0.83964   0.00000  Uiso   1.00
H1543  H     0.72949   0.49577   0.88620   0.00000  Uiso   1.00
C1544  C     0.91045   0.48266   0.62818   0.00000  Uiso   1.00
C1545  C     0.91897   0.43129   0.63309   0.00000  Uiso   1.00
H1546  H     0.89311   0.41303   0.64798   0.00000  Uiso   1.00
H1547  H     0.92308   0.41745   0.60035   0.00000  Uiso   1.00
H1548  H     0.94745   0.42461   0.65552   0.00000  Uiso   1.00
H1549  H     0.93721   0.50168   0.61624   0.00000  Uiso   1.00
H1550  H     0.90834   0.49416   0.66199   0.00000  Uiso   1.00
N1551  N     0.71466   0.43077   0.80057   0.00000  Uiso   1.00
H1552  H     0.70520   0.39865   0.79050   0.00000  Uiso   1.00
H1553  H     0.70865   0.43253   0.83394   0.00000  Uiso   1.00
N1554  N     0.95531   0.57473   0.70453   0.00000  Uiso   1.00
H1555  H     0.93151   0.56349   0.68248   0.00000  Uiso   1.00
H1556  H     0.94366   0.59478   0.72800   0.00000  Uiso   1.00
N1557  N     0.96353   0.42863   0.80017   0.00000  Uiso   1.00
H1558  H     0.94606   0.40761   0.77910   0.00000  Uiso   1.00
H1559  H     0.94572   0.44310   0.82261   0.00000  Uiso   1.00
N1560  N     0.70604   0.57000   0.69949   0.00000  Uiso   1.00
H1561  H     0.69328   0.56979   0.66642   0.00000  Uiso   1.00
H1562  H     0.70005   0.60174   0.71157   0.00000  Uiso   1.00
C1563  C     0.77375   0.38502   0.68946   0.00000  Uiso   1.00
C1564  C     0.73064   0.37313   0.70361   0.00000  Uiso   1.00
H1565  H     0.71214   0.35599   0.67681   0.00000  Uiso   1.00
H1566  H     0.73201   0.35057   0.73476   0.00000  Uiso   1.00
H1567  H     0.71371   0.40472   0.70913   0.00000  Uiso   1.00
H1568  H     0.77583   0.42184   0.68842   0.00000  Uiso   1.00
H1569  H     0.77566   0.37818   0.65395   0.00000  Uiso   1.00
C1570  C     0.88830   0.61422   0.81614   0.00000  Uiso   1.00
C1571  C     0.87769   0.60726   0.86483   0.00000  Uiso   1.00
H1572  H     0.84425   0.60217   0.86691   0.00000  Uiso   1.00
H1573  H     0.89382   0.57665   0.88100   0.00000  Uiso   1.00
H1574  H     0.88910   0.63532   0.88544   0.00000  Uiso   1.00
H1575  H     0.89469   0.58045   0.80668   0.00000  Uiso   1.00
H1576  H     0.91875   0.63103   0.81486   0.00000  Uiso   1.00
C1577  C     0.87153   0.37711   0.82556   0.00000  Uiso   1.00
C1578  C     0.83852   0.37727   0.85934   0.00000  Uiso   1.00
H1579  H     0.83107   0.34283   0.87286   0.00000  Uiso   1.00
H1580  H     0.84915   0.39751   0.88797   0.00000  Uiso   1.00
H1581  H     0.80870   0.39090   0.84360   0.00000  Uiso   1.00
H1582  H     0.90012   0.36129   0.84146   0.00000  Uiso   1.00
H1583  H     0.88333   0.41085   0.81654   0.00000  Uiso   1.00
C1584  C     0.79011   0.62285   0.67674   0.00000  Uiso   1.00
C1585  C     0.81770   0.62732   0.63805   0.00000  Uiso   1.00
H1586  H     0.82045   0.66358   0.62581   0.00000  Uiso   1.00
H1587  H     0.84918   0.61440   0.64862   0.00000  Uiso   1.00
H1588  H     0.80433   0.60786   0.60987   0.00000  Uiso   1.00
H1589  H     0.78139   0.58769   0.68493   0.00000  Uiso   1.00
H1590  H     0.75987   0.63763   0.66499   0.00000  Uiso   1.00
C1591  C     0.08770   0.83333   0.74915   0.00000  Uiso   1.00
C1592  C     0.24582   0.83341   0.75083   0.00000  Uiso   1.00
C1593  C     0.09382   0.85166   0.51574   0.00000  Uiso   1.00
C1594  C     0.23971   0.81760   0.98428   0.00000  Uiso   1.00
C1595  C     0.02392   0.79853   0.77408   0.00000  Uiso   1.00
C1596  C     0.31056   0.86976   0.72732   0.00000  Uiso   1.00
C1597  C     0.31462   0.79808   0.77404   0.00000  Uiso   1.00
C1598  C     0.01976   0.86858   0.72573   0.00000  Uiso   1.00
C1599  C     0.29074   0.83376   0.75074   0.00000  Uiso   1.00
C1600  C     0.04311   0.83328   0.74932   0.00000  Uiso   1.00
C1601  C     0.14131   0.69319   0.71936   0.00000  Uiso   1.00
C1602  C     0.18966   0.97319   0.78303   0.00000  Uiso   1.00
C1603  C     0.18803   0.68898   0.78372   0.00000  Uiso   1.00
C1604  C     0.14369   0.97755   0.71753   0.00000  Uiso   1.00
C1605  C     0.16629   0.83443   0.66479   0.00000  Uiso   1.00
C1606  C     0.16689   0.83219   0.83524   0.00000  Uiso   1.00
C1607  C     0.20264   0.82280   0.91073   0.00000  Uiso   1.00
C1608  C     0.13040   0.84325   0.58956   0.00000  Uiso   1.00
C1609  C     0.16565   0.83008   0.88357   0.00000  Uiso   1.00
C1610  C     0.16751   0.83641   0.61657   0.00000  Uiso   1.00
C1611  C     0.12860   0.83988   0.90223   0.00000  Uiso   1.00
C1612  C     0.20464   0.82710   0.59785   0.00000  Uiso   1.00
C1613  C     0.12908   0.84177   0.94918   0.00000  Uiso   1.00
C1614  C     0.20439   0.82698   0.55081   0.00000  Uiso   1.00
C1615  C     0.16641   0.83407   0.97647   0.00000  Uiso   1.00
C1616  C     0.16712   0.83517   0.52352   0.00000  Uiso   1.00
C1617  C     0.20303   0.82486   0.95701   0.00000  Uiso   1.00
C1618  C     0.13035   0.84355   0.54308   0.00000  Uiso   1.00
C1619  C     0.09319   0.85102   0.96974   0.00000  Uiso   1.00
C1620  C     0.24043   0.81866   0.53020   0.00000  Uiso   1.00
Cu1621 Cu    0.16667   0.88022   0.75000   0.00000  Uiso   1.00
Cu1622 Cu    0.16667   0.78645   0.75000   0.00000  Uiso   1.00
H1623  H     0.06395   0.85788   0.95097   0.00000  Uiso   1.00
H1624  H     0.26981   0.81249   0.54889   0.00000  Uiso   1.00
H1625  H     0.06523   0.85868   0.52972   0.00000  Uiso   1.00
H1626  H     0.26836   0.81073   0.97037   0.00000  Uiso   1.00
N1627  N     0.16667   0.95069   0.75000   0.00000  Uiso   1.00
N1628  N     0.16667   0.71598   0.75000   0.00000  Uiso   1.00
O1629  O     0.10655   0.87291   0.74999   0.00000  Uiso   1.00
O1630  O     0.22679   0.79375   0.75000   0.00000  Uiso   1.00
O1631  O     0.22679   0.87291   0.75000   0.00000  Uiso   1.00
O1632  O     0.10655   0.79375   0.74999   0.00000  Uiso   1.00
O1633  O     0.16666   0.87293   0.68513   0.00000  Uiso   1.00
O1634  O     0.16668   0.79373   0.81487   0.00000  Uiso   1.00
O1635  O     0.16668   0.87293   0.81487   0.00000  Uiso   1.00
O1636  O     0.16666   0.79373   0.68513   0.00000  Uiso   1.00
N1637  N     0.24028   0.81327   0.89166   0.00000  Uiso   1.00
H1638  H     0.24497   0.83738   0.86557   0.00000  Uiso   1.00
H1639  H     0.23778   0.78102   0.87915   0.00000  Uiso   1.00
N1640  N     0.09212   0.84760   0.60917   0.00000  Uiso   1.00
H1641  H     0.08780   0.81854   0.63017   0.00000  Uiso   1.00
H1642  H     0.09348   0.87614   0.62816   0.00000  Uiso   1.00
C1643  C     0.08891   0.84742   0.87195   0.00000  Uiso   1.00
C1644  C     0.07896   0.89817   0.86258   0.00000  Uiso   1.00
H1645  H     0.07602   0.91518   0.89401   0.00000  Uiso   1.00
H1646  H     0.10344   0.91551   0.84455   0.00000  Uiso   1.00
H1647  H     0.04948   0.90203   0.84130   0.00000  Uiso   1.00
H1648  H     0.09088   0.83219   0.83964   0.00000  Uiso   1.00
H1649  H     0.06282   0.82910   0.88620   0.00000  Uiso   1.00
C1650  C     0.24378   0.81599   0.62818   0.00000  Uiso   1.00
C1651  C     0.25231   0.76462   0.63309   0.00000  Uiso   1.00
H1652  H     0.22645   0.74636   0.64798   0.00000  Uiso   1.00
H1653  H     0.25642   0.75078   0.60035   0.00000  Uiso   1.00
H1654  H     0.28079   0.75794   0.65552   0.00000  Uiso   1.00
H1655  H     0.27055   0.83501   0.61624   0.00000  Uiso   1.00
H1656  H     0.24167   0.82750   0.66199   0.00000  Uiso   1.00
N1657  N     0.04799   0.76410   0.80057   0.00000  Uiso   1.00
H1658  H     0.03853   0.73198   0.79050   0.00000  Uiso   1.00
H1659  H     0.04198   0.76587   0.83394   0.00000  Uiso   1.00
N1660  N     0.28864   0.90806   0.70453   0.00000  Uiso   1.00
H1661  H     0.26484   0.89682   0.68248   0.00000  Uiso   1.00
H1662  H     0.27700   0.92811   0.72800   0.00000  Uiso   1.00
N1663  N     0.29687   0.76196   0.80017   0.00000  Uiso   1.00
H1664  H     0.27940   0.74094   0.77910   0.00000  Uiso   1.00
H1665  H     0.27905   0.77644   0.82261   0.00000  Uiso   1.00
N1666  N     0.03937   0.90334   0.69949   0.00000  Uiso   1.00
H1667  H     0.02661   0.90312   0.66642   0.00000  Uiso   1.00
H1668  H     0.03339   0.93508   0.71157   0.00000  Uiso   1.00
C1669  C     0.10708   0.71836   0.68946   0.00000  Uiso   1.00
C1670  C     0.06397   0.70646   0.70361   0.00000  Uiso   1.00
H1671  H     0.04547   0.68932   0.67681   0.00000  Uiso   1.00
H1672  H     0.06535   0.68391   0.73476   0.00000  Uiso   1.00
H1673  H     0.04704   0.73806   0.70913   0.00000  Uiso   1.00
H1674  H     0.10917   0.75517   0.68842   0.00000  Uiso   1.00
H1675  H     0.10899   0.71152   0.65395   0.00000  Uiso   1.00
C1676  C     0.22163   0.94755   0.81614   0.00000  Uiso   1.00
C1677  C     0.21103   0.94059   0.86483   0.00000  Uiso   1.00
H1678  H     0.17758   0.93550   0.86691   0.00000  Uiso   1.00
H1679  H     0.22715   0.90998   0.88100   0.00000  Uiso   1.00
H1680  H     0.22244   0.96865   0.88544   0.00000  Uiso   1.00
H1681  H     0.22802   0.91378   0.80668   0.00000  Uiso   1.00
H1682  H     0.25208   0.96436   0.81486   0.00000  Uiso   1.00
C1683  C     0.20486   0.71044   0.82556   0.00000  Uiso   1.00
C1684  C     0.17185   0.71060   0.85934   0.00000  Uiso   1.00
H1685  H     0.16440   0.67616   0.87286   0.00000  Uiso   1.00
H1686  H     0.18248   0.73085   0.88797   0.00000  Uiso   1.00
H1687  H     0.14204   0.72424   0.84360   0.00000  Uiso   1.00
H1688  H     0.23345   0.69463   0.84146   0.00000  Uiso   1.00
H1689  H     0.21666   0.74418   0.81654   0.00000  Uiso   1.00
C1690  C     0.12344   0.95618   0.67674   0.00000  Uiso   1.00
C1691  C     0.15103   0.96066   0.63805   0.00000  Uiso   1.00
H1692  H     0.15378   0.99691   0.62581   0.00000  Uiso   1.00
H1693  H     0.18251   0.94773   0.64862   0.00000  Uiso   1.00
H1694  H     0.13767   0.94120   0.60987   0.00000  Uiso   1.00
H1695  H     0.11473   0.92102   0.68493   0.00000  Uiso   1.00
H1696  H     0.09320   0.97097   0.66499   0.00000  Uiso   1.00
C1697  C     0.42103   0.83333   0.74915   0.00000  Uiso   1.00
C1698  C     0.57915   0.83341   0.75083   0.00000  Uiso   1.00
C1699  C     0.42716   0.85166   0.51574   0.00000  Uiso   1.00
C1700  C     0.57304   0.81760   0.98428   0.00000  Uiso   1.00
C1701  C     0.35725   0.79853   0.77408   0.00000  Uiso   1.00
C1702  C     0.64389   0.86976   0.72732   0.00000  Uiso   1.00
C1703  C     0.64796   0.79808   0.77404   0.00000  Uiso   1.00
C1704  C     0.35309   0.86858   0.72573   0.00000  Uiso   1.00
C1705  C     0.62407   0.83376   0.75074   0.00000  Uiso   1.00
C1706  C     0.37644   0.83328   0.74932   0.00000  Uiso   1.00
C1707  C     0.47464   0.69319   0.71936   0.00000  Uiso   1.00
C1708  C     0.52300   0.97319   0.78303   0.00000  Uiso   1.00
C1709  C     0.52136   0.68898   0.78372   0.00000  Uiso   1.00
C1710  C     0.47702   0.97755   0.71753   0.00000  Uiso   1.00
C1711  C     0.49962   0.83443   0.66479   0.00000  Uiso   1.00
C1712  C     0.50022   0.83219   0.83524   0.00000  Uiso   1.00
C1713  C     0.53598   0.82280   0.91073   0.00000  Uiso   1.00
C1714  C     0.46373   0.84325   0.58956   0.00000  Uiso   1.00
C1715  C     0.49898   0.83008   0.88357   0.00000  Uiso   1.00
C1716  C     0.50084   0.83641   0.61657   0.00000  Uiso   1.00
C1717  C     0.46193   0.83988   0.90223   0.00000  Uiso   1.00
C1718  C     0.53798   0.82710   0.59785   0.00000  Uiso   1.00
C1719  C     0.46242   0.84177   0.94918   0.00000  Uiso   1.00
C1720  C     0.53772   0.82698   0.55081   0.00000  Uiso   1.00
C1721  C     0.49974   0.83407   0.97647   0.00000  Uiso   1.00
C1722  C     0.50045   0.83517   0.52352   0.00000  Uiso   1.00
C1723  C     0.53636   0.82486   0.95701   0.00000  Uiso   1.00
C1724  C     0.46368   0.84355   0.54308   0.00000  Uiso   1.00
C1725  C     0.42653   0.85102   0.96974   0.00000  Uiso   1.00
C1726  C     0.57376   0.81866   0.53020   0.00000  Uiso   1.00
Cu1727 Cu    0.50000   0.88022   0.75000   0.00000  Uiso   1.00
Cu1728 Cu    0.50000   0.78645   0.75000   0.00000  Uiso   1.00
H1729  H     0.39728   0.85788   0.95097   0.00000  Uiso   1.00
H1730  H     0.60315   0.81249   0.54889   0.00000  Uiso   1.00
H1731  H     0.39857   0.85868   0.52972   0.00000  Uiso   1.00
H1732  H     0.60169   0.81073   0.97037   0.00000  Uiso   1.00
N1733  N     0.50000   0.95069   0.75000   0.00000  Uiso   1.00
N1734  N     0.50000   0.71598   0.75000   0.00000  Uiso   1.00
O1735  O     0.43988   0.87291   0.74999   0.00000  Uiso   1.00
O1736  O     0.56012   0.79375   0.75000   0.00000  Uiso   1.00
O1737  O     0.56012   0.87291   0.75000   0.00000  Uiso   1.00
O1738  O     0.43988   0.79375   0.74999   0.00000  Uiso   1.00
O1739  O     0.49999   0.87293   0.68513   0.00000  Uiso   1.00
O1740  O     0.50001   0.79373   0.81487   0.00000  Uiso   1.00
O1741  O     0.50001   0.87293   0.81487   0.00000  Uiso   1.00
O1742  O     0.49999   0.79373   0.68513   0.00000  Uiso   1.00
N1743  N     0.57361   0.81327   0.89166   0.00000  Uiso   1.00
H1744  H     0.57831   0.83738   0.86557   0.00000  Uiso   1.00
H1745  H     0.57112   0.78102   0.87915   0.00000  Uiso   1.00
N1746  N     0.42545   0.84760   0.60917   0.00000  Uiso   1.00
H1747  H     0.42113   0.81854   0.63017   0.00000  Uiso   1.00
H1748  H     0.42681   0.87614   0.62816   0.00000  Uiso   1.00
C1749  C     0.42224   0.84742   0.87195   0.00000  Uiso   1.00
C1750  C     0.41229   0.89817   0.86258   0.00000  Uiso   1.00
H1751  H     0.40935   0.91518   0.89401   0.00000  Uiso   1.00
H1752  H     0.43677   0.91551   0.84455   0.00000  Uiso   1.00
H1753  H     0.38281   0.90203   0.84130   0.00000  Uiso   1.00
H1754  H     0.42421   0.83219   0.83964   0.00000  Uiso   1.00
H1755  H     0.39615   0.82910   0.88620   0.00000  Uiso   1.00
C1756  C     0.57712   0.81599   0.62818   0.00000  Uiso   1.00
C1757  C     0.58564   0.76462   0.63309   0.00000  Uiso   1.00
H1758  H     0.55978   0.74636   0.64798   0.00000  Uiso   1.00
H1759  H     0.58975   0.75078   0.60035   0.00000  Uiso   1.00
H1760  H     0.61412   0.75794   0.65552   0.00000  Uiso   1.00
H1761  H     0.60388   0.83501   0.61624   0.00000  Uiso   1.00
H1762  H     0.57500   0.82750   0.66199   0.00000  Uiso   1.00
N1763  N     0.38133   0.76410   0.80057   0.00000  Uiso   1.00
H1764  H     0.37186   0.73198   0.79050   0.00000  Uiso   1.00
H1765  H     0.37531   0.76587   0.83394   0.00000  Uiso   1.00
N1766  N     0.62198   0.90806   0.70453   0.00000  Uiso   1.00
H1767  H     0.59818   0.89682   0.68248   0.00000  Uiso   1.00
H1768  H     0.61033   0.92811   0.72800   0.00000  Uiso   1.00
N1769  N     0.63020   0.76196   0.80017   0.00000  Uiso   1.00
H1770  H     0.61273   0.74094   0.77910   0.00000  Uiso   1.00
H1771  H     0.61239   0.77644   0.82261   0.00000  Uiso   1.00
N1772  N     0.37270   0.90334   0.69949   0.00000  Uiso   1.00
H1773  H     0.35994   0.90312   0.66642   0.00000  Uiso   1.00
H1774  H     0.36672   0.93508   0.71157   0.00000  Uiso   1.00
C1775  C     0.44042   0.71836   0.68946   0.00000  Uiso   1.00
C1776  C     0.39730   0.70646   0.70361   0.00000  Uiso   1.00
H1777  H     0.37881   0.68932   0.67681   0.00000  Uiso   1.00
H1778  H     0.39868   0.68391   0.73476   0.00000  Uiso   1.00
H1779  H     0.38038   0.73806   0.70913   0.00000  Uiso   1.00
H1780  H     0.44250   0.75517   0.68842   0.00000  Uiso   1.00
H1781  H     0.44232   0.71152   0.65395   0.00000  Uiso   1.00
C1782  C     0.55497   0.94755   0.81614   0.00000  Uiso   1.00
C1783  C     0.54436   0.94059   0.86483   0.00000  Uiso   1.00
H1784  H     0.51091   0.93550   0.86691   0.00000  Uiso   1.00
H1785  H     0.56049   0.90998   0.88100   0.00000  Uiso   1.00
H1786  H     0.55577   0.96865   0.88544   0.00000  Uiso   1.00
H1787  H     0.56135   0.91378   0.80668   0.00000  Uiso   1.00
H1788  H     0.58541   0.96436   0.81486   0.00000  Uiso   1.00
C1789  C     0.53820   0.71044   0.82556   0.00000  Uiso   1.00
C1790  C     0.50519   0.71060   0.85934   0.00000  Uiso   1.00
H1791  H     0.49774   0.67616   0.87286   0.00000  Uiso   1.00
H1792  H     0.51582   0.73085   0.88797   0.00000  Uiso   1.00
H1793  H     0.47537   0.72424   0.84360   0.00000  Uiso   1.00
H1794  H     0.56679   0.69463   0.84146   0.00000  Uiso   1.00
H1795  H     0.55000   0.74418   0.81654   0.00000  Uiso   1.00
C1796  C     0.45677   0.95618   0.67674   0.00000  Uiso   1.00
C1797  C     0.48436   0.96066   0.63805   0.00000  Uiso   1.00
H1798  H     0.48712   0.99691   0.62581   0.00000  Uiso   1.00
H1799  H     0.51584   0.94773   0.64862   0.00000  Uiso   1.00
H1800  H     0.47100   0.94120   0.60987   0.00000  Uiso   1.00
H1801  H     0.44806   0.92102   0.68493   0.00000  Uiso   1.00
H1802  H     0.42654   0.97097   0.66499   0.00000  Uiso   1.00
C1803  C     0.75436   0.83333   0.74915   0.00000  Uiso   1.00
C1804  C     0.91248   0.83341   0.75083   0.00000  Uiso   1.00
C1805  C     0.76049   0.85166   0.51574   0.00000  Uiso   1.00
C1806  C     0.90638   0.81760   0.98428   0.00000  Uiso   1.00
C1807  C     0.69059   0.79853   0.77408   0.00000  Uiso   1.00
C1808  C     0.97723   0.86976   0.72732   0.00000  Uiso   1.00
C1809  C     0.98129   0.79808   0.77404   0.00000  Uiso   1.00
C1810  C     0.68643   0.86858   0.72573   0.00000  Uiso   1.00
C1811  C     0.95740   0.83376   0.75074   0.00000  Uiso   1.00
C1812  C     0.70978   0.83328   0.74932   0.00000  Uiso   1.00
C1813  C     0.80798   0.69319   0.71936   0.00000  Uiso   1.00
C1814  C     0.85633   0.97319   0.78303   0.00000  Uiso   1.00
C1815  C     0.85469   0.68898   0.78372   0.00000  Uiso   1.00
C1816  C     0.81035   0.97755   0.71753   0.00000  Uiso   1.00
C1817  C     0.83296   0.83443   0.66479   0.00000  Uiso   1.00
C1818  C     0.83356   0.83219   0.83524   0.00000  Uiso   1.00
C1819  C     0.86931   0.82280   0.91073   0.00000  Uiso   1.00
C1820  C     0.79707   0.84325   0.58956   0.00000  Uiso   1.00
C1821  C     0.83232   0.83008   0.88357   0.00000  Uiso   1.00
C1822  C     0.83418   0.83641   0.61657   0.00000  Uiso   1.00
C1823  C     0.79527   0.83988   0.90223   0.00000  Uiso   1.00
C1824  C     0.87131   0.82710   0.59785   0.00000  Uiso   1.00
C1825  C     0.79575   0.84177   0.94918   0.00000  Uiso   1.00
C1826  C     0.87105   0.82698   0.55081   0.00000  Uiso   1.00
C1827  C     0.83307   0.83407   0.97647   0.00000  Uiso   1.00
C1828  C     0.83378   0.83517   0.52352   0.00000  Uiso   1.00
C1829  C     0.86970   0.82486   0.95701   0.00000  Uiso   1.00
C1830  C     0.79702   0.84355   0.54308   0.00000  Uiso   1.00
C1831  C     0.75986   0.85102   0.96974   0.00000  Uiso   1.00
C1832  C     0.90709   0.81866   0.53020   0.00000  Uiso   1.00
Cu1833 Cu    0.83333   0.88022   0.75000   0.00000  Uiso   1.00
Cu1834 Cu    0.83333   0.78645   0.75000   0.00000  Uiso   1.00
H1835  H     0.73062   0.85788   0.95097   0.00000  Uiso   1.00
H1836  H     0.93648   0.81249   0.54889   0.00000  Uiso   1.00
H1837  H     0.73190   0.85868   0.52972   0.00000  Uiso   1.00
H1838  H     0.93503   0.81073   0.97037   0.00000  Uiso   1.00
N1839  N     0.83333   0.95069   0.75000   0.00000  Uiso   1.00
N1840  N     0.83333   0.71598   0.75000   0.00000  Uiso   1.00
O1841  O     0.77321   0.87291   0.74999   0.00000  Uiso   1.00
O1842  O     0.89345   0.79375   0.75000   0.00000  Uiso   1.00
O1843  O     0.89345   0.87291   0.75000   0.00000  Uiso   1.00
O1844  O     0.77321   0.79375   0.74999   0.00000  Uiso   1.00
O1845  O     0.83332   0.87293   0.68513   0.00000  Uiso   1.00
O1846  O     0.83334   0.79373   0.81487   0.00000  Uiso   1.00
O1847  O     0.83334   0.87293   0.81487   0.00000  Uiso   1.00
O1848  O     0.83332   0.79373   0.68513   0.00000  Uiso   1.00
N1849  N     0.90695   0.81327   0.89166   0.00000  Uiso   1.00
H1850  H     0.91164   0.83738   0.86557   0.00000  Uiso   1.00
H1851  H     0.90445   0.78102   0.87915   0.00000  Uiso   1.00
N1852  N     0.75878   0.84760   0.60917   0.00000  Uiso   1.00
H1853  H     0.75446   0.81854   0.63017   0.00000  Uiso   1.00
H1854  H     0.76015   0.87614   0.62816   0.00000  Uiso   1.00
C1855  C     0.75557   0.84742   0.87195   0.00000  Uiso   1.00
C1856  C     0.74562   0.89817   0.86258   0.00000  Uiso   1.00
H1857  H     0.74268   0.91518   0.89401   0.00000  Uiso   1.00
H1858  H     0.77011   0.91551   0.84455   0.00000  Uiso   1.00
H1859  H     0.71614   0.90203   0.84130   0.00000  Uiso   1.00
H1860  H     0.75755   0.83219   0.83964   0.00000  Uiso   1.00
H1861  H     0.72949   0.82910   0.88620   0.00000  Uiso   1.00
C1862  C     0.91045   0.81599   0.62818   0.00000  Uiso   1.00
C1863  C     0.91897   0.76462   0.63309   0.00000  Uiso   1.00
H1864  H     0.89311   0.74636   0.64798   0.00000  Uiso   1.00
H1865  H     0.92308   0.75078   0.60035   0.00000  Uiso   1.00
H1866  H     0.94745   0.75794   0.65552   0.00000  Uiso   1.00
H1867  H     0.93721   0.83501   0.61624   0.00000  Uiso   1.00
H1868  H     0.90834   0.82750   0.66199   0.00000  Uiso   1.00
N1869  N     0.71466   0.76410   0.80057   0.00000  Uiso   1.00
H1870  H     0.70520   0.73198   0.79050   0.00000  Uiso   1.00
H1871  H     0.70865   0.76587   0.83394   0.00000  Uiso   1.00
N1872  N     0.95531   0.90806   0.70453   0.00000  Uiso   1.00
H1873  H     0.93151   0.89682   0.68248   0.00000  Uiso   1.00
H1874  H     0.94366   0.92811   0.72800   0.00000  Uiso   1.00
N1875  N     0.96353   0.76196   0.80017   0.00000  Uiso   1.00
H1876  H     0.94606   0.74094   0.77910   0.00000  Uiso   1.00
H1877  H     0.94572   0.77644   0.82261   0.00000  Uiso   1.00
N1878  N     0.70604   0.90334   0.69949   0.00000  Uiso   1.00
H1879  H     0.69328   0.90312   0.66642   0.00000  Uiso   1.00
H1880  H     0.70005   0.93508   0.71157   0.00000  Uiso   1.00
C1881  C     0.77375   0.71836   0.68946   0.00000  Uiso   1.00
C1882  C     0.73064   0.70646   0.70361   0.00000  Uiso   1.00
H1883  H     0.71214   0.68932   0.67681   0.00000  Uiso   1.00
H1884  H     0.73201   0.68391   0.73476   0.00000  Uiso   1.00
H1885  H     0.71371   0.73806   0.70913   0.00000  Uiso   1.00
H1886  H     0.77583   0.75517   0.68842   0.00000  Uiso   1.00
H1887  H     0.77566   0.71152   0.65395   0.00000  Uiso   1.00
C1888  C     0.88830   0.94755   0.81614   0.00000  Uiso   1.00
C1889  C     0.87769   0.94059   0.86483   0.00000  Uiso   1.00
H1890  H     0.84425   0.93550   0.86691   0.00000  Uiso   1.00
H1891  H     0.89382   0.90998   0.88100   0.00000  Uiso   1.00
H1892  H     0.88910   0.96865   0.88544   0.00000  Uiso   1.00
H1893  H     0.89469   0.91378   0.80668   0.00000  Uiso   1.00
H1894  H     0.91875   0.96436   0.81486   0.00000  Uiso   1.00
C1895  C     0.87153   0.71044   0.82556   0.00000  Uiso   1.00
C1896  C     0.83852   0.71060   0.85934   0.00000  Uiso   1.00
H1897  H     0.83107   0.67616   0.87286   0.00000  Uiso   1.00
H1898  H     0.84915   0.73085   0.88797   0.00000  Uiso   1.00
H1899  H     0.80870   0.72424   0.84360   0.00000  Uiso   1.00
H1900  H     0.90012   0.69463   0.84146   0.00000  Uiso   1.00
H1901  H     0.88333   0.74418   0.81654   0.00000  Uiso   1.00
C1902  C     0.79011   0.95618   0.67674   0.00000  Uiso   1.00
C1903  C     0.81770   0.96066   0.63805   0.00000  Uiso   1.00
H1904  H     0.82045   0.99691   0.62581   0.00000  Uiso   1.00
H1905  H     0.84918   0.94773   0.64862   0.00000  Uiso   1.00
H1906  H     0.80433   0.94120   0.60987   0.00000  Uiso   1.00
H1907  H     0.78139   0.92102   0.68493   0.00000  Uiso   1.00
H1908  H     0.75987   0.97097   0.66499   0.00000  Uiso   1.00
loop_
_geom_bond_atom_site_label_1
_geom_bond_atom_site_label_2
_geom_bond_distance
_geom_bond_site_symmetry_2
_ccdc_geom_bond_type
C1     C10     1.457   .     S
C1     O39     1.312   .     A
C1     O42     1.314   .     A
C2     O41     1.315   .     A
C2     O40     1.317   .     A
C2     C9      1.467   .     S
C3     C28     1.401   .     A
C3     H35     1.083   .     S
C3     C983    1.385   1_554 S
C4     H36     1.083   .     S
C4     C27     1.401   .     A
C4     C984    1.384   .     S
C5     N67     1.438   .     S
C5     C10     1.403   .     A
C5     C219    1.392   1_455 S
C6     C9      1.418   .     A
C6     N70     1.438   .     S
C6     C114    1.395   .     S
C7     C9      1.419   .     A
C7     N73     1.431   .     S
C7     C111    1.392   .     S
C8     N76     1.434   .     S
C8     C10     1.406   .     A
C8     C218    1.395   1_455 S
C11    N38     1.386   .     A
C11    C79     1.533   .     S
C11    C650    1.443   1_545 S
C12    N37     1.391   .     A
C12    C86     1.542   .     S
C12    C331    1.443   .     S
C13    C93     1.504   .     S
C13    N38     1.387   .     A
C13    C648    1.443   1_545 S
C14    C100    1.513   .     S
C14    N37     1.385   .     A
C14    C329    1.443   .     S
C15    C20     1.454   .     S
C15    O43     1.317   .     A
C15    O46     1.306   .     A
C16    O44     1.317   .     A
C16    O45     1.308   .     A
C16    C19     1.457   .     S
C17    C27     1.398   .     A
C17    N47     1.437   .     S
C17    C19     1.407   .     A
C18    C28     1.399   .     A
C18    N50     1.439   .     S
C18    C20     1.407   .     A
C19    C21     1.416   .     A
C20    C22     1.416   .     A
C21    C23     1.417   .     A
C21    C53     1.526   .     S
C22    C60     1.528   .     S
C22    C24     1.416   .     A
C23    C29     1.408   .     A
C23    C25     1.419   .     A
C24    C26     1.420   .     A
C24    C30     1.407   .     A
C25    C27     1.412   .     A
C25    C980    1.418   .     S
C26    C28     1.412   .     A
C26    C979    1.418   1_554 S
C29    H33     1.079   .     S
C29    C957    1.385   .     S
C30    H34     1.079   .     S
C30    C958    1.384   1_554 S
Cu31   O43     1.979   .     S
Cu31   Cu32    2.749   .     S
Cu31   N37     2.066   .     S
Cu31   O41     1.976   .     S
Cu31   O39     1.974   .     S
Cu31   O45     1.952   .     S
Cu32   N38     2.066   .     S
Cu32   O44     1.979   .     S
Cu32   O46     1.952   .     S
Cu32   O40     1.974   .     S
Cu32   O42     1.976   .     S
N47    H49     1.040   .     S
N47    H48     1.044   .     S
N50    H52     1.042   .     S
N50    H51     1.045   .     S
C53    H59     1.109   .     S
C53    C54     1.528   .     S
C53    H58     1.103   .     S
C54    H56     1.110   .     S
C54    H55     1.109   .     S
C54    H57     1.111   .     S
C60    H66     1.101   .     S
C60    C61     1.528   .     S
C60    H65     1.109   .     S
C61    H64     1.111   .     S
C61    H63     1.109   .     S
C61    H62     1.111   .     S
N67    H68     1.045   .     S
N67    H69     1.045   .     S
N70    H71     1.043   .     S
N70    H72     1.045   .     S
N73    H74     1.044   .     S
N73    H75     1.041   .     S
N76    H77     1.046   .     S
N76    H78     1.046   .     S
C79    H84     1.080   .     S
C79    H85     1.108   .     S
C79    C80     1.539   .     S
C80    H83     1.110   .     S
C80    H82     1.111   .     S
C80    H81     1.110   .     S
C86    H91     1.073   .     S
C86    C87     1.538   .     S
C86    H92     1.111   .     S
C87    H88     1.109   .     S
C87    H89     1.106   .     S
C87    H90     1.105   .     S
C93    C94     1.547   .     S
C93    H99     1.087   .     S
C93    H98     1.101   .     S
C94    H97     1.109   .     S
C94    H96     1.107   .     S
C94    H95     1.099   .     S
C100   H105    1.087   .     S
C100   H106    1.100   .     S
C100   C101    1.534   .     S
C101   H102    1.109   .     S
C101   H103    1.110   .     S
C101   H104    1.109   .     S
C107   C116    1.457   .     S
C107   O145    1.312   .     A
C107   O148    1.314   .     A
C108   O147    1.315   .     A
C108   O146    1.317   .     A
C108   C115    1.467   .     S
C109   C134    1.401   .     A
C109   H141    1.083   .     S
C109   C1089   1.385   1_554 S
C110   H142    1.083   .     S
C110   C133    1.401   .     A
C110   C1090   1.384   .     S
C111   N173    1.438   .     S
C111   C116    1.403   .     A
C112   C115    1.418   .     A
C112   N176    1.438   .     S
C112   C220    1.395   .     S
C113   C115    1.419   .     A
C113   N179    1.431   .     S
C113   C217    1.392   .     S
C114   N182    1.434   .     S
C114   C116    1.406   .     A
C117   N144    1.386   .     A
C117   C185    1.533   .     S
C117   C756    1.443   1_545 S
C118   N143    1.391   .     A
C118   C192    1.542   .     S
C118   C437    1.443   .     S
C119   C199    1.504   .     S
C119   N144    1.387   .     A
C119   C754    1.443   1_545 S
C120   C206    1.513   .     S
C120   N143    1.385   .     A
C120   C435    1.443   .     S
C121   C126    1.454   .     S
C121   O149    1.317   .     A
C121   O152    1.306   .     A
C122   O150    1.317   .     A
C122   O151    1.308   .     A
C122   C125    1.457   .     S
C123   C133    1.398   .     A
C123   N153    1.437   .     S
C123   C125    1.407   .     A
C124   C134    1.399   .     A
C124   N156    1.439   .     S
C124   C126    1.407   .     A
C125   C127    1.416   .     A
C126   C128    1.416   .     A
C127   C129    1.417   .     A
C127   C159    1.526   .     S
C128   C166    1.528   .     S
C128   C130    1.416   .     A
C129   C135    1.408   .     A
C129   C131    1.419   .     A
C130   C132    1.420   .     A
C130   C136    1.407   .     A
C131   C133    1.412   .     A
C131   C1086   1.418   .     S
C132   C134    1.412   .     A
C132   C1085   1.418   1_554 S
C135   H139    1.079   .     S
C135   C1063   1.385   .     S
C136   H140    1.079   .     S
C136   C1064   1.384   1_554 S
Cu137  O149    1.979   .     S
Cu137  Cu138   2.749   .     S
Cu137  N143    2.066   .     S
Cu137  O147    1.976   .     S
Cu137  O145    1.974   .     S
Cu137  O151    1.952   .     S
Cu138  N144    2.066   .     S
Cu138  O150    1.979   .     S
Cu138  O152    1.952   .     S
Cu138  O146    1.974   .     S
Cu138  O148    1.976   .     S
N153   H155    1.040   .     S
N153   H154    1.044   .     S
N156   H158    1.042   .     S
N156   H157    1.045   .     S
C159   H165    1.109   .     S
C159   C160    1.528   .     S
C159   H164    1.103   .     S
C160   H162    1.110   .     S
C160   H161    1.109   .     S
C160   H163    1.111   .     S
C166   H172    1.101   .     S
C166   C167    1.528   .     S
C166   H171    1.109   .     S
C167   H170    1.111   .     S
C167   H169    1.109   .     S
C167   H168    1.111   .     S
N173   H174    1.045   .     S
N173   H175    1.045   .     S
N176   H177    1.043   .     S
N176   H178    1.045   .     S
N179   H180    1.044   .     S
N179   H181    1.041   .     S
N182   H183    1.046   .     S
N182   H184    1.046   .     S
C185   H190    1.080   .     S
C185   H191    1.108   .     S
C185   C186    1.539   .     S
C186   H189    1.110   .     S
C186   H188    1.111   .     S
C186   H187    1.110   .     S
C192   H197    1.073   .     S
C192   C193    1.538   .     S
C192   H198    1.111   .     S
C193   H194    1.109   .     S
C193   H195    1.106   .     S
C193   H196    1.105   .     S
C199   C200    1.547   .     S
C199   H205    1.087   .     S
C199   H204    1.101   .     S
C200   H203    1.109   .     S
C200   H202    1.107   .     S
C200   H201    1.099   .     S
C206   H211    1.087   .     S
C206   H212    1.100   .     S
C206   C207    1.534   .     S
C207   H208    1.109   .     S
C207   H209    1.110   .     S
C207   H210    1.109   .     S
C213   C222    1.457   .     S
C213   O251    1.312   .     A
C213   O254    1.314   .     A
C214   O253    1.315   .     A
C214   O252    1.317   .     A
C214   C221    1.467   .     S
C215   C240    1.401   .     A
C215   H247    1.083   .     S
C215   C1195   1.385   1_554 S
C216   H248    1.083   .     S
C216   C239    1.401   .     A
C216   C1196   1.384   .     S
C217   N279    1.438   .     S
C217   C222    1.403   .     A
C218   C221    1.418   .     A
C218   N282    1.438   .     S
C218   C8      1.395   1_655 S
C219   C221    1.419   .     A
C219   N285    1.431   .     S
C219   C5      1.392   1_655 S
C220   N288    1.434   .     S
C220   C222    1.406   .     A
C223   N250    1.386   .     A
C223   C291    1.533   .     S
C223   C862    1.443   1_545 S
C224   N249    1.391   .     A
C224   C298    1.542   .     S
C224   C543    1.443   .     S
C225   C305    1.504   .     S
C225   N250    1.387   .     A
C225   C860    1.443   1_545 S
C226   C312    1.513   .     S
C226   N249    1.385   .     A
C226   C541    1.443   .     S
C227   C232    1.454   .     S
C227   O255    1.317   .     A
C227   O258    1.306   .     A
C228   O256    1.317   .     A
C228   O257    1.308   .     A
C228   C231    1.457   .     S
C229   C239    1.398   .     A
C229   N259    1.437   .     S
C229   C231    1.407   .     A
C230   C240    1.399   .     A
C230   N262    1.439   .     S
C230   C232    1.407   .     A
C231   C233    1.416   .     A
C232   C234    1.416   .     A
C233   C235    1.417   .     A
C233   C265    1.526   .     S
C234   C272    1.528   .     S
C234   C236    1.416   .     A
C235   C241    1.408   .     A
C235   C237    1.419   .     A
C236   C238    1.420   .     A
C236   C242    1.407   .     A
C237   C239    1.412   .     A
C237   C1192   1.418   .     S
C238   C240    1.412   .     A
C238   C1191   1.418   1_554 S
C241   H245    1.079   .     S
C241   C1169   1.385   .     S
C242   H246    1.079   .     S
C242   C1170   1.384   1_554 S
Cu243  O255    1.979   .     S
Cu243  Cu244   2.749   .     S
Cu243  N249    2.066   .     S
Cu243  O253    1.976   .     S
Cu243  O251    1.974   .     S
Cu243  O257    1.952   .     S
Cu244  N250    2.066   .     S
Cu244  O256    1.979   .     S
Cu244  O258    1.952   .     S
Cu244  O252    1.974   .     S
Cu244  O254    1.976   .     S
N259   H261    1.040   .     S
N259   H260    1.044   .     S
N262   H264    1.042   .     S
N262   H263    1.045   .     S
C265   H271    1.109   .     S
C265   C266    1.528   .     S
C265   H270    1.103   .     S
C266   H268    1.110   .     S
C266   H267    1.109   .     S
C266   H269    1.111   .     S
C272   H278    1.101   .     S
C272   C273    1.528   .     S
C272   H277    1.109   .     S
C273   H276    1.111   .     S
C273   H275    1.109   .     S
C273   H274    1.111   .     S
N279   H280    1.045   .     S
N279   H281    1.045   .     S
N282   H283    1.043   .     S
N282   H284    1.045   .     S
N285   H286    1.044   .     S
N285   H287    1.041   .     S
N288   H289    1.046   .     S
N288   H290    1.046   .     S
C291   H296    1.080   .     S
C291   H297    1.108   .     S
C291   C292    1.539   .     S
C292   H295    1.110   .     S
C292   H294    1.111   .     S
C292   H293    1.110   .     S
C298   H303    1.073   .     S
C298   C299    1.538   .     S
C298   H304    1.111   .     S
C299   H300    1.109   .     S
C299   H301    1.106   .     S
C299   H302    1.105   .     S
C305   C306    1.547   .     S
C305   H311    1.087   .     S
C305   H310    1.101   .     S
C306   H309    1.109   .     S
C306   H308    1.107   .     S
C306   H307    1.099   .     S
C312   H317    1.087   .     S
C312   H318    1.100   .     S
C312   C313    1.534   .     S
C313   H314    1.109   .     S
C313   H315    1.110   .     S
C313   H316    1.109   .     S
C319   C328    1.457   .     S
C319   O357    1.312   .     A
C319   O360    1.314   .     A
C320   O359    1.315   .     A
C320   O358    1.317   .     A
C320   C327    1.467   .     S
C321   C346    1.401   .     A
C321   H353    1.083   .     S
C321   C1301   1.385   1_554 S
C322   H354    1.083   .     S
C322   C345    1.401   .     A
C322   C1302   1.384   .     S
C323   N385    1.438   .     S
C323   C328    1.403   .     A
C323   C537    1.392   1_455 S
C324   C327    1.418   .     A
C324   N388    1.438   .     S
C324   C432    1.395   .     S
C325   C327    1.419   .     A
C325   N391    1.431   .     S
C325   C429    1.392   .     S
C326   N394    1.434   .     S
C326   C328    1.406   .     A
C326   C536    1.395   1_455 S
C329   N356    1.386   .     A
C329   C397    1.533   .     S
C330   N355    1.391   .     A
C330   C404    1.542   .     S
C330   C649    1.443   .     S
C331   C411    1.504   .     S
C331   N356    1.387   .     A
C332   C418    1.513   .     S
C332   N355    1.385   .     A
C332   C647    1.443   .     S
C333   C338    1.454   .     S
C333   O361    1.317   .     A
C333   O364    1.306   .     A
C334   O362    1.317   .     A
C334   O363    1.308   .     A
C334   C337    1.457   .     S
C335   C345    1.398   .     A
C335   N365    1.437   .     S
C335   C337    1.407   .     A
C336   C346    1.399   .     A
C336   N368    1.439   .     S
C336   C338    1.407   .     A
C337   C339    1.416   .     A
C338   C340    1.416   .     A
C339   C341    1.417   .     A
C339   C371    1.526   .     S
C340   C378    1.528   .     S
C340   C342    1.416   .     A
C341   C347    1.408   .     A
C341   C343    1.419   .     A
C342   C344    1.420   .     A
C342   C348    1.407   .     A
C343   C345    1.412   .     A
C343   C1298   1.418   .     S
C344   C346    1.412   .     A
C344   C1297   1.418   1_554 S
C347   H351    1.079   .     S
C347   C1275   1.385   .     S
C348   H352    1.079   .     S
C348   C1276   1.384   1_554 S
Cu349  O361    1.979   .     S
Cu349  Cu350   2.749   .     S
Cu349  N355    2.066   .     S
Cu349  O359    1.976   .     S
Cu349  O357    1.974   .     S
Cu349  O363    1.952   .     S
Cu350  N356    2.066   .     S
Cu350  O362    1.979   .     S
Cu350  O364    1.952   .     S
Cu350  O358    1.974   .     S
Cu350  O360    1.976   .     S
N365   H367    1.040   .     S
N365   H366    1.044   .     S
N368   H370    1.042   .     S
N368   H369    1.045   .     S
C371   H377    1.109   .     S
C371   C372    1.528   .     S
C371   H376    1.103   .     S
C372   H374    1.110   .     S
C372   H373    1.109   .     S
C372   H375    1.111   .     S
C378   H384    1.101   .     S
C378   C379    1.528   .     S
C378   H383    1.109   .     S
C379   H382    1.111   .     S
C379   H381    1.109   .     S
C379   H380    1.111   .     S
N385   H386    1.045   .     S
N385   H387    1.045   .     S
N388   H389    1.043   .     S
N388   H390    1.045   .     S
N391   H392    1.044   .     S
N391   H393    1.041   .     S
N394   H395    1.046   .     S
N394   H396    1.046   .     S
C397   H402    1.080   .     S
C397   H403    1.108   .     S
C397   C398    1.539   .     S
C398   H401    1.110   .     S
C398   H400    1.111   .     S
C398   H399    1.110   .     S
C404   H409    1.073   .     S
C404   C405    1.538   .     S
C404   H410    1.111   .     S
C405   H406    1.109   .     S
C405   H407    1.106   .     S
C405   H408    1.105   .     S
C411   C412    1.547   .     S
C411   H417    1.087   .     S
C411   H416    1.101   .     S
C412   H415    1.109   .     S
C412   H414    1.107   .     S
C412   H413    1.099   .     S
C418   H423    1.087   .     S
C418   H424    1.100   .     S
C418   C419    1.534   .     S
C419   H420    1.109   .     S
C419   H421    1.110   .     S
C419   H422    1.109   .     S
C425   C434    1.457   .     S
C425   O463    1.312   .     A
C425   O466    1.314   .     A
C426   O465    1.315   .     A
C426   O464    1.317   .     A
C426   C433    1.467   .     S
C427   C452    1.401   .     A
C427   H459    1.083   .     S
C427   C1407   1.385   1_554 S
C428   H460    1.083   .     S
C428   C451    1.401   .     A
C428   C1408   1.384   .     S
C429   N491    1.438   .     S
C429   C434    1.403   .     A
C430   C433    1.418   .     A
C430   N494    1.438   .     S
C430   C538    1.395   .     S
C431   C433    1.419   .     A
C431   N497    1.431   .     S
C431   C535    1.392   .     S
C432   N500    1.434   .     S
C432   C434    1.406   .     A
C435   N462    1.386   .     A
C435   C503    1.533   .     S
C436   N461    1.391   .     A
C436   C510    1.542   .     S
C436   C755    1.443   .     S
C437   C517    1.504   .     S
C437   N462    1.387   .     A
C438   C524    1.513   .     S
C438   N461    1.385   .     A
C438   C753    1.443   .     S
C439   C444    1.454   .     S
C439   O467    1.317   .     A
C439   O470    1.306   .     A
C440   O468    1.317   .     A
C440   O469    1.308   .     A
C440   C443    1.457   .     S
C441   C451    1.398   .     A
C441   N471    1.437   .     S
C441   C443    1.407   .     A
C442   C452    1.399   .     A
C442   N474    1.439   .     S
C442   C444    1.407   .     A
C443   C445    1.416   .     A
C444   C446    1.416   .     A
C445   C447    1.417   .     A
C445   C477    1.526   .     S
C446   C484    1.528   .     S
C446   C448    1.416   .     A
C447   C453    1.408   .     A
C447   C449    1.419   .     A
C448   C450    1.420   .     A
C448   C454    1.407   .     A
C449   C451    1.412   .     A
C449   C1404   1.418   .     S
C450   C452    1.412   .     A
C450   C1403   1.418   1_554 S
C453   H457    1.079   .     S
C453   C1381   1.385   .     S
C454   H458    1.079   .     S
C454   C1382   1.384   1_554 S
Cu455  O467    1.979   .     S
Cu455  Cu456   2.749   .     S
Cu455  N461    2.066   .     S
Cu455  O465    1.976   .     S
Cu455  O463    1.974   .     S
Cu455  O469    1.952   .     S
Cu456  N462    2.066   .     S
Cu456  O468    1.979   .     S
Cu456  O470    1.952   .     S
Cu456  O464    1.974   .     S
Cu456  O466    1.976   .     S
N471   H473    1.040   .     S
N471   H472    1.044   .     S
N474   H476    1.042   .     S
N474   H475    1.045   .     S
C477   H483    1.109   .     S
C477   C478    1.528   .     S
C477   H482    1.103   .     S
C478   H480    1.110   .     S
C478   H479    1.109   .     S
C478   H481    1.111   .     S
C484   H490    1.101   .     S
C484   C485    1.528   .     S
C484   H489    1.109   .     S
C485   H488    1.111   .     S
C485   H487    1.109   .     S
C485   H486    1.111   .     S
N491   H492    1.045   .     S
N491   H493    1.045   .     S
N494   H495    1.043   .     S
N494   H496    1.045   .     S
N497   H498    1.044   .     S
N497   H499    1.041   .     S
N500   H501    1.046   .     S
N500   H502    1.046   .     S
C503   H508    1.080   .     S
C503   H509    1.108   .     S
C503   C504    1.539   .     S
C504   H507    1.110   .     S
C504   H506    1.111   .     S
C504   H505    1.110   .     S
C510   H515    1.073   .     S
C510   C511    1.538   .     S
C510   H516    1.111   .     S
C511   H512    1.109   .     S
C511   H513    1.106   .     S
C511   H514    1.105   .     S
C517   C518    1.547   .     S
C517   H523    1.087   .     S
C517   H522    1.101   .     S
C518   H521    1.109   .     S
C518   H520    1.107   .     S
C518   H519    1.099   .     S
C524   H529    1.087   .     S
C524   H530    1.100   .     S
C524   C525    1.534   .     S
C525   H526    1.109   .     S
C525   H527    1.110   .     S
C525   H528    1.109   .     S
C531   C540    1.457   .     S
C531   O569    1.312   .     A
C531   O572    1.314   .     A
C532   O571    1.315   .     A
C532   O570    1.317   .     A
C532   C539    1.467   .     S
C533   C558    1.401   .     A
C533   H565    1.083   .     S
C533   C1513   1.385   1_554 S
C534   H566    1.083   .     S
C534   C557    1.401   .     A
C534   C1514   1.384   .     S
C535   N597    1.438   .     S
C535   C540    1.403   .     A
C536   C539    1.418   .     A
C536   N600    1.438   .     S
C536   C326    1.395   1_655 S
C537   C539    1.419   .     A
C537   N603    1.431   .     S
C537   C323    1.392   1_655 S
C538   N606    1.434   .     S
C538   C540    1.406   .     A
C541   N568    1.386   .     A
C541   C609    1.533   .     S
C542   N567    1.391   .     A
C542   C616    1.542   .     S
C542   C861    1.443   .     S
C543   C623    1.504   .     S
C543   N568    1.387   .     A
C544   C630    1.513   .     S
C544   N567    1.385   .     A
C544   C859    1.443   .     S
C545   C550    1.454   .     S
C545   O573    1.317   .     A
C545   O576    1.306   .     A
C546   O574    1.317   .     A
C546   O575    1.308   .     A
C546   C549    1.457   .     S
C547   C557    1.398   .     A
C547   N577    1.437   .     S
C547   C549    1.407   .     A
C548   C558    1.399   .     A
C548   N580    1.439   .     S
C548   C550    1.407   .     A
C549   C551    1.416   .     A
C550   C552    1.416   .     A
C551   C553    1.417   .     A
C551   C583    1.526   .     S
C552   C590    1.528   .     S
C552   C554    1.416   .     A
C553   C559    1.408   .     A
C553   C555    1.419   .     A
C554   C556    1.420   .     A
C554   C560    1.407   .     A
C555   C557    1.412   .     A
C555   C1510   1.418   .     S
C556   C558    1.412   .     A
C556   C1509   1.418   1_554 S
C559   H563    1.079   .     S
C559   C1487   1.385   .     S
C560   H564    1.079   .     S
C560   C1488   1.384   1_554 S
Cu561  O573    1.979   .     S
Cu561  Cu562   2.749   .     S
Cu561  N567    2.066   .     S
Cu561  O571    1.976   .     S
Cu561  O569    1.974   .     S
Cu561  O575    1.952   .     S
Cu562  N568    2.066   .     S
Cu562  O574    1.979   .     S
Cu562  O576    1.952   .     S
Cu562  O570    1.974   .     S
Cu562  O572    1.976   .     S
N577   H579    1.040   .     S
N577   H578    1.044   .     S
N580   H582    1.042   .     S
N580   H581    1.045   .     S
C583   H589    1.109   .     S
C583   C584    1.528   .     S
C583   H588    1.103   .     S
C584   H586    1.110   .     S
C584   H585    1.109   .     S
C584   H587    1.111   .     S
C590   H596    1.101   .     S
C590   C591    1.528   .     S
C590   H595    1.109   .     S
C591   H594    1.111   .     S
C591   H593    1.109   .     S
C591   H592    1.111   .     S
N597   H598    1.045   .     S
N597   H599    1.045   .     S
N600   H601    1.043   .     S
N600   H602    1.045   .     S
N603   H604    1.044   .     S
N603   H605    1.041   .     S
N606   H607    1.046   .     S
N606   H608    1.046   .     S
C609   H614    1.080   .     S
C609   H615    1.108   .     S
C609   C610    1.539   .     S
C610   H613    1.110   .     S
C610   H612    1.111   .     S
C610   H611    1.110   .     S
C616   H621    1.073   .     S
C616   C617    1.538   .     S
C616   H622    1.111   .     S
C617   H618    1.109   .     S
C617   H619    1.106   .     S
C617   H620    1.105   .     S
C623   C624    1.547   .     S
C623   H629    1.087   .     S
C623   H628    1.101   .     S
C624   H627    1.109   .     S
C624   H626    1.107   .     S
C624   H625    1.099   .     S
C630   H635    1.087   .     S
C630   H636    1.100   .     S
C630   C631    1.534   .     S
C631   H632    1.109   .     S
C631   H633    1.110   .     S
C631   H634    1.109   .     S
C637   C646    1.457   .     S
C637   O675    1.312   .     A
C637   O678    1.314   .     A
C638   O677    1.315   .     A
C638   O676    1.317   .     A
C638   C645    1.467   .     S
C639   C664    1.401   .     A
C639   H671    1.083   .     S
C639   C1619   1.385   1_554 S
C640   H672    1.083   .     S
C640   C663    1.401   .     A
C640   C1620   1.384   .     S
C641   N703    1.438   .     S
C641   C646    1.403   .     A
C641   C855    1.392   1_455 S
C642   C645    1.418   .     A
C642   N706    1.438   .     S
C642   C750    1.395   .     S
C643   C645    1.419   .     A
C643   N709    1.431   .     S
C643   C747    1.392   .     S
C644   N712    1.434   .     S
C644   C646    1.406   .     A
C644   C854    1.395   1_455 S
C647   N674    1.386   .     A
C647   C715    1.533   .     S
C648   N673    1.391   .     A
C648   C722    1.542   .     S
C648   C13     1.443   1_565 S
C649   C729    1.504   .     S
C649   N674    1.387   .     A
C650   C736    1.513   .     S
C650   N673    1.385   .     A
C650   C11     1.443   1_565 S
C651   C656    1.454   .     S
C651   O679    1.317   .     A
C651   O682    1.306   .     A
C652   O680    1.317   .     A
C652   O681    1.308   .     A
C652   C655    1.457   .     S
C653   C663    1.398   .     A
C653   N683    1.437   .     S
C653   C655    1.407   .     A
C654   C664    1.399   .     A
C654   N686    1.439   .     S
C654   C656    1.407   .     A
C655   C657    1.416   .     A
C656   C658    1.416   .     A
C657   C659    1.417   .     A
C657   C689    1.526   .     S
C658   C696    1.528   .     S
C658   C660    1.416   .     A
C659   C665    1.408   .     A
C659   C661    1.419   .     A
C660   C662    1.420   .     A
C660   C666    1.407   .     A
C661   C663    1.412   .     A
C661   C1616   1.418   .     S
C662   C664    1.412   .     A
C662   C1615   1.418   1_554 S
C665   H669    1.079   .     S
C665   C1593   1.385   .     S
C666   H670    1.079   .     S
C666   C1594   1.384   1_554 S
Cu667  O679    1.979   .     S
Cu667  Cu668   2.749   .     S
Cu667  N673    2.066   .     S
Cu667  O677    1.976   .     S
Cu667  O675    1.974   .     S
Cu667  O681    1.952   .     S
Cu668  N674    2.066   .     S
Cu668  O680    1.979   .     S
Cu668  O682    1.952   .     S
Cu668  O676    1.974   .     S
Cu668  O678    1.976   .     S
N683   H685    1.040   .     S
N683   H684    1.044   .     S
N686   H688    1.042   .     S
N686   H687    1.045   .     S
C689   H695    1.109   .     S
C689   C690    1.528   .     S
C689   H694    1.103   .     S
C690   H692    1.110   .     S
C690   H691    1.109   .     S
C690   H693    1.111   .     S
C696   H702    1.101   .     S
C696   C697    1.528   .     S
C696   H701    1.109   .     S
C697   H700    1.111   .     S
C697   H699    1.109   .     S
C697   H698    1.111   .     S
N703   H704    1.045   .     S
N703   H705    1.045   .     S
N706   H707    1.043   .     S
N706   H708    1.045   .     S
N709   H710    1.044   .     S
N709   H711    1.041   .     S
N712   H713    1.046   .     S
N712   H714    1.046   .     S
C715   H720    1.080   .     S
C715   H721    1.108   .     S
C715   C716    1.539   .     S
C716   H719    1.110   .     S
C716   H718    1.111   .     S
C716   H717    1.110   .     S
C722   H727    1.073   .     S
C722   C723    1.538   .     S
C722   H728    1.111   .     S
C723   H724    1.109   .     S
C723   H725    1.106   .     S
C723   H726    1.105   .     S
C729   C730    1.547   .     S
C729   H735    1.087   .     S
C729   H734    1.101   .     S
C730   H733    1.109   .     S
C730   H732    1.107   .     S
C730   H731    1.099   .     S
C736   H741    1.087   .     S
C736   H742    1.100   .     S
C736   C737    1.534   .     S
C737   H738    1.109   .     S
C737   H739    1.110   .     S
C737   H740    1.109   .     S
C743   C752    1.457   .     S
C743   O781    1.312   .     A
C743   O784    1.314   .     A
C744   O783    1.315   .     A
C744   O782    1.317   .     A
C744   C751    1.467   .     S
C745   C770    1.401   .     A
C745   H777    1.083   .     S
C745   C1725   1.385   1_554 S
C746   H778    1.083   .     S
C746   C769    1.401   .     A
C746   C1726   1.384   .     S
C747   N809    1.438   .     S
C747   C752    1.403   .     A
C748   C751    1.418   .     A
C748   N812    1.438   .     S
C748   C856    1.395   .     S
C749   C751    1.419   .     A
C749   N815    1.431   .     S
C749   C853    1.392   .     S
C750   N818    1.434   .     S
C750   C752    1.406   .     A
C753   N780    1.386   .     A
C753   C821    1.533   .     S
C754   N779    1.391   .     A
C754   C828    1.542   .     S
C754   C119    1.443   1_565 S
C755   C835    1.504   .     S
C755   N780    1.387   .     A
C756   C842    1.513   .     S
C756   N779    1.385   .     A
C756   C117    1.443   1_565 S
C757   C762    1.454   .     S
C757   O785    1.317   .     A
C757   O788    1.306   .     A
C758   O786    1.317   .     A
C758   O787    1.308   .     A
C758   C761    1.457   .     S
C759   C769    1.398   .     A
C759   N789    1.437   .     S
C759   C761    1.407   .     A
C760   C770    1.399   .     A
C760   N792    1.439   .     S
C760   C762    1.407   .     A
C761   C763    1.416   .     A
C762   C764    1.416   .     A
C763   C765    1.417   .     A
C763   C795    1.526   .     S
C764   C802    1.528   .     S
C764   C766    1.416   .     A
C765   C771    1.408   .     A
C765   C767    1.419   .     A
C766   C768    1.420   .     A
C766   C772    1.407   .     A
C767   C769    1.412   .     A
C767   C1722   1.418   .     S
C768   C770    1.412   .     A
C768   C1721   1.418   1_554 S
C771   H775    1.079   .     S
C771   C1699   1.385   .     S
C772   H776    1.079   .     S
C772   C1700   1.384   1_554 S
Cu773  O785    1.979   .     S
Cu773  Cu774   2.749   .     S
Cu773  N779    2.066   .     S
Cu773  O783    1.976   .     S
Cu773  O781    1.974   .     S
Cu773  O787    1.952   .     S
Cu774  N780    2.066   .     S
Cu774  O786    1.979   .     S
Cu774  O788    1.952   .     S
Cu774  O782    1.974   .     S
Cu774  O784    1.976   .     S
N789   H791    1.040   .     S
N789   H790    1.044   .     S
N792   H794    1.042   .     S
N792   H793    1.045   .     S
C795   H801    1.109   .     S
C795   C796    1.528   .     S
C795   H800    1.103   .     S
C796   H798    1.110   .     S
C796   H797    1.109   .     S
C796   H799    1.111   .     S
C802   H808    1.101   .     S
C802   C803    1.528   .     S
C802   H807    1.109   .     S
C803   H806    1.111   .     S
C803   H805    1.109   .     S
C803   H804    1.111   .     S
N809   H810    1.045   .     S
N809   H811    1.045   .     S
N812   H813    1.043   .     S
N812   H814    1.045   .     S
N815   H816    1.044   .     S
N815   H817    1.041   .     S
N818   H819    1.046   .     S
N818   H820    1.046   .     S
C821   H826    1.080   .     S
C821   H827    1.108   .     S
C821   C822    1.539   .     S
C822   H825    1.110   .     S
C822   H824    1.111   .     S
C822   H823    1.110   .     S
C828   H833    1.073   .     S
C828   C829    1.538   .     S
C828   H834    1.111   .     S
C829   H830    1.109   .     S
C829   H831    1.106   .     S
C829   H832    1.105   .     S
C835   C836    1.547   .     S
C835   H841    1.087   .     S
C835   H840    1.101   .     S
C836   H839    1.109   .     S
C836   H838    1.107   .     S
C836   H837    1.099   .     S
C842   H847    1.087   .     S
C842   H848    1.100   .     S
C842   C843    1.534   .     S
C843   H844    1.109   .     S
C843   H845    1.110   .     S
C843   H846    1.109   .     S
C849   C858    1.457   .     S
C849   O887    1.312   .     A
C849   O890    1.314   .     A
C850   O889    1.315   .     A
C850   O888    1.317   .     A
C850   C857    1.467   .     S
C851   C876    1.401   .     A
C851   H883    1.083   .     S
C851   C1831   1.385   1_554 S
C852   H884    1.083   .     S
C852   C875    1.401   .     A
C852   C1832   1.384   .     S
C853   N915    1.438   .     S
C853   C858    1.403   .     A
C854   C857    1.418   .     A
C854   N918    1.438   .     S
C854   C644    1.395   1_655 S
C855   C857    1.419   .     A
C855   N921    1.431   .     S
C855   C641    1.392   1_655 S
C856   N924    1.434   .     S
C856   C858    1.406   .     A
C859   N886    1.386   .     A
C859   C927    1.533   .     S
C860   N885    1.391   .     A
C860   C934    1.542   .     S
C860   C225    1.443   1_565 S
C861   C941    1.504   .     S
C861   N886    1.387   .     A
C862   C948    1.513   .     S
C862   N885    1.385   .     A
C862   C223    1.443   1_565 S
C863   C868    1.454   .     S
C863   O891    1.317   .     A
C863   O894    1.306   .     A
C864   O892    1.317   .     A
C864   O893    1.308   .     A
C864   C867    1.457   .     S
C865   C875    1.398   .     A
C865   N895    1.437   .     S
C865   C867    1.407   .     A
C866   C876    1.399   .     A
C866   N898    1.439   .     S
C866   C868    1.407   .     A
C867   C869    1.416   .     A
C868   C870    1.416   .     A
C869   C871    1.417   .     A
C869   C901    1.526   .     S
C870   C908    1.528   .     S
C870   C872    1.416   .     A
C871   C877    1.408   .     A
C871   C873    1.419   .     A
C872   C874    1.420   .     A
C872   C878    1.407   .     A
C873   C875    1.412   .     A
C873   C1828   1.418   .     S
C874   C876    1.412   .     A
C874   C1827   1.418   1_554 S
C877   H881    1.079   .     S
C877   C1805   1.385   .     S
C878   H882    1.079   .     S
C878   C1806   1.384   1_554 S
Cu879  O891    1.979   .     S
Cu879  Cu880   2.749   .     S
Cu879  N885    2.066   .     S
Cu879  O889    1.976   .     S
Cu879  O887    1.974   .     S
Cu879  O893    1.952   .     S
Cu880  N886    2.066   .     S
Cu880  O892    1.979   .     S
Cu880  O894    1.952   .     S
Cu880  O888    1.974   .     S
Cu880  O890    1.976   .     S
N895   H897    1.040   .     S
N895   H896    1.044   .     S
N898   H900    1.042   .     S
N898   H899    1.045   .     S
C901   H907    1.109   .     S
C901   C902    1.528   .     S
C901   H906    1.103   .     S
C902   H904    1.110   .     S
C902   H903    1.109   .     S
C902   H905    1.111   .     S
C908   H914    1.101   .     S
C908   C909    1.528   .     S
C908   H913    1.109   .     S
C909   H912    1.111   .     S
C909   H911    1.109   .     S
C909   H910    1.111   .     S
N915   H916    1.045   .     S
N915   H917    1.045   .     S
N918   H919    1.043   .     S
N918   H920    1.045   .     S
N921   H922    1.044   .     S
N921   H923    1.041   .     S
N924   H925    1.046   .     S
N924   H926    1.046   .     S
C927   H932    1.080   .     S
C927   H933    1.108   .     S
C927   C928    1.539   .     S
C928   H931    1.110   .     S
C928   H930    1.111   .     S
C928   H929    1.110   .     S
C934   H939    1.073   .     S
C934   C935    1.538   .     S
C934   H940    1.111   .     S
C935   H936    1.109   .     S
C935   H937    1.106   .     S
C935   H938    1.105   .     S
C941   C942    1.547   .     S
C941   H947    1.087   .     S
C941   H946    1.101   .     S
C942   H945    1.109   .     S
C942   H944    1.107   .     S
C942   H943    1.099   .     S
C948   H953    1.087   .     S
C948   H954    1.100   .     S
C948   C949    1.534   .     S
C949   H950    1.109   .     S
C949   H951    1.110   .     S
C949   H952    1.109   .     S
C955   C964    1.457   .     S
C955   O993    1.312   .     A
C955   O996    1.314   .     A
C956   O995    1.315   .     A
C956   O994    1.317   .     A
C956   C963    1.467   .     S
C957   C982    1.401   .     A
C957   H989    1.083   .     S
C958   H990    1.083   .     S
C958   C981    1.401   .     A
C958   C30     1.384   1_556 S
C959   N1021   1.438   .     S
C959   C964    1.403   .     A
C959   C1173   1.392   1_455 S
C960   C963    1.418   .     A
C960   N1024   1.438   .     S
C960   C1068   1.395   .     S
C961   C963    1.419   .     A
C961   N1027   1.431   .     S
C961   C1065   1.392   .     S
C962   N1030   1.434   .     S
C962   C964    1.406   .     A
C962   C1172   1.395   1_455 S
C965   N992    1.386   .     A
C965   C1033   1.533   .     S
C965   C1604   1.443   1_545 S
C966   N991    1.391   .     A
C966   C1040   1.542   .     S
C966   C1285   1.443   .     S
C967   C1047   1.504   .     S
C967   N992    1.387   .     A
C967   C1602   1.443   1_545 S
C968   C1054   1.513   .     S
C968   N991    1.385   .     A
C968   C1283   1.443   .     S
C969   C974    1.454   .     S
C969   O997    1.317   .     A
C969   O1000   1.306   .     A
C970   O998    1.317   .     A
C970   O999    1.308   .     A
C970   C973    1.457   .     S
C971   C981    1.398   .     A
C971   N1001   1.437   .     S
C971   C973    1.407   .     A
C972   C982    1.399   .     A
C972   N1004   1.439   .     S
C972   C974    1.407   .     A
C973   C975    1.416   .     A
C974   C976    1.416   .     A
C975   C977    1.417   .     A
C975   C1007   1.526   .     S
C976   C1014   1.528   .     S
C976   C978    1.416   .     A
C977   C983    1.408   .     A
C977   C979    1.419   .     A
C978   C980    1.420   .     A
C978   C984    1.407   .     A
C979   C981    1.412   .     A
C979   C26     1.418   1_556 S
C980   C982    1.412   .     A
C983   H987    1.079   .     S
C983   C3      1.385   1_556 S
C984   H988    1.079   .     S
Cu985  O997    1.979   .     S
Cu985  Cu986   2.749   .     S
Cu985  N991    2.066   .     S
Cu985  O995    1.976   .     S
Cu985  O993    1.974   .     S
Cu985  O999    1.952   .     S
Cu986  N992    2.066   .     S
Cu986  O998    1.979   .     S
Cu986  O1000   1.952   .     S
Cu986  O994    1.974   .     S
Cu986  O996    1.976   .     S
N1001  H1003   1.040   .     S
N1001  H1002   1.044   .     S
N1004  H1006   1.042   .     S
N1004  H1005   1.045   .     S
C1007  H1013   1.109   .     S
C1007  C1008   1.528   .     S
C1007  H1012   1.103   .     S
C1008  H1010   1.110   .     S
C1008  H1009   1.109   .     S
C1008  H1011   1.111   .     S
C1014  H1020   1.101   .     S
C1014  C1015   1.528   .     S
C1014  H1019   1.109   .     S
C1015  H1018   1.111   .     S
C1015  H1017   1.109   .     S
C1015  H1016   1.111   .     S
N1021  H1022   1.045   .     S
N1021  H1023   1.045   .     S
N1024  H1025   1.043   .     S
N1024  H1026   1.045   .     S
N1027  H1028   1.044   .     S
N1027  H1029   1.041   .     S
N1030  H1031   1.046   .     S
N1030  H1032   1.046   .     S
C1033  H1038   1.080   .     S
C1033  H1039   1.108   .     S
C1033  C1034   1.539   .     S
C1034  H1037   1.110   .     S
C1034  H1036   1.111   .     S
C1034  H1035   1.110   .     S
C1040  H1045   1.073   .     S
C1040  C1041   1.538   .     S
C1040  H1046   1.111   .     S
C1041  H1042   1.109   .     S
C1041  H1043   1.106   .     S
C1041  H1044   1.105   .     S
C1047  C1048   1.547   .     S
C1047  H1053   1.087   .     S
C1047  H1052   1.101   .     S
C1048  H1051   1.109   .     S
C1048  H1050   1.107   .     S
C1048  H1049   1.099   .     S
C1054  H1059   1.087   .     S
C1054  H1060   1.100   .     S
C1054  C1055   1.534   .     S
C1055  H1056   1.109   .     S
C1055  H1057   1.110   .     S
C1055  H1058   1.109   .     S
C1061  C1070   1.457   .     S
C1061  O1099   1.312   .     A
C1061  O1102   1.314   .     A
C1062  O1101   1.315   .     A
C1062  O1100   1.317   .     A
C1062  C1069   1.467   .     S
C1063  C1088   1.401   .     A
C1063  H1095   1.083   .     S
C1064  H1096   1.083   .     S
C1064  C1087   1.401   .     A
C1064  C136    1.384   1_556 S
C1065  N1127   1.438   .     S
C1065  C1070   1.403   .     A
C1066  C1069   1.418   .     A
C1066  N1130   1.438   .     S
C1066  C1174   1.395   .     S
C1067  C1069   1.419   .     A
C1067  N1133   1.431   .     S
C1067  C1171   1.392   .     S
C1068  N1136   1.434   .     S
C1068  C1070   1.406   .     A
C1071  N1098   1.386   .     A
C1071  C1139   1.533   .     S
C1071  C1710   1.443   1_545 S
C1072  N1097   1.391   .     A
C1072  C1146   1.542   .     S
C1072  C1391   1.443   .     S
C1073  C1153   1.504   .     S
C1073  N1098   1.387   .     A
C1073  C1708   1.443   1_545 S
C1074  C1160   1.513   .     S
C1074  N1097   1.385   .     A
C1074  C1389   1.443   .     S
C1075  C1080   1.454   .     S
C1075  O1103   1.317   .     A
C1075  O1106   1.306   .     A
C1076  O1104   1.317   .     A
C1076  O1105   1.308   .     A
C1076  C1079   1.457   .     S
C1077  C1087   1.398   .     A
C1077  N1107   1.437   .     S
C1077  C1079   1.407   .     A
C1078  C1088   1.399   .     A
C1078  N1110   1.439   .     S
C1078  C1080   1.407   .     A
C1079  C1081   1.416   .     A
C1080  C1082   1.416   .     A
C1081  C1083   1.417   .     A
C1081  C1113   1.526   .     S
C1082  C1120   1.528   .     S
C1082  C1084   1.416   .     A
C1083  C1089   1.408   .     A
C1083  C1085   1.419   .     A
C1084  C1086   1.420   .     A
C1084  C1090   1.407   .     A
C1085  C1087   1.412   .     A
C1085  C132    1.418   1_556 S
C1086  C1088   1.412   .     A
C1089  H1093   1.079   .     S
C1089  C109    1.385   1_556 S
C1090  H1094   1.079   .     S
Cu1091 O1103   1.979   .     S
Cu1091 Cu1092  2.749   .     S
Cu1091 N1097   2.066   .     S
Cu1091 O1101   1.976   .     S
Cu1091 O1099   1.974   .     S
Cu1091 O1105   1.952   .     S
Cu1092 N1098   2.066   .     S
Cu1092 O1104   1.979   .     S
Cu1092 O1106   1.952   .     S
Cu1092 O1100   1.974   .     S
Cu1092 O1102   1.976   .     S
N1107  H1109   1.040   .     S
N1107  H1108   1.044   .     S
N1110  H1112   1.042   .     S
N1110  H1111   1.045   .     S
C1113  H1119   1.109   .     S
C1113  C1114   1.528   .     S
C1113  H1118   1.103   .     S
C1114  H1116   1.110   .     S
C1114  H1115   1.109   .     S
C1114  H1117   1.111   .     S
C1120  H1126   1.101   .     S
C1120  C1121   1.528   .     S
C1120  H1125   1.109   .     S
C1121  H1124   1.111   .     S
C1121  H1123   1.109   .     S
C1121  H1122   1.111   .     S
N1127  H1128   1.045   .     S
N1127  H1129   1.045   .     S
N1130  H1131   1.043   .     S
N1130  H1132   1.045   .     S
N1133  H1134   1.044   .     S
N1133  H1135   1.041   .     S
N1136  H1137   1.046   .     S
N1136  H1138   1.046   .     S
C1139  H1144   1.080   .     S
C1139  H1145   1.108   .     S
C1139  C1140   1.539   .     S
C1140  H1143   1.110   .     S
C1140  H1142   1.111   .     S
C1140  H1141   1.110   .     S
C1146  H1151   1.073   .     S
C1146  C1147   1.538   .     S
C1146  H1152   1.111   .     S
C1147  H1148   1.109   .     S
C1147  H1149   1.106   .     S
C1147  H1150   1.105   .     S
C1153  C1154   1.547   .     S
C1153  H1159   1.087   .     S
C1153  H1158   1.101   .     S
C1154  H1157   1.109   .     S
C1154  H1156   1.107   .     S
C1154  H1155   1.099   .     S
C1160  H1165   1.087   .     S
C1160  H1166   1.100   .     S
C1160  C1161   1.534   .     S
C1161  H1162   1.109   .     S
C1161  H1163   1.110   .     S
C1161  H1164   1.109   .     S
C1167  C1176   1.457   .     S
C1167  O1205   1.312   .     A
C1167  O1208   1.314   .     A
C1168  O1207   1.315   .     A
C1168  O1206   1.317   .     A
C1168  C1175   1.467   .     S
C1169  C1194   1.401   .     A
C1169  H1201   1.083   .     S
C1170  H1202   1.083   .     S
C1170  C1193   1.401   .     A
C1170  C242    1.384   1_556 S
C1171  N1233   1.438   .     S
C1171  C1176   1.403   .     A
C1172  C1175   1.418   .     A
C1172  N1236   1.438   .     S
C1172  C962    1.395   1_655 S
C1173  C1175   1.419   .     A
C1173  N1239   1.431   .     S
C1173  C959    1.392   1_655 S
C1174  N1242   1.434   .     S
C1174  C1176   1.406   .     A
C1177  N1204   1.386   .     A
C1177  C1245   1.533   .     S
C1177  C1816   1.443   1_545 S
C1178  N1203   1.391   .     A
C1178  C1252   1.542   .     S
C1178  C1497   1.443   .     S
C1179  C1259   1.504   .     S
C1179  N1204   1.387   .     A
C1179  C1814   1.443   1_545 S
C1180  C1266   1.513   .     S
C1180  N1203   1.385   .     A
C1180  C1495   1.443   .     S
C1181  C1186   1.454   .     S
C1181  O1209   1.317   .     A
C1181  O1212   1.306   .     A
C1182  O1210   1.317   .     A
C1182  O1211   1.308   .     A
C1182  C1185   1.457   .     S
C1183  C1193   1.398   .     A
C1183  N1213   1.437   .     S
C1183  C1185   1.407   .     A
C1184  C1194   1.399   .     A
C1184  N1216   1.439   .     S
C1184  C1186   1.407   .     A
C1185  C1187   1.416   .     A
C1186  C1188   1.416   .     A
C1187  C1189   1.417   .     A
C1187  C1219   1.526   .     S
C1188  C1226   1.528   .     S
C1188  C1190   1.416   .     A
C1189  C1195   1.408   .     A
C1189  C1191   1.419   .     A
C1190  C1192   1.420   .     A
C1190  C1196   1.407   .     A
C1191  C1193   1.412   .     A
C1191  C238    1.418   1_556 S
C1192  C1194   1.412   .     A
C1195  H1199   1.079   .     S
C1195  C215    1.385   1_556 S
C1196  H1200   1.079   .     S
Cu1197 O1209   1.979   .     S
Cu1197 Cu1198  2.749   .     S
Cu1197 N1203   2.066   .     S
Cu1197 O1207   1.976   .     S
Cu1197 O1205   1.974   .     S
Cu1197 O1211   1.952   .     S
Cu1198 N1204   2.066   .     S
Cu1198 O1210   1.979   .     S
Cu1198 O1212   1.952   .     S
Cu1198 O1206   1.974   .     S
Cu1198 O1208   1.976   .     S
N1213  H1215   1.040   .     S
N1213  H1214   1.044   .     S
N1216  H1218   1.042   .     S
N1216  H1217   1.045   .     S
C1219  H1225   1.109   .     S
C1219  C1220   1.528   .     S
C1219  H1224   1.103   .     S
C1220  H1222   1.110   .     S
C1220  H1221   1.109   .     S
C1220  H1223   1.111   .     S
C1226  H1232   1.101   .     S
C1226  C1227   1.528   .     S
C1226  H1231   1.109   .     S
C1227  H1230   1.111   .     S
C1227  H1229   1.109   .     S
C1227  H1228   1.111   .     S
N1233  H1234   1.045   .     S
N1233  H1235   1.045   .     S
N1236  H1237   1.043   .     S
N1236  H1238   1.045   .     S
N1239  H1240   1.044   .     S
N1239  H1241   1.041   .     S
N1242  H1243   1.046   .     S
N1242  H1244   1.046   .     S
C1245  H1250   1.080   .     S
C1245  H1251   1.108   .     S
C1245  C1246   1.539   .     S
C1246  H1249   1.110   .     S
C1246  H1248   1.111   .     S
C1246  H1247   1.110   .     S
C1252  H1257   1.073   .     S
C1252  C1253   1.538   .     S
C1252  H1258   1.111   .     S
C1253  H1254   1.109   .     S
C1253  H1255   1.106   .     S
C1253  H1256   1.105   .     S
C1259  C1260   1.547   .     S
C1259  H1265   1.087   .     S
C1259  H1264   1.101   .     S
C1260  H1263   1.109   .     S
C1260  H1262   1.107   .     S
C1260  H1261   1.099   .     S
C1266  H1271   1.087   .     S
C1266  H1272   1.100   .     S
C1266  C1267   1.534   .     S
C1267  H1268   1.109   .     S
C1267  H1269   1.110   .     S
C1267  H1270   1.109   .     S
C1273  C1282   1.457   .     S
C1273  O1311   1.312   .     A
C1273  O1314   1.314   .     A
C1274  O1313   1.315   .     A
C1274  O1312   1.317   .     A
C1274  C1281   1.467   .     S
C1275  C1300   1.401   .     A
C1275  H1307   1.083   .     S
C1276  H1308   1.083   .     S
C1276  C1299   1.401   .     A
C1276  C348    1.384   1_556 S
C1277  N1339   1.438   .     S
C1277  C1282   1.403   .     A
C1277  C1491   1.392   1_455 S
C1278  C1281   1.418   .     A
C1278  N1342   1.438   .     S
C1278  C1386   1.395   .     S
C1279  C1281   1.419   .     A
C1279  N1345   1.431   .     S
C1279  C1383   1.392   .     S
C1280  N1348   1.434   .     S
C1280  C1282   1.406   .     A
C1280  C1490   1.395   1_455 S
C1283  N1310   1.386   .     A
C1283  C1351   1.533   .     S
C1284  N1309   1.391   .     A
C1284  C1358   1.542   .     S
C1284  C1603   1.443   .     S
C1285  C1365   1.504   .     S
C1285  N1310   1.387   .     A
C1286  C1372   1.513   .     S
C1286  N1309   1.385   .     A
C1286  C1601   1.443   .     S
C1287  C1292   1.454   .     S
C1287  O1315   1.317   .     A
C1287  O1318   1.306   .     A
C1288  O1316   1.317   .     A
C1288  O1317   1.308   .     A
C1288  C1291   1.457   .     S
C1289  C1299   1.398   .     A
C1289  N1319   1.437   .     S
C1289  C1291   1.407   .     A
C1290  C1300   1.399   .     A
C1290  N1322   1.439   .     S
C1290  C1292   1.407   .     A
C1291  C1293   1.416   .     A
C1292  C1294   1.416   .     A
C1293  C1295   1.417   .     A
C1293  C1325   1.526   .     S
C1294  C1332   1.528   .     S
C1294  C1296   1.416   .     A
C1295  C1301   1.408   .     A
C1295  C1297   1.419   .     A
C1296  C1298   1.420   .     A
C1296  C1302   1.407   .     A
C1297  C1299   1.412   .     A
C1297  C344    1.418   1_556 S
C1298  C1300   1.412   .     A
C1301  H1305   1.079   .     S
C1301  C321    1.385   1_556 S
C1302  H1306   1.079   .     S
Cu1303 O1315   1.979   .     S
Cu1303 Cu1304  2.749   .     S
Cu1303 N1309   2.066   .     S
Cu1303 O1313   1.976   .     S
Cu1303 O1311   1.974   .     S
Cu1303 O1317   1.952   .     S
Cu1304 N1310   2.066   .     S
Cu1304 O1316   1.979   .     S
Cu1304 O1318   1.952   .     S
Cu1304 O1312   1.974   .     S
Cu1304 O1314   1.976   .     S
N1319  H1321   1.040   .     S
N1319  H1320   1.044   .     S
N1322  H1324   1.042   .     S
N1322  H1323   1.045   .     S
C1325  H1331   1.109   .     S
C1325  C1326   1.528   .     S
C1325  H1330   1.103   .     S
C1326  H1328   1.110   .     S
C1326  H1327   1.109   .     S
C1326  H1329   1.111   .     S
C1332  H1338   1.101   .     S
C1332  C1333   1.528   .     S
C1332  H1337   1.109   .     S
C1333  H1336   1.111   .     S
C1333  H1335   1.109   .     S
C1333  H1334   1.111   .     S
N1339  H1340   1.045   .     S
N1339  H1341   1.045   .     S
N1342  H1343   1.043   .     S
N1342  H1344   1.045   .     S
N1345  H1346   1.044   .     S
N1345  H1347   1.041   .     S
N1348  H1349   1.046   .     S
N1348  H1350   1.046   .     S
C1351  H1356   1.080   .     S
C1351  H1357   1.108   .     S
C1351  C1352   1.539   .     S
C1352  H1355   1.110   .     S
C1352  H1354   1.111   .     S
C1352  H1353   1.110   .     S
C1358  H1363   1.073   .     S
C1358  C1359   1.538   .     S
C1358  H1364   1.111   .     S
C1359  H1360   1.109   .     S
C1359  H1361   1.106   .     S
C1359  H1362   1.105   .     S
C1365  C1366   1.547   .     S
C1365  H1371   1.087   .     S
C1365  H1370   1.101   .     S
C1366  H1369   1.109   .     S
C1366  H1368   1.107   .     S
C1366  H1367   1.099   .     S
C1372  H1377   1.087   .     S
C1372  H1378   1.100   .     S
C1372  C1373   1.534   .     S
C1373  H1374   1.109   .     S
C1373  H1375   1.110   .     S
C1373  H1376   1.109   .     S
C1379  C1388   1.457   .     S
C1379  O1417   1.312   .     A
C1379  O1420   1.314   .     A
C1380  O1419   1.315   .     A
C1380  O1418   1.317   .     A
C1380  C1387   1.467   .     S
C1381  C1406   1.401   .     A
C1381  H1413   1.083   .     S
C1382  H1414   1.083   .     S
C1382  C1405   1.401   .     A
C1382  C454    1.384   1_556 S
C1383  N1445   1.438   .     S
C1383  C1388   1.403   .     A
C1384  C1387   1.418   .     A
C1384  N1448   1.438   .     S
C1384  C1492   1.395   .     S
C1385  C1387   1.419   .     A
C1385  N1451   1.431   .     S
C1385  C1489   1.392   .     S
C1386  N1454   1.434   .     S
C1386  C1388   1.406   .     A
C1389  N1416   1.386   .     A
C1389  C1457   1.533   .     S
C1390  N1415   1.391   .     A
C1390  C1464   1.542   .     S
C1390  C1709   1.443   .     S
C1391  C1471   1.504   .     S
C1391  N1416   1.387   .     A
C1392  C1478   1.513   .     S
C1392  N1415   1.385   .     A
C1392  C1707   1.443   .     S
C1393  C1398   1.454   .     S
C1393  O1421   1.317   .     A
C1393  O1424   1.306   .     A
C1394  O1422   1.317   .     A
C1394  O1423   1.308   .     A
C1394  C1397   1.457   .     S
C1395  C1405   1.398   .     A
C1395  N1425   1.437   .     S
C1395  C1397   1.407   .     A
C1396  C1406   1.399   .     A
C1396  N1428   1.439   .     S
C1396  C1398   1.407   .     A
C1397  C1399   1.416   .     A
C1398  C1400   1.416   .     A
C1399  C1401   1.417   .     A
C1399  C1431   1.526   .     S
C1400  C1438   1.528   .     S
C1400  C1402   1.416   .     A
C1401  C1407   1.408   .     A
C1401  C1403   1.419   .     A
C1402  C1404   1.420   .     A
C1402  C1408   1.407   .     A
C1403  C1405   1.412   .     A
C1403  C450    1.418   1_556 S
C1404  C1406   1.412   .     A
C1407  H1411   1.079   .     S
C1407  C427    1.385   1_556 S
C1408  H1412   1.079   .     S
Cu1409 O1421   1.979   .     S
Cu1409 Cu1410  2.749   .     S
Cu1409 N1415   2.066   .     S
Cu1409 O1419   1.976   .     S
Cu1409 O1417   1.974   .     S
Cu1409 O1423   1.952   .     S
Cu1410 N1416   2.066   .     S
Cu1410 O1422   1.979   .     S
Cu1410 O1424   1.952   .     S
Cu1410 O1418   1.974   .     S
Cu1410 O1420   1.976   .     S
N1425  H1427   1.040   .     S
N1425  H1426   1.044   .     S
N1428  H1430   1.042   .     S
N1428  H1429   1.045   .     S
C1431  H1437   1.109   .     S
C1431  C1432   1.528   .     S
C1431  H1436   1.103   .     S
C1432  H1434   1.110   .     S
C1432  H1433   1.109   .     S
C1432  H1435   1.111   .     S
C1438  H1444   1.101   .     S
C1438  C1439   1.528   .     S
C1438  H1443   1.109   .     S
C1439  H1442   1.111   .     S
C1439  H1441   1.109   .     S
C1439  H1440   1.111   .     S
N1445  H1446   1.045   .     S
N1445  H1447   1.045   .     S
N1448  H1449   1.043   .     S
N1448  H1450   1.045   .     S
N1451  H1452   1.044   .     S
N1451  H1453   1.041   .     S
N1454  H1455   1.046   .     S
N1454  H1456   1.046   .     S
C1457  H1462   1.080   .     S
C1457  H1463   1.108   .     S
C1457  C1458   1.539   .     S
C1458  H1461   1.110   .     S
C1458  H1460   1.111   .     S
C1458  H1459   1.110   .     S
C1464  H1469   1.073   .     S
C1464  C1465   1.538   .     S
C1464  H1470   1.111   .     S
C1465  H1466   1.109   .     S
C1465  H1467   1.106   .     S
C1465  H1468   1.105   .     S
C1471  C1472   1.547   .     S
C1471  H1477   1.087   .     S
C1471  H1476   1.101   .     S
C1472  H1475   1.109   .     S
C1472  H1474   1.107   .     S
C1472  H1473   1.099   .     S
C1478  H1483   1.087   .     S
C1478  H1484   1.100   .     S
C1478  C1479   1.534   .     S
C1479  H1480   1.109   .     S
C1479  H1481   1.110   .     S
C1479  H1482   1.109   .     S
C1485  C1494   1.457   .     S
C1485  O1523   1.312   .     A
C1485  O1526   1.314   .     A
C1486  O1525   1.315   .     A
C1486  O1524   1.317   .     A
C1486  C1493   1.467   .     S
C1487  C1512   1.401   .     A
C1487  H1519   1.083   .     S
C1488  H1520   1.083   .     S
C1488  C1511   1.401   .     A
C1488  C560    1.384   1_556 S
C1489  N1551   1.438   .     S
C1489  C1494   1.403   .     A
C1490  C1493   1.418   .     A
C1490  N1554   1.438   .     S
C1490  C1280   1.395   1_655 S
C1491  C1493   1.419   .     A
C1491  N1557   1.431   .     S
C1491  C1277   1.392   1_655 S
C1492  N1560   1.434   .     S
C1492  C1494   1.406   .     A
C1495  N1522   1.386   .     A
C1495  C1563   1.533   .     S
C1496  N1521   1.391   .     A
C1496  C1570   1.542   .     S
C1496  C1815   1.443   .     S
C1497  C1577   1.504   .     S
C1497  N1522   1.387   .     A
C1498  C1584   1.513   .     S
C1498  N1521   1.385   .     A
C1498  C1813   1.443   .     S
C1499  C1504   1.454   .     S
C1499  O1527   1.317   .     A
C1499  O1530   1.306   .     A
C1500  O1528   1.317   .     A
C1500  O1529   1.308   .     A
C1500  C1503   1.457   .     S
C1501  C1511   1.398   .     A
C1501  N1531   1.437   .     S
C1501  C1503   1.407   .     A
C1502  C1512   1.399   .     A
C1502  N1534   1.439   .     S
C1502  C1504   1.407   .     A
C1503  C1505   1.416   .     A
C1504  C1506   1.416   .     A
C1505  C1507   1.417   .     A
C1505  C1537   1.526   .     S
C1506  C1544   1.528   .     S
C1506  C1508   1.416   .     A
C1507  C1513   1.408   .     A
C1507  C1509   1.419   .     A
C1508  C1510   1.420   .     A
C1508  C1514   1.407   .     A
C1509  C1511   1.412   .     A
C1509  C556    1.418   1_556 S
C1510  C1512   1.412   .     A
C1513  H1517   1.079   .     S
C1513  C533    1.385   1_556 S
C1514  H1518   1.079   .     S
Cu1515 O1527   1.979   .     S
Cu1515 Cu1516  2.749   .     S
Cu1515 N1521   2.066   .     S
Cu1515 O1525   1.976   .     S
Cu1515 O1523   1.974   .     S
Cu1515 O1529   1.952   .     S
Cu1516 N1522   2.066   .     S
Cu1516 O1528   1.979   .     S
Cu1516 O1530   1.952   .     S
Cu1516 O1524   1.974   .     S
Cu1516 O1526   1.976   .     S
N1531  H1533   1.040   .     S
N1531  H1532   1.044   .     S
N1534  H1536   1.042   .     S
N1534  H1535   1.045   .     S
C1537  H1543   1.109   .     S
C1537  C1538   1.528   .     S
C1537  H1542   1.103   .     S
C1538  H1540   1.110   .     S
C1538  H1539   1.109   .     S
C1538  H1541   1.111   .     S
C1544  H1550   1.101   .     S
C1544  C1545   1.528   .     S
C1544  H1549   1.109   .     S
C1545  H1548   1.111   .     S
C1545  H1547   1.109   .     S
C1545  H1546   1.111   .     S
N1551  H1552   1.045   .     S
N1551  H1553   1.045   .     S
N1554  H1555   1.043   .     S
N1554  H1556   1.045   .     S
N1557  H1558   1.044   .     S
N1557  H1559   1.041   .     S
N1560  H1561   1.046   .     S
N1560  H1562   1.046   .     S
C1563  H1568   1.080   .     S
C1563  H1569   1.108   .     S
C1563  C1564   1.539   .     S
C1564  H1567   1.110   .     S
C1564  H1566   1.111   .     S
C1564  H1565   1.110   .     S
C1570  H1575   1.073   .     S
C1570  C1571   1.538   .     S
C1570  H1576   1.111   .     S
C1571  H1572   1.109   .     S
C1571  H1573   1.106   .     S
C1571  H1574   1.105   .     S
C1577  C1578   1.547   .     S
C1577  H1583   1.087   .     S
C1577  H1582   1.101   .     S
C1578  H1581   1.109   .     S
C1578  H1580   1.107   .     S
C1578  H1579   1.099   .     S
C1584  H1589   1.087   .     S
C1584  H1590   1.100   .     S
C1584  C1585   1.534   .     S
C1585  H1586   1.109   .     S
C1585  H1587   1.110   .     S
C1585  H1588   1.109   .     S
C1591  C1600   1.457   .     S
C1591  O1629   1.312   .     A
C1591  O1632   1.314   .     A
C1592  O1631   1.315   .     A
C1592  O1630   1.317   .     A
C1592  C1599   1.467   .     S
C1593  C1618   1.401   .     A
C1593  H1625   1.083   .     S
C1594  H1626   1.083   .     S
C1594  C1617   1.401   .     A
C1594  C666    1.384   1_556 S
C1595  N1657   1.438   .     S
C1595  C1600   1.403   .     A
C1595  C1809   1.392   1_455 S
C1596  C1599   1.418   .     A
C1596  N1660   1.438   .     S
C1596  C1704   1.395   .     S
C1597  C1599   1.419   .     A
C1597  N1663   1.431   .     S
C1597  C1701   1.392   .     S
C1598  N1666   1.434   .     S
C1598  C1600   1.406   .     A
C1598  C1808   1.395   1_455 S
C1601  N1628   1.386   .     A
C1601  C1669   1.533   .     S
C1602  N1627   1.391   .     A
C1602  C1676   1.542   .     S
C1602  C967    1.443   1_565 S
C1603  C1683   1.504   .     S
C1603  N1628   1.387   .     A
C1604  C1690   1.513   .     S
C1604  N1627   1.385   .     A
C1604  C965    1.443   1_565 S
C1605  C1610   1.454   .     S
C1605  O1633   1.317   .     A
C1605  O1636   1.306   .     A
C1606  O1634   1.317   .     A
C1606  O1635   1.308   .     A
C1606  C1609   1.457   .     S
C1607  C1617   1.398   .     A
C1607  N1637   1.437   .     S
C1607  C1609   1.407   .     A
C1608  C1618   1.399   .     A
C1608  N1640   1.439   .     S
C1608  C1610   1.407   .     A
C1609  C1611   1.416   .     A
C1610  C1612   1.416   .     A
C1611  C1613   1.417   .     A
C1611  C1643   1.526   .     S
C1612  C1650   1.528   .     S
C1612  C1614   1.416   .     A
C1613  C1619   1.408   .     A
C1613  C1615   1.419   .     A
C1614  C1616   1.420   .     A
C1614  C1620   1.407   .     A
C1615  C1617   1.412   .     A
C1615  C662    1.418   1_556 S
C1616  C1618   1.412   .     A
C1619  H1623   1.079   .     S
C1619  C639    1.385   1_556 S
C1620  H1624   1.079   .     S
Cu1621 O1633   1.979   .     S
Cu1621 Cu1622  2.749   .     S
Cu1621 N1627   2.066   .     S
Cu1621 O1631   1.976   .     S
Cu1621 O1629   1.974   .     S
Cu1621 O1635   1.952   .     S
Cu1622 N1628   2.066   .     S
Cu1622 O1634   1.979   .     S
Cu1622 O1636   1.952   .     S
Cu1622 O1630   1.974   .     S
Cu1622 O1632   1.976   .     S
N1637  H1639   1.040   .     S
N1637  H1638   1.044   .     S
N1640  H1642   1.042   .     S
N1640  H1641   1.045   .     S
C1643  H1649   1.109   .     S
C1643  C1644   1.528   .     S
C1643  H1648   1.103   .     S
C1644  H1646   1.110   .     S
C1644  H1645   1.109   .     S
C1644  H1647   1.111   .     S
C1650  H1656   1.101   .     S
C1650  C1651   1.528   .     S
C1650  H1655   1.109   .     S
C1651  H1654   1.111   .     S
C1651  H1653   1.109   .     S
C1651  H1652   1.111   .     S
N1657  H1658   1.045   .     S
N1657  H1659   1.045   .     S
N1660  H1661   1.043   .     S
N1660  H1662   1.045   .     S
N1663  H1664   1.044   .     S
N1663  H1665   1.041   .     S
N1666  H1667   1.046   .     S
N1666  H1668   1.046   .     S
C1669  H1674   1.080   .     S
C1669  H1675   1.108   .     S
C1669  C1670   1.539   .     S
C1670  H1673   1.110   .     S
C1670  H1672   1.111   .     S
C1670  H1671   1.110   .     S
C1676  H1681   1.073   .     S
C1676  C1677   1.538   .     S
C1676  H1682   1.111   .     S
C1677  H1678   1.109   .     S
C1677  H1679   1.106   .     S
C1677  H1680   1.105   .     S
C1683  C1684   1.547   .     S
C1683  H1689   1.087   .     S
C1683  H1688   1.101   .     S
C1684  H1687   1.109   .     S
C1684  H1686   1.107   .     S
C1684  H1685   1.099   .     S
C1690  H1695   1.087   .     S
C1690  H1696   1.100   .     S
C1690  C1691   1.534   .     S
C1691  H1692   1.109   .     S
C1691  H1693   1.110   .     S
C1691  H1694   1.109   .     S
C1697  C1706   1.457   .     S
C1697  O1735   1.312   .     A
C1697  O1738   1.314   .     A
C1698  O1737   1.315   .     A
C1698  O1736   1.317   .     A
C1698  C1705   1.467   .     S
C1699  C1724   1.401   .     A
C1699  H1731   1.083   .     S
C1700  H1732   1.083   .     S
C1700  C1723   1.401   .     A
C1700  C772    1.384   1_556 S
C1701  N1763   1.438   .     S
C1701  C1706   1.403   .     A
C1702  C1705   1.418   .     A
C1702  N1766   1.438   .     S
C1702  C1810   1.395   .     S
C1703  C1705   1.419   .     A
C1703  N1769   1.431   .     S
C1703  C1807   1.392   .     S
C1704  N1772   1.434   .     S
C1704  C1706   1.406   .     A
C1707  N1734   1.386   .     A
C1707  C1775   1.533   .     S
C1708  N1733   1.391   .     A
C1708  C1782   1.542   .     S
C1708  C1073   1.443   1_565 S
C1709  C1789   1.504   .     S
C1709  N1734   1.387   .     A
C1710  C1796   1.513   .     S
C1710  N1733   1.385   .     A
C1710  C1071   1.443   1_565 S
C1711  C1716   1.454   .     S
C1711  O1739   1.317   .     A
C1711  O1742   1.306   .     A
C1712  O1740   1.317   .     A
C1712  O1741   1.308   .     A
C1712  C1715   1.457   .     S
C1713  C1723   1.398   .     A
C1713  N1743   1.437   .     S
C1713  C1715   1.407   .     A
C1714  C1724   1.399   .     A
C1714  N1746   1.439   .     S
C1714  C1716   1.407   .     A
C1715  C1717   1.416   .     A
C1716  C1718   1.416   .     A
C1717  C1719   1.417   .     A
C1717  C1749   1.526   .     S
C1718  C1756   1.528   .     S
C1718  C1720   1.416   .     A
C1719  C1725   1.408   .     A
C1719  C1721   1.419   .     A
C1720  C1722   1.420   .     A
C1720  C1726   1.407   .     A
C1721  C1723   1.412   .     A
C1721  C768    1.418   1_556 S
C1722  C1724   1.412   .     A
C1725  H1729   1.079   .     S
C1725  C745    1.385   1_556 S
C1726  H1730   1.079   .     S
Cu1727 O1739   1.979   .     S
Cu1727 Cu1728  2.749   .     S
Cu1727 N1733   2.066   .     S
Cu1727 O1737   1.976   .     S
Cu1727 O1735   1.974   .     S
Cu1727 O1741   1.952   .     S
Cu1728 N1734   2.066   .     S
Cu1728 O1740   1.979   .     S
Cu1728 O1742   1.952   .     S
Cu1728 O1736   1.974   .     S
Cu1728 O1738   1.976   .     S
N1743  H1745   1.040   .     S
N1743  H1744   1.044   .     S
N1746  H1748   1.042   .     S
N1746  H1747   1.045   .     S
C1749  H1755   1.109   .     S
C1749  C1750   1.528   .     S
C1749  H1754   1.103   .     S
C1750  H1752   1.110   .     S
C1750  H1751   1.109   .     S
C1750  H1753   1.111   .     S
C1756  H1762   1.101   .     S
C1756  C1757   1.528   .     S
C1756  H1761   1.109   .     S
C1757  H1760   1.111   .     S
C1757  H1759   1.109   .     S
C1757  H1758   1.111   .     S
N1763  H1764   1.045   .     S
N1763  H1765   1.045   .     S
N1766  H1767   1.043   .     S
N1766  H1768   1.045   .     S
N1769  H1770   1.044   .     S
N1769  H1771   1.041   .     S
N1772  H1773   1.046   .     S
N1772  H1774   1.046   .     S
C1775  H1780   1.080   .     S
C1775  H1781   1.108   .     S
C1775  C1776   1.539   .     S
C1776  H1779   1.110   .     S
C1776  H1778   1.111   .     S
C1776  H1777   1.110   .     S
C1782  H1787   1.073   .     S
C1782  C1783   1.538   .     S
C1782  H1788   1.111   .     S
C1783  H1784   1.109   .     S
C1783  H1785   1.106   .     S
C1783  H1786   1.105   .     S
C1789  C1790   1.547   .     S
C1789  H1795   1.087   .     S
C1789  H1794   1.101   .     S
C1790  H1793   1.109   .     S
C1790  H1792   1.107   .     S
C1790  H1791   1.099   .     S
C1796  H1801   1.087   .     S
C1796  H1802   1.100   .     S
C1796  C1797   1.534   .     S
C1797  H1798   1.109   .     S
C1797  H1799   1.110   .     S
C1797  H1800   1.109   .     S
C1803  C1812   1.457   .     S
C1803  O1841   1.312   .     A
C1803  O1844   1.314   .     A
C1804  O1843   1.315   .     A
C1804  O1842   1.317   .     A
C1804  C1811   1.467   .     S
C1805  C1830   1.401   .     A
C1805  H1837   1.083   .     S
C1806  H1838   1.083   .     S
C1806  C1829   1.401   .     A
C1806  C878    1.384   1_556 S
C1807  N1869   1.438   .     S
C1807  C1812   1.403   .     A
C1808  C1811   1.418   .     A
C1808  N1872   1.438   .     S
C1808  C1598   1.395   1_655 S
C1809  C1811   1.419   .     A
C1809  N1875   1.431   .     S
C1809  C1595   1.392   1_655 S
C1810  N1878   1.434   .     S
C1810  C1812   1.406   .     A
C1813  N1840   1.386   .     A
C1813  C1881   1.533   .     S
C1814  N1839   1.391   .     A
C1814  C1888   1.542   .     S
C1814  C1179   1.443   1_565 S
C1815  C1895   1.504   .     S
C1815  N1840   1.387   .     A
C1816  C1902   1.513   .     S
C1816  N1839   1.385   .     A
C1816  C1177   1.443   1_565 S
C1817  C1822   1.454   .     S
C1817  O1845   1.317   .     A
C1817  O1848   1.306   .     A
C1818  O1846   1.317   .     A
C1818  O1847   1.308   .     A
C1818  C1821   1.457   .     S
C1819  C1829   1.398   .     A
C1819  N1849   1.437   .     S
C1819  C1821   1.407   .     A
C1820  C1830   1.399   .     A
C1820  N1852   1.439   .     S
C1820  C1822   1.407   .     A
C1821  C1823   1.416   .     A
C1822  C1824   1.416   .     A
C1823  C1825   1.417   .     A
C1823  C1855   1.526   .     S
C1824  C1862   1.528   .     S
C1824  C1826   1.416   .     A
C1825  C1831   1.408   .     A
C1825  C1827   1.419   .     A
C1826  C1828   1.420   .     A
C1826  C1832   1.407   .     A
C1827  C1829   1.412   .     A
C1827  C874    1.418   1_556 S
C1828  C1830   1.412   .     A
C1831  H1835   1.079   .     S
C1831  C851    1.385   1_556 S
C1832  H1836   1.079   .     S
Cu1833 O1845   1.979   .     S
Cu1833 Cu1834  2.749   .     S
Cu1833 N1839   2.066   .     S
Cu1833 O1843   1.976   .     S
Cu1833 O1841   1.974   .     S
Cu1833 O1847   1.952   .     S
Cu1834 N1840   2.066   .     S
Cu1834 O1846   1.979   .     S
Cu1834 O1848   1.952   .     S
Cu1834 O1842   1.974   .     S
Cu1834 O1844   1.976   .     S
N1849  H1851   1.040   .     S
N1849  H1850   1.044   .     S
N1852  H1854   1.042   .     S
N1852  H1853   1.045   .     S
C1855  H1861   1.109   .     S
C1855  C1856   1.528   .     S
C1855  H1860   1.103   .     S
C1856  H1858   1.110   .     S
C1856  H1857   1.109   .     S
C1856  H1859   1.111   .     S
C1862  H1868   1.101   .     S
C1862  C1863   1.528   .     S
C1862  H1867   1.109   .     S
C1863  H1866   1.111   .     S
C1863  H1865   1.109   .     S
C1863  H1864   1.111   .     S
N1869  H1870   1.045   .     S
N1869  H1871   1.045   .     S
N1872  H1873   1.043   .     S
N1872  H1874   1.045   .     S
N1875  H1876   1.044   .     S
N1875  H1877   1.041   .     S
N1878  H1879   1.046   .     S
N1878  H1880   1.046   .     S
C1881  H1886   1.080   .     S
C1881  H1887   1.108   .     S
C1881  C1882   1.539   .     S
C1882  H1885   1.110   .     S
C1882  H1884   1.111   .     S
C1882  H1883   1.110   .     S
C1888  H1893   1.073   .     S
C1888  C1889   1.538   .     S
C1888  H1894   1.111   .     S
C1889  H1890   1.109   .     S
C1889  H1891   1.106   .     S
C1889  H1892   1.105   .     S
C1895  C1896   1.547   .     S
C1895  H1901   1.087   .     S
C1895  H1900   1.101   .     S
C1896  H1899   1.109   .     S
C1896  H1898   1.107   .     S
C1896  H1897   1.099   .     S
C1902  H1907   1.087   .     S
C1902  H1908   1.100   .     S
C1902  C1903   1.534   .     S
C1903  H1904   1.109   .     S
C1903  H1905   1.110   .     S
C1903  H1906   1.109   .     S
