data_str_m2_o1_o18_pcu_sym.86
_audit_creation_date              2020-01-03
_audit_creation_method            'Materials Studio'
_symmetry_space_group_name_H-M    'P1'
_symmetry_Int_Tables_number       1
_symmetry_cell_setting            triclinic
loop_
_symmetry_equiv_pos_as_xyz
  x,y,z
_cell_length_a                    28.6927
_cell_length_b                    32.3725
_cell_length_c                    30.8989
_cell_angle_alpha                 89.0923
_cell_angle_beta                  74.4676
_cell_angle_gamma                 89.7998
loop_
_atom_site_label
_atom_site_type_symbol
_atom_site_fract_x
_atom_site_fract_y
_atom_site_fract_z
_atom_site_U_iso_or_equiv
_atom_site_adp_type
_atom_site_occupancy
C1     C     0.33303   0.08746   0.25109   0.00000  Uiso   1.00
C2     C     0.03897   0.02248   0.22329   0.00000  Uiso   1.00
C3     C     0.00040   0.29051   0.24853   0.00000  Uiso   1.00
C4     C     0.33293   0.04283   0.25147   0.00000  Uiso   1.00
C5     C     0.18387   0.14051   0.27757   0.00000  Uiso   1.00
C6     C     0.14947   0.19282   0.22243   0.00000  Uiso   1.00
C7     C     0.13449   0.14034   0.27766   0.00000  Uiso   1.00
C8     C     0.19884   0.19299   0.22234   0.00000  Uiso   1.00
C9     C     0.30611   0.16618   0.33610   0.00000  Uiso   1.00
C10    C     0.02722   0.16715   0.16390   0.00000  Uiso   1.00
C11    C     0.29095   0.16266   0.38529   0.00000  Uiso   1.00
C12    C     0.00031   0.24587   0.24891   0.00000  Uiso   1.00
C13    C     0.04238   0.17067   0.11471   0.00000  Uiso   1.00
C14    C     0.30575   0.14292   0.45615   0.00000  Uiso   1.00
C15    C     0.02758   0.19042   0.04385   0.00000  Uiso   1.00
C16    C     0.32235   0.14793   0.40970   0.00000  Uiso   1.00
C17    C     0.01098   0.18541   0.09030   0.00000  Uiso   1.00
C18    C     0.24296   0.17163   0.40774   0.00000  Uiso   1.00
C19    C     0.09037   0.16171   0.09226   0.00000  Uiso   1.00
C20    C     0.22398   0.16217   0.45355   0.00000  Uiso   1.00
C21    C     0.10936   0.17117   0.04645   0.00000  Uiso   1.00
C22    C     0.25716   0.15095   0.47829   0.00000  Uiso   1.00
C23    C     0.19609   0.16356   0.04742   0.00000  Uiso   1.00
C24    C     0.07617   0.18239   0.02171   0.00000  Uiso   1.00
C25    C     0.17383   0.16640   0.47597   0.00000  Uiso   1.00
C26    C     0.15950   0.16694   0.02403   0.00000  Uiso   1.00
C27    C     0.13725   0.16978   0.45258   0.00000  Uiso   1.00
C28    C     0.24270   0.15156   0.02490   0.00000  Uiso   1.00
C29    C     0.09064   0.18177   0.47510   0.00000  Uiso   1.00
C30    C     0.29381   0.02028   0.27862   0.00000  Uiso   1.00
C31    C     0.03953   0.31305   0.22138   0.00000  Uiso   1.00
C32    C     0.29437   0.31085   0.27671   0.00000  Uiso   1.00
Cl33   Cl    0.19028   0.18218   0.10204   0.00000  Uiso   1.00
Cl34   Cl    0.14305   0.15116   0.39796   0.00000  Uiso   1.00
Cl35   Cl    0.24500   0.04400   0.31734   0.00000  Uiso   1.00
Cl36   Cl    0.08833   0.28934   0.18266   0.00000  Uiso   1.00
Cl37   Cl    0.09633   0.10511   0.31415   0.00000  Uiso   1.00
Cl38   Cl    0.23701   0.22822   0.18585   0.00000  Uiso   1.00
Cu39   Cu    0.04689   0.16667   0.25000   0.00000  Uiso   1.00
Cu40   Cu    0.28645   0.16666   0.25000   0.00000  Uiso   1.00
H41    H     0.26915   0.14671   0.04380   0.00000  Uiso   1.00
H42    H     0.06876   0.03995   0.20192   0.00000  Uiso   1.00
H43    H     0.19640   0.11969   0.29971   0.00000  Uiso   1.00
H44    H     0.13693   0.21364   0.20029   0.00000  Uiso   1.00
H45    H     0.06419   0.18662   0.45620   0.00000  Uiso   1.00
H46    H     0.11181   0.14542   0.11077   0.00000  Uiso   1.00
H47    H     0.22152   0.18791   0.38923   0.00000  Uiso   1.00
H48    H     0.30699   0.19248   0.10689   0.00000  Uiso   1.00
H49    H     0.02635   0.14085   0.39311   0.00000  Uiso   1.00
H50    H     0.33096   0.13317   0.47487   0.00000  Uiso   1.00
H51    H     0.00237   0.20017   0.02513   0.00000  Uiso   1.00
H52    H     0.26457   0.29339   0.29808   0.00000  Uiso   1.00
N53    N     0.11736   0.16668   0.24999   0.00000  Uiso   1.00
N54    N     0.21597   0.16666   0.25001   0.00000  Uiso   1.00
O55    O     0.03958   0.10655   0.25000   0.00000  Uiso   1.00
O56    O     0.29375   0.22678   0.25000   0.00000  Uiso   1.00
O57    O     0.29372   0.10654   0.25000   0.00000  Uiso   1.00
O58    O     0.03961   0.22679   0.24999   0.00000  Uiso   1.00
O59    O     0.01852   0.16668   0.31491   0.00000  Uiso   1.00
O60    O     0.31481   0.16666   0.18508   0.00000  Uiso   1.00
O61    O     0.27267   0.16667   0.31492   0.00000  Uiso   1.00
O62    O     0.06067   0.16667   0.18508   0.00000  Uiso   1.00
C63    C     0.66636   0.08746   0.25109   0.00000  Uiso   1.00
C64    C     0.37230   0.02248   0.22329   0.00000  Uiso   1.00
C65    C     0.33373   0.29051   0.24853   0.00000  Uiso   1.00
C66    C     0.66627   0.04283   0.25147   0.00000  Uiso   1.00
C67    C     0.51720   0.14051   0.27757   0.00000  Uiso   1.00
C68    C     0.48280   0.19282   0.22243   0.00000  Uiso   1.00
C69    C     0.46782   0.14034   0.27766   0.00000  Uiso   1.00
C70    C     0.53218   0.19299   0.22234   0.00000  Uiso   1.00
C71    C     0.63944   0.16618   0.33610   0.00000  Uiso   1.00
C72    C     0.36056   0.16715   0.16390   0.00000  Uiso   1.00
C73    C     0.62428   0.16266   0.38529   0.00000  Uiso   1.00
C74    C     0.33364   0.24587   0.24891   0.00000  Uiso   1.00
C75    C     0.37572   0.17067   0.11471   0.00000  Uiso   1.00
C76    C     0.63909   0.14292   0.45615   0.00000  Uiso   1.00
C77    C     0.36091   0.19042   0.04385   0.00000  Uiso   1.00
C78    C     0.65569   0.14793   0.40970   0.00000  Uiso   1.00
C79    C     0.34431   0.18541   0.09030   0.00000  Uiso   1.00
C80    C     0.57629   0.17163   0.40774   0.00000  Uiso   1.00
C81    C     0.42371   0.16171   0.09226   0.00000  Uiso   1.00
C82    C     0.55731   0.16217   0.45355   0.00000  Uiso   1.00
C83    C     0.44269   0.17117   0.04645   0.00000  Uiso   1.00
C84    C     0.59050   0.15095   0.47829   0.00000  Uiso   1.00
C85    C     0.52942   0.16356   0.04742   0.00000  Uiso   1.00
C86    C     0.40950   0.18239   0.02171   0.00000  Uiso   1.00
C87    C     0.50716   0.16640   0.47597   0.00000  Uiso   1.00
C88    C     0.49284   0.16694   0.02403   0.00000  Uiso   1.00
C89    C     0.47058   0.16978   0.45258   0.00000  Uiso   1.00
C90    C     0.57603   0.15156   0.02490   0.00000  Uiso   1.00
C91    C     0.42397   0.18177   0.47510   0.00000  Uiso   1.00
C92    C     0.62714   0.02028   0.27862   0.00000  Uiso   1.00
C93    C     0.37286   0.31305   0.22138   0.00000  Uiso   1.00
C94    C     0.62770   0.31085   0.27671   0.00000  Uiso   1.00
Cl95   Cl    0.52362   0.18218   0.10204   0.00000  Uiso   1.00
Cl96   Cl    0.47638   0.15116   0.39796   0.00000  Uiso   1.00
Cl97   Cl    0.57833   0.04400   0.31734   0.00000  Uiso   1.00
Cl98   Cl    0.42167   0.28934   0.18266   0.00000  Uiso   1.00
Cl99   Cl    0.42966   0.10511   0.31415   0.00000  Uiso   1.00
Cl100  Cl    0.57034   0.22822   0.18585   0.00000  Uiso   1.00
Cu101  Cu    0.38022   0.16667   0.25000   0.00000  Uiso   1.00
Cu102  Cu    0.61978   0.16666   0.25000   0.00000  Uiso   1.00
H103   H     0.60248   0.14671   0.04380   0.00000  Uiso   1.00
H104   H     0.40210   0.03995   0.20192   0.00000  Uiso   1.00
H105   H     0.52973   0.11969   0.29971   0.00000  Uiso   1.00
H106   H     0.47027   0.21364   0.20029   0.00000  Uiso   1.00
H107   H     0.39752   0.18662   0.45620   0.00000  Uiso   1.00
H108   H     0.44514   0.14542   0.11077   0.00000  Uiso   1.00
H109   H     0.55486   0.18791   0.38923   0.00000  Uiso   1.00
H110   H     0.64032   0.19248   0.10689   0.00000  Uiso   1.00
H111   H     0.35968   0.14085   0.39311   0.00000  Uiso   1.00
H112   H     0.66430   0.13317   0.47487   0.00000  Uiso   1.00
H113   H     0.33570   0.20017   0.02513   0.00000  Uiso   1.00
H114   H     0.59790   0.29339   0.29808   0.00000  Uiso   1.00
N115   N     0.45069   0.16668   0.24999   0.00000  Uiso   1.00
N116   N     0.54931   0.16666   0.25001   0.00000  Uiso   1.00
O117   O     0.37291   0.10655   0.25000   0.00000  Uiso   1.00
O118   O     0.62709   0.22678   0.25000   0.00000  Uiso   1.00
O119   O     0.62706   0.10654   0.25000   0.00000  Uiso   1.00
O120   O     0.37294   0.22679   0.24999   0.00000  Uiso   1.00
O121   O     0.35186   0.16668   0.31491   0.00000  Uiso   1.00
O122   O     0.64814   0.16666   0.18508   0.00000  Uiso   1.00
O123   O     0.60600   0.16667   0.31492   0.00000  Uiso   1.00
O124   O     0.39400   0.16667   0.18508   0.00000  Uiso   1.00
C125   C     0.99969   0.08746   0.25109   0.00000  Uiso   1.00
C126   C     0.70563   0.02248   0.22329   0.00000  Uiso   1.00
C127   C     0.66707   0.29051   0.24853   0.00000  Uiso   1.00
C128   C     0.99960   0.04283   0.25147   0.00000  Uiso   1.00
C129   C     0.85054   0.14051   0.27757   0.00000  Uiso   1.00
C130   C     0.81613   0.19282   0.22243   0.00000  Uiso   1.00
C131   C     0.80116   0.14034   0.27766   0.00000  Uiso   1.00
C132   C     0.86551   0.19299   0.22234   0.00000  Uiso   1.00
C133   C     0.97278   0.16618   0.33610   0.00000  Uiso   1.00
C134   C     0.69389   0.16715   0.16390   0.00000  Uiso   1.00
C135   C     0.95762   0.16266   0.38529   0.00000  Uiso   1.00
C136   C     0.66697   0.24587   0.24891   0.00000  Uiso   1.00
C137   C     0.70905   0.17067   0.11471   0.00000  Uiso   1.00
C138   C     0.97242   0.14292   0.45615   0.00000  Uiso   1.00
C139   C     0.69425   0.19042   0.04385   0.00000  Uiso   1.00
C140   C     0.98902   0.14793   0.40970   0.00000  Uiso   1.00
C141   C     0.67765   0.18541   0.09030   0.00000  Uiso   1.00
C142   C     0.90963   0.17163   0.40774   0.00000  Uiso   1.00
C143   C     0.75704   0.16171   0.09226   0.00000  Uiso   1.00
C144   C     0.89064   0.16217   0.45355   0.00000  Uiso   1.00
C145   C     0.77602   0.17117   0.04645   0.00000  Uiso   1.00
C146   C     0.92383   0.15095   0.47829   0.00000  Uiso   1.00
C147   C     0.86275   0.16356   0.04742   0.00000  Uiso   1.00
C148   C     0.74284   0.18239   0.02171   0.00000  Uiso   1.00
C149   C     0.84050   0.16640   0.47597   0.00000  Uiso   1.00
C150   C     0.82617   0.16694   0.02403   0.00000  Uiso   1.00
C151   C     0.80391   0.16978   0.45258   0.00000  Uiso   1.00
C152   C     0.90936   0.15156   0.02490   0.00000  Uiso   1.00
C153   C     0.75730   0.18177   0.47510   0.00000  Uiso   1.00
C154   C     0.96047   0.02028   0.27862   0.00000  Uiso   1.00
C155   C     0.70619   0.31305   0.22138   0.00000  Uiso   1.00
C156   C     0.96103   0.31085   0.27671   0.00000  Uiso   1.00
Cl157  Cl    0.85695   0.18218   0.10204   0.00000  Uiso   1.00
Cl158  Cl    0.80972   0.15116   0.39796   0.00000  Uiso   1.00
Cl159  Cl    0.91167   0.04400   0.31734   0.00000  Uiso   1.00
Cl160  Cl    0.75500   0.28934   0.18266   0.00000  Uiso   1.00
Cl161  Cl    0.76299   0.10511   0.31415   0.00000  Uiso   1.00
Cl162  Cl    0.90367   0.22822   0.18585   0.00000  Uiso   1.00
Cu163  Cu    0.71355   0.16667   0.25000   0.00000  Uiso   1.00
Cu164  Cu    0.95311   0.16666   0.25000   0.00000  Uiso   1.00
H165   H     0.93581   0.14671   0.04380   0.00000  Uiso   1.00
H166   H     0.73543   0.03995   0.20192   0.00000  Uiso   1.00
H167   H     0.86307   0.11969   0.29971   0.00000  Uiso   1.00
H168   H     0.80360   0.21364   0.20029   0.00000  Uiso   1.00
H169   H     0.73085   0.18662   0.45620   0.00000  Uiso   1.00
H170   H     0.77848   0.14542   0.11077   0.00000  Uiso   1.00
H171   H     0.88819   0.18791   0.38923   0.00000  Uiso   1.00
H172   H     0.97365   0.19248   0.10689   0.00000  Uiso   1.00
H173   H     0.69301   0.14085   0.39311   0.00000  Uiso   1.00
H174   H     0.99763   0.13317   0.47487   0.00000  Uiso   1.00
H175   H     0.66904   0.20017   0.02513   0.00000  Uiso   1.00
H176   H     0.93124   0.29339   0.29808   0.00000  Uiso   1.00
N177   N     0.78403   0.16668   0.24999   0.00000  Uiso   1.00
N178   N     0.88264   0.16666   0.25001   0.00000  Uiso   1.00
O179   O     0.70625   0.10655   0.25000   0.00000  Uiso   1.00
O180   O     0.96042   0.22678   0.25000   0.00000  Uiso   1.00
O181   O     0.96039   0.10654   0.25000   0.00000  Uiso   1.00
O182   O     0.70628   0.22679   0.24999   0.00000  Uiso   1.00
O183   O     0.68519   0.16668   0.31491   0.00000  Uiso   1.00
O184   O     0.98148   0.16666   0.18508   0.00000  Uiso   1.00
O185   O     0.93933   0.16667   0.31492   0.00000  Uiso   1.00
O186   O     0.72733   0.16667   0.18508   0.00000  Uiso   1.00
C187   C     0.33303   0.42079   0.25109   0.00000  Uiso   1.00
C188   C     0.03897   0.35581   0.22329   0.00000  Uiso   1.00
C189   C     0.00040   0.62384   0.24853   0.00000  Uiso   1.00
C190   C     0.33293   0.37616   0.25147   0.00000  Uiso   1.00
C191   C     0.18387   0.47385   0.27757   0.00000  Uiso   1.00
C192   C     0.14947   0.52615   0.22243   0.00000  Uiso   1.00
C193   C     0.13449   0.47368   0.27766   0.00000  Uiso   1.00
C194   C     0.19884   0.52632   0.22234   0.00000  Uiso   1.00
C195   C     0.30611   0.49952   0.33610   0.00000  Uiso   1.00
C196   C     0.02722   0.50048   0.16390   0.00000  Uiso   1.00
C197   C     0.29095   0.49599   0.38529   0.00000  Uiso   1.00
C198   C     0.00031   0.57921   0.24891   0.00000  Uiso   1.00
C199   C     0.04238   0.50401   0.11471   0.00000  Uiso   1.00
C200   C     0.30575   0.47625   0.45615   0.00000  Uiso   1.00
C201   C     0.02758   0.52375   0.04385   0.00000  Uiso   1.00
C202   C     0.32235   0.48126   0.40970   0.00000  Uiso   1.00
C203   C     0.01098   0.51874   0.09030   0.00000  Uiso   1.00
C204   C     0.24296   0.50496   0.40774   0.00000  Uiso   1.00
C205   C     0.09037   0.49504   0.09226   0.00000  Uiso   1.00
C206   C     0.22398   0.49550   0.45355   0.00000  Uiso   1.00
C207   C     0.10936   0.50450   0.04645   0.00000  Uiso   1.00
C208   C     0.25716   0.48428   0.47829   0.00000  Uiso   1.00
C209   C     0.19609   0.49689   0.04742   0.00000  Uiso   1.00
C210   C     0.07617   0.51572   0.02171   0.00000  Uiso   1.00
C211   C     0.17383   0.49973   0.47597   0.00000  Uiso   1.00
C212   C     0.15950   0.50027   0.02403   0.00000  Uiso   1.00
C213   C     0.13725   0.50311   0.45258   0.00000  Uiso   1.00
C214   C     0.24270   0.48489   0.02490   0.00000  Uiso   1.00
C215   C     0.09064   0.51511   0.47510   0.00000  Uiso   1.00
C216   C     0.29381   0.35361   0.27862   0.00000  Uiso   1.00
C217   C     0.03953   0.64639   0.22138   0.00000  Uiso   1.00
C218   C     0.29437   0.64419   0.27671   0.00000  Uiso   1.00
Cl219  Cl    0.19028   0.51551   0.10204   0.00000  Uiso   1.00
Cl220  Cl    0.14305   0.48449   0.39796   0.00000  Uiso   1.00
Cl221  Cl    0.24500   0.37733   0.31734   0.00000  Uiso   1.00
Cl222  Cl    0.08833   0.62267   0.18266   0.00000  Uiso   1.00
Cl223  Cl    0.09633   0.43844   0.31415   0.00000  Uiso   1.00
Cl224  Cl    0.23701   0.56156   0.18585   0.00000  Uiso   1.00
Cu225  Cu    0.04689   0.50001   0.25000   0.00000  Uiso   1.00
Cu226  Cu    0.28645   0.49999   0.25000   0.00000  Uiso   1.00
H227   H     0.26915   0.48005   0.04380   0.00000  Uiso   1.00
H228   H     0.06876   0.37328   0.20192   0.00000  Uiso   1.00
H229   H     0.19640   0.45302   0.29971   0.00000  Uiso   1.00
H230   H     0.13693   0.54698   0.20029   0.00000  Uiso   1.00
H231   H     0.06419   0.51995   0.45620   0.00000  Uiso   1.00
H232   H     0.11181   0.47875   0.11077   0.00000  Uiso   1.00
H233   H     0.22152   0.52125   0.38923   0.00000  Uiso   1.00
H234   H     0.30699   0.52582   0.10689   0.00000  Uiso   1.00
H235   H     0.02635   0.47418   0.39311   0.00000  Uiso   1.00
H236   H     0.33096   0.46650   0.47487   0.00000  Uiso   1.00
H237   H     0.00237   0.53350   0.02513   0.00000  Uiso   1.00
H238   H     0.26457   0.62672   0.29808   0.00000  Uiso   1.00
N239   N     0.11736   0.50001   0.24999   0.00000  Uiso   1.00
N240   N     0.21597   0.49999   0.25001   0.00000  Uiso   1.00
O241   O     0.03958   0.43989   0.25000   0.00000  Uiso   1.00
O242   O     0.29375   0.56011   0.25000   0.00000  Uiso   1.00
O243   O     0.29372   0.43988   0.25000   0.00000  Uiso   1.00
O244   O     0.03961   0.56012   0.24999   0.00000  Uiso   1.00
O245   O     0.01852   0.50001   0.31491   0.00000  Uiso   1.00
O246   O     0.31481   0.49999   0.18508   0.00000  Uiso   1.00
O247   O     0.27267   0.50000   0.31492   0.00000  Uiso   1.00
O248   O     0.06067   0.50000   0.18508   0.00000  Uiso   1.00
C249   C     0.66636   0.42079   0.25109   0.00000  Uiso   1.00
C250   C     0.37230   0.35581   0.22329   0.00000  Uiso   1.00
C251   C     0.33373   0.62384   0.24853   0.00000  Uiso   1.00
C252   C     0.66627   0.37616   0.25147   0.00000  Uiso   1.00
C253   C     0.51720   0.47385   0.27757   0.00000  Uiso   1.00
C254   C     0.48280   0.52615   0.22243   0.00000  Uiso   1.00
C255   C     0.46782   0.47368   0.27766   0.00000  Uiso   1.00
C256   C     0.53218   0.52632   0.22234   0.00000  Uiso   1.00
C257   C     0.63944   0.49952   0.33610   0.00000  Uiso   1.00
C258   C     0.36056   0.50048   0.16390   0.00000  Uiso   1.00
C259   C     0.62428   0.49599   0.38529   0.00000  Uiso   1.00
C260   C     0.33364   0.57921   0.24891   0.00000  Uiso   1.00
C261   C     0.37572   0.50401   0.11471   0.00000  Uiso   1.00
C262   C     0.63909   0.47625   0.45615   0.00000  Uiso   1.00
C263   C     0.36091   0.52375   0.04385   0.00000  Uiso   1.00
C264   C     0.65569   0.48126   0.40970   0.00000  Uiso   1.00
C265   C     0.34431   0.51874   0.09030   0.00000  Uiso   1.00
C266   C     0.57629   0.50496   0.40774   0.00000  Uiso   1.00
C267   C     0.42371   0.49504   0.09226   0.00000  Uiso   1.00
C268   C     0.55731   0.49550   0.45355   0.00000  Uiso   1.00
C269   C     0.44269   0.50450   0.04645   0.00000  Uiso   1.00
C270   C     0.59050   0.48428   0.47829   0.00000  Uiso   1.00
C271   C     0.52942   0.49689   0.04742   0.00000  Uiso   1.00
C272   C     0.40950   0.51572   0.02171   0.00000  Uiso   1.00
C273   C     0.50716   0.49973   0.47597   0.00000  Uiso   1.00
C274   C     0.49284   0.50027   0.02403   0.00000  Uiso   1.00
C275   C     0.47058   0.50311   0.45258   0.00000  Uiso   1.00
C276   C     0.57603   0.48489   0.02490   0.00000  Uiso   1.00
C277   C     0.42397   0.51511   0.47510   0.00000  Uiso   1.00
C278   C     0.62714   0.35361   0.27862   0.00000  Uiso   1.00
C279   C     0.37286   0.64639   0.22138   0.00000  Uiso   1.00
C280   C     0.62770   0.64419   0.27671   0.00000  Uiso   1.00
Cl281  Cl    0.52362   0.51551   0.10204   0.00000  Uiso   1.00
Cl282  Cl    0.47638   0.48449   0.39796   0.00000  Uiso   1.00
Cl283  Cl    0.57833   0.37733   0.31734   0.00000  Uiso   1.00
Cl284  Cl    0.42167   0.62267   0.18266   0.00000  Uiso   1.00
Cl285  Cl    0.42966   0.43844   0.31415   0.00000  Uiso   1.00
Cl286  Cl    0.57034   0.56156   0.18585   0.00000  Uiso   1.00
Cu287  Cu    0.38022   0.50001   0.25000   0.00000  Uiso   1.00
Cu288  Cu    0.61978   0.49999   0.25000   0.00000  Uiso   1.00
H289   H     0.60248   0.48005   0.04380   0.00000  Uiso   1.00
H290   H     0.40210   0.37328   0.20192   0.00000  Uiso   1.00
H291   H     0.52973   0.45302   0.29971   0.00000  Uiso   1.00
H292   H     0.47027   0.54698   0.20029   0.00000  Uiso   1.00
H293   H     0.39752   0.51995   0.45620   0.00000  Uiso   1.00
H294   H     0.44514   0.47875   0.11077   0.00000  Uiso   1.00
H295   H     0.55486   0.52125   0.38923   0.00000  Uiso   1.00
H296   H     0.64032   0.52582   0.10689   0.00000  Uiso   1.00
H297   H     0.35968   0.47418   0.39311   0.00000  Uiso   1.00
H298   H     0.66430   0.46650   0.47487   0.00000  Uiso   1.00
H299   H     0.33570   0.53350   0.02513   0.00000  Uiso   1.00
H300   H     0.59790   0.62672   0.29808   0.00000  Uiso   1.00
N301   N     0.45069   0.50001   0.24999   0.00000  Uiso   1.00
N302   N     0.54931   0.49999   0.25001   0.00000  Uiso   1.00
O303   O     0.37291   0.43989   0.25000   0.00000  Uiso   1.00
O304   O     0.62709   0.56011   0.25000   0.00000  Uiso   1.00
O305   O     0.62706   0.43988   0.25000   0.00000  Uiso   1.00
O306   O     0.37294   0.56012   0.24999   0.00000  Uiso   1.00
O307   O     0.35186   0.50001   0.31491   0.00000  Uiso   1.00
O308   O     0.64814   0.49999   0.18508   0.00000  Uiso   1.00
O309   O     0.60600   0.50000   0.31492   0.00000  Uiso   1.00
O310   O     0.39400   0.50000   0.18508   0.00000  Uiso   1.00
C311   C     0.99969   0.42079   0.25109   0.00000  Uiso   1.00
C312   C     0.70563   0.35581   0.22329   0.00000  Uiso   1.00
C313   C     0.66707   0.62384   0.24853   0.00000  Uiso   1.00
C314   C     0.99960   0.37616   0.25147   0.00000  Uiso   1.00
C315   C     0.85054   0.47385   0.27757   0.00000  Uiso   1.00
C316   C     0.81613   0.52615   0.22243   0.00000  Uiso   1.00
C317   C     0.80116   0.47368   0.27766   0.00000  Uiso   1.00
C318   C     0.86551   0.52632   0.22234   0.00000  Uiso   1.00
C319   C     0.97278   0.49952   0.33610   0.00000  Uiso   1.00
C320   C     0.69389   0.50048   0.16390   0.00000  Uiso   1.00
C321   C     0.95762   0.49599   0.38529   0.00000  Uiso   1.00
C322   C     0.66697   0.57921   0.24891   0.00000  Uiso   1.00
C323   C     0.70905   0.50401   0.11471   0.00000  Uiso   1.00
C324   C     0.97242   0.47625   0.45615   0.00000  Uiso   1.00
C325   C     0.69425   0.52375   0.04385   0.00000  Uiso   1.00
C326   C     0.98902   0.48126   0.40970   0.00000  Uiso   1.00
C327   C     0.67765   0.51874   0.09030   0.00000  Uiso   1.00
C328   C     0.90963   0.50496   0.40774   0.00000  Uiso   1.00
C329   C     0.75704   0.49504   0.09226   0.00000  Uiso   1.00
C330   C     0.89064   0.49550   0.45355   0.00000  Uiso   1.00
C331   C     0.77602   0.50450   0.04645   0.00000  Uiso   1.00
C332   C     0.92383   0.48428   0.47829   0.00000  Uiso   1.00
C333   C     0.86275   0.49689   0.04742   0.00000  Uiso   1.00
C334   C     0.74284   0.51572   0.02171   0.00000  Uiso   1.00
C335   C     0.84050   0.49973   0.47597   0.00000  Uiso   1.00
C336   C     0.82617   0.50027   0.02403   0.00000  Uiso   1.00
C337   C     0.80391   0.50311   0.45258   0.00000  Uiso   1.00
C338   C     0.90936   0.48489   0.02490   0.00000  Uiso   1.00
C339   C     0.75730   0.51511   0.47510   0.00000  Uiso   1.00
C340   C     0.96047   0.35361   0.27862   0.00000  Uiso   1.00
C341   C     0.70619   0.64639   0.22138   0.00000  Uiso   1.00
C342   C     0.96103   0.64419   0.27671   0.00000  Uiso   1.00
Cl343  Cl    0.85695   0.51551   0.10204   0.00000  Uiso   1.00
Cl344  Cl    0.80972   0.48449   0.39796   0.00000  Uiso   1.00
Cl345  Cl    0.91167   0.37733   0.31734   0.00000  Uiso   1.00
Cl346  Cl    0.75500   0.62267   0.18266   0.00000  Uiso   1.00
Cl347  Cl    0.76299   0.43844   0.31415   0.00000  Uiso   1.00
Cl348  Cl    0.90367   0.56156   0.18585   0.00000  Uiso   1.00
Cu349  Cu    0.71355   0.50001   0.25000   0.00000  Uiso   1.00
Cu350  Cu    0.95311   0.49999   0.25000   0.00000  Uiso   1.00
H351   H     0.93581   0.48005   0.04380   0.00000  Uiso   1.00
H352   H     0.73543   0.37328   0.20192   0.00000  Uiso   1.00
H353   H     0.86307   0.45302   0.29971   0.00000  Uiso   1.00
H354   H     0.80360   0.54698   0.20029   0.00000  Uiso   1.00
H355   H     0.73085   0.51995   0.45620   0.00000  Uiso   1.00
H356   H     0.77848   0.47875   0.11077   0.00000  Uiso   1.00
H357   H     0.88819   0.52125   0.38923   0.00000  Uiso   1.00
H358   H     0.97365   0.52582   0.10689   0.00000  Uiso   1.00
H359   H     0.69301   0.47418   0.39311   0.00000  Uiso   1.00
H360   H     0.99763   0.46650   0.47487   0.00000  Uiso   1.00
H361   H     0.66904   0.53350   0.02513   0.00000  Uiso   1.00
H362   H     0.93124   0.62672   0.29808   0.00000  Uiso   1.00
N363   N     0.78403   0.50001   0.24999   0.00000  Uiso   1.00
N364   N     0.88264   0.49999   0.25001   0.00000  Uiso   1.00
O365   O     0.70625   0.43989   0.25000   0.00000  Uiso   1.00
O366   O     0.96042   0.56011   0.25000   0.00000  Uiso   1.00
O367   O     0.96039   0.43988   0.25000   0.00000  Uiso   1.00
O368   O     0.70628   0.56012   0.24999   0.00000  Uiso   1.00
O369   O     0.68519   0.50001   0.31491   0.00000  Uiso   1.00
O370   O     0.98148   0.49999   0.18508   0.00000  Uiso   1.00
O371   O     0.93933   0.50000   0.31492   0.00000  Uiso   1.00
O372   O     0.72733   0.50000   0.18508   0.00000  Uiso   1.00
C373   C     0.33303   0.75413   0.25109   0.00000  Uiso   1.00
C374   C     0.03897   0.68915   0.22329   0.00000  Uiso   1.00
C375   C     0.00040   0.95717   0.24853   0.00000  Uiso   1.00
C376   C     0.33293   0.70949   0.25147   0.00000  Uiso   1.00
C377   C     0.18387   0.80718   0.27757   0.00000  Uiso   1.00
C378   C     0.14947   0.85949   0.22243   0.00000  Uiso   1.00
C379   C     0.13449   0.80701   0.27766   0.00000  Uiso   1.00
C380   C     0.19884   0.85966   0.22234   0.00000  Uiso   1.00
C381   C     0.30611   0.83285   0.33610   0.00000  Uiso   1.00
C382   C     0.02722   0.83382   0.16390   0.00000  Uiso   1.00
C383   C     0.29095   0.82933   0.38529   0.00000  Uiso   1.00
C384   C     0.00031   0.91254   0.24891   0.00000  Uiso   1.00
C385   C     0.04238   0.83734   0.11471   0.00000  Uiso   1.00
C386   C     0.30575   0.80958   0.45615   0.00000  Uiso   1.00
C387   C     0.02758   0.85708   0.04385   0.00000  Uiso   1.00
C388   C     0.32235   0.81459   0.40970   0.00000  Uiso   1.00
C389   C     0.01098   0.85207   0.09030   0.00000  Uiso   1.00
C390   C     0.24296   0.83829   0.40774   0.00000  Uiso   1.00
C391   C     0.09037   0.82837   0.09226   0.00000  Uiso   1.00
C392   C     0.22398   0.82883   0.45355   0.00000  Uiso   1.00
C393   C     0.10936   0.83783   0.04645   0.00000  Uiso   1.00
C394   C     0.25716   0.81761   0.47829   0.00000  Uiso   1.00
C395   C     0.19609   0.83022   0.04742   0.00000  Uiso   1.00
C396   C     0.07617   0.84905   0.02171   0.00000  Uiso   1.00
C397   C     0.17383   0.83306   0.47597   0.00000  Uiso   1.00
C398   C     0.15950   0.83360   0.02403   0.00000  Uiso   1.00
C399   C     0.13725   0.83644   0.45258   0.00000  Uiso   1.00
C400   C     0.24270   0.81823   0.02490   0.00000  Uiso   1.00
C401   C     0.09064   0.84844   0.47510   0.00000  Uiso   1.00
C402   C     0.29381   0.68695   0.27862   0.00000  Uiso   1.00
C403   C     0.03953   0.97972   0.22138   0.00000  Uiso   1.00
C404   C     0.29437   0.97752   0.27671   0.00000  Uiso   1.00
Cl405  Cl    0.19028   0.84884   0.10204   0.00000  Uiso   1.00
Cl406  Cl    0.14305   0.81782   0.39796   0.00000  Uiso   1.00
Cl407  Cl    0.24500   0.71066   0.31734   0.00000  Uiso   1.00
Cl408  Cl    0.08833   0.95600   0.18266   0.00000  Uiso   1.00
Cl409  Cl    0.09633   0.77178   0.31415   0.00000  Uiso   1.00
Cl410  Cl    0.23701   0.89489   0.18585   0.00000  Uiso   1.00
Cu411  Cu    0.04689   0.83334   0.25000   0.00000  Uiso   1.00
Cu412  Cu    0.28645   0.83333   0.25000   0.00000  Uiso   1.00
H413   H     0.26915   0.81338   0.04380   0.00000  Uiso   1.00
H414   H     0.06876   0.70661   0.20192   0.00000  Uiso   1.00
H415   H     0.19640   0.78636   0.29971   0.00000  Uiso   1.00
H416   H     0.13693   0.88031   0.20029   0.00000  Uiso   1.00
H417   H     0.06419   0.85329   0.45620   0.00000  Uiso   1.00
H418   H     0.11181   0.81209   0.11077   0.00000  Uiso   1.00
H419   H     0.22152   0.85458   0.38923   0.00000  Uiso   1.00
H420   H     0.30699   0.85915   0.10689   0.00000  Uiso   1.00
H421   H     0.02635   0.80752   0.39311   0.00000  Uiso   1.00
H422   H     0.33096   0.79983   0.47487   0.00000  Uiso   1.00
H423   H     0.00237   0.86683   0.02513   0.00000  Uiso   1.00
H424   H     0.26457   0.96005   0.29808   0.00000  Uiso   1.00
N425   N     0.11736   0.83334   0.24999   0.00000  Uiso   1.00
N426   N     0.21597   0.83332   0.25001   0.00000  Uiso   1.00
O427   O     0.03958   0.77322   0.25000   0.00000  Uiso   1.00
O428   O     0.29375   0.89345   0.25000   0.00000  Uiso   1.00
O429   O     0.29372   0.77321   0.25000   0.00000  Uiso   1.00
O430   O     0.03961   0.89346   0.24999   0.00000  Uiso   1.00
O431   O     0.01852   0.83334   0.31491   0.00000  Uiso   1.00
O432   O     0.31481   0.83332   0.18508   0.00000  Uiso   1.00
O433   O     0.27267   0.83333   0.31492   0.00000  Uiso   1.00
O434   O     0.06067   0.83333   0.18508   0.00000  Uiso   1.00
C435   C     0.66636   0.75413   0.25109   0.00000  Uiso   1.00
C436   C     0.37230   0.68915   0.22329   0.00000  Uiso   1.00
C437   C     0.33373   0.95717   0.24853   0.00000  Uiso   1.00
C438   C     0.66627   0.70949   0.25147   0.00000  Uiso   1.00
C439   C     0.51720   0.80718   0.27757   0.00000  Uiso   1.00
C440   C     0.48280   0.85949   0.22243   0.00000  Uiso   1.00
C441   C     0.46782   0.80701   0.27766   0.00000  Uiso   1.00
C442   C     0.53218   0.85966   0.22234   0.00000  Uiso   1.00
C443   C     0.63944   0.83285   0.33610   0.00000  Uiso   1.00
C444   C     0.36056   0.83382   0.16390   0.00000  Uiso   1.00
C445   C     0.62428   0.82933   0.38529   0.00000  Uiso   1.00
C446   C     0.33364   0.91254   0.24891   0.00000  Uiso   1.00
C447   C     0.37572   0.83734   0.11471   0.00000  Uiso   1.00
C448   C     0.63909   0.80958   0.45615   0.00000  Uiso   1.00
C449   C     0.36091   0.85708   0.04385   0.00000  Uiso   1.00
C450   C     0.65569   0.81459   0.40970   0.00000  Uiso   1.00
C451   C     0.34431   0.85207   0.09030   0.00000  Uiso   1.00
C452   C     0.57629   0.83829   0.40774   0.00000  Uiso   1.00
C453   C     0.42371   0.82837   0.09226   0.00000  Uiso   1.00
C454   C     0.55731   0.82883   0.45355   0.00000  Uiso   1.00
C455   C     0.44269   0.83783   0.04645   0.00000  Uiso   1.00
C456   C     0.59050   0.81761   0.47829   0.00000  Uiso   1.00
C457   C     0.52942   0.83022   0.04742   0.00000  Uiso   1.00
C458   C     0.40950   0.84905   0.02171   0.00000  Uiso   1.00
C459   C     0.50716   0.83306   0.47597   0.00000  Uiso   1.00
C460   C     0.49284   0.83360   0.02403   0.00000  Uiso   1.00
C461   C     0.47058   0.83644   0.45258   0.00000  Uiso   1.00
C462   C     0.57603   0.81823   0.02490   0.00000  Uiso   1.00
C463   C     0.42397   0.84844   0.47510   0.00000  Uiso   1.00
C464   C     0.62714   0.68695   0.27862   0.00000  Uiso   1.00
C465   C     0.37286   0.97972   0.22138   0.00000  Uiso   1.00
C466   C     0.62770   0.97752   0.27671   0.00000  Uiso   1.00
Cl467  Cl    0.52362   0.84884   0.10204   0.00000  Uiso   1.00
Cl468  Cl    0.47638   0.81782   0.39796   0.00000  Uiso   1.00
Cl469  Cl    0.57833   0.71066   0.31734   0.00000  Uiso   1.00
Cl470  Cl    0.42167   0.95600   0.18266   0.00000  Uiso   1.00
Cl471  Cl    0.42966   0.77178   0.31415   0.00000  Uiso   1.00
Cl472  Cl    0.57034   0.89489   0.18585   0.00000  Uiso   1.00
Cu473  Cu    0.38022   0.83334   0.25000   0.00000  Uiso   1.00
Cu474  Cu    0.61978   0.83333   0.25000   0.00000  Uiso   1.00
H475   H     0.60248   0.81338   0.04380   0.00000  Uiso   1.00
H476   H     0.40210   0.70661   0.20192   0.00000  Uiso   1.00
H477   H     0.52973   0.78636   0.29971   0.00000  Uiso   1.00
H478   H     0.47027   0.88031   0.20029   0.00000  Uiso   1.00
H479   H     0.39752   0.85329   0.45620   0.00000  Uiso   1.00
H480   H     0.44514   0.81209   0.11077   0.00000  Uiso   1.00
H481   H     0.55486   0.85458   0.38923   0.00000  Uiso   1.00
H482   H     0.64032   0.85915   0.10689   0.00000  Uiso   1.00
H483   H     0.35968   0.80752   0.39311   0.00000  Uiso   1.00
H484   H     0.66430   0.79983   0.47487   0.00000  Uiso   1.00
H485   H     0.33570   0.86683   0.02513   0.00000  Uiso   1.00
H486   H     0.59790   0.96005   0.29808   0.00000  Uiso   1.00
N487   N     0.45069   0.83334   0.24999   0.00000  Uiso   1.00
N488   N     0.54931   0.83332   0.25001   0.00000  Uiso   1.00
O489   O     0.37291   0.77322   0.25000   0.00000  Uiso   1.00
O490   O     0.62709   0.89345   0.25000   0.00000  Uiso   1.00
O491   O     0.62706   0.77321   0.25000   0.00000  Uiso   1.00
O492   O     0.37294   0.89346   0.24999   0.00000  Uiso   1.00
O493   O     0.35186   0.83334   0.31491   0.00000  Uiso   1.00
O494   O     0.64814   0.83332   0.18508   0.00000  Uiso   1.00
O495   O     0.60600   0.83333   0.31492   0.00000  Uiso   1.00
O496   O     0.39400   0.83333   0.18508   0.00000  Uiso   1.00
C497   C     0.99969   0.75413   0.25109   0.00000  Uiso   1.00
C498   C     0.70563   0.68915   0.22329   0.00000  Uiso   1.00
C499   C     0.66707   0.95717   0.24853   0.00000  Uiso   1.00
C500   C     0.99960   0.70949   0.25147   0.00000  Uiso   1.00
C501   C     0.85054   0.80718   0.27757   0.00000  Uiso   1.00
C502   C     0.81613   0.85949   0.22243   0.00000  Uiso   1.00
C503   C     0.80116   0.80701   0.27766   0.00000  Uiso   1.00
C504   C     0.86551   0.85966   0.22234   0.00000  Uiso   1.00
C505   C     0.97278   0.83285   0.33610   0.00000  Uiso   1.00
C506   C     0.69389   0.83382   0.16390   0.00000  Uiso   1.00
C507   C     0.95762   0.82933   0.38529   0.00000  Uiso   1.00
C508   C     0.66697   0.91254   0.24891   0.00000  Uiso   1.00
C509   C     0.70905   0.83734   0.11471   0.00000  Uiso   1.00
C510   C     0.97242   0.80958   0.45615   0.00000  Uiso   1.00
C511   C     0.69425   0.85708   0.04385   0.00000  Uiso   1.00
C512   C     0.98902   0.81459   0.40970   0.00000  Uiso   1.00
C513   C     0.67765   0.85207   0.09030   0.00000  Uiso   1.00
C514   C     0.90963   0.83829   0.40774   0.00000  Uiso   1.00
C515   C     0.75704   0.82837   0.09226   0.00000  Uiso   1.00
C516   C     0.89064   0.82883   0.45355   0.00000  Uiso   1.00
C517   C     0.77602   0.83783   0.04645   0.00000  Uiso   1.00
C518   C     0.92383   0.81761   0.47829   0.00000  Uiso   1.00
C519   C     0.86275   0.83022   0.04742   0.00000  Uiso   1.00
C520   C     0.74284   0.84905   0.02171   0.00000  Uiso   1.00
C521   C     0.84050   0.83306   0.47597   0.00000  Uiso   1.00
C522   C     0.82617   0.83360   0.02403   0.00000  Uiso   1.00
C523   C     0.80391   0.83644   0.45258   0.00000  Uiso   1.00
C524   C     0.90936   0.81823   0.02490   0.00000  Uiso   1.00
C525   C     0.75730   0.84844   0.47510   0.00000  Uiso   1.00
C526   C     0.96047   0.68695   0.27862   0.00000  Uiso   1.00
C527   C     0.70619   0.97972   0.22138   0.00000  Uiso   1.00
C528   C     0.96103   0.97752   0.27671   0.00000  Uiso   1.00
Cl529  Cl    0.85695   0.84884   0.10204   0.00000  Uiso   1.00
Cl530  Cl    0.80972   0.81782   0.39796   0.00000  Uiso   1.00
Cl531  Cl    0.91167   0.71066   0.31734   0.00000  Uiso   1.00
Cl532  Cl    0.75500   0.95600   0.18266   0.00000  Uiso   1.00
Cl533  Cl    0.76299   0.77178   0.31415   0.00000  Uiso   1.00
Cl534  Cl    0.90367   0.89489   0.18585   0.00000  Uiso   1.00
Cu535  Cu    0.71355   0.83334   0.25000   0.00000  Uiso   1.00
Cu536  Cu    0.95311   0.83333   0.25000   0.00000  Uiso   1.00
H537   H     0.93581   0.81338   0.04380   0.00000  Uiso   1.00
H538   H     0.73543   0.70661   0.20192   0.00000  Uiso   1.00
H539   H     0.86307   0.78636   0.29971   0.00000  Uiso   1.00
H540   H     0.80360   0.88031   0.20029   0.00000  Uiso   1.00
H541   H     0.73085   0.85329   0.45620   0.00000  Uiso   1.00
H542   H     0.77848   0.81209   0.11077   0.00000  Uiso   1.00
H543   H     0.88819   0.85458   0.38923   0.00000  Uiso   1.00
H544   H     0.97365   0.85915   0.10689   0.00000  Uiso   1.00
H545   H     0.69301   0.80752   0.39311   0.00000  Uiso   1.00
H546   H     0.99763   0.79983   0.47487   0.00000  Uiso   1.00
H547   H     0.66904   0.86683   0.02513   0.00000  Uiso   1.00
H548   H     0.93124   0.96005   0.29808   0.00000  Uiso   1.00
N549   N     0.78403   0.83334   0.24999   0.00000  Uiso   1.00
N550   N     0.88264   0.83332   0.25001   0.00000  Uiso   1.00
O551   O     0.70625   0.77322   0.25000   0.00000  Uiso   1.00
O552   O     0.96042   0.89345   0.25000   0.00000  Uiso   1.00
O553   O     0.96039   0.77321   0.25000   0.00000  Uiso   1.00
O554   O     0.70628   0.89346   0.24999   0.00000  Uiso   1.00
O555   O     0.68519   0.83334   0.31491   0.00000  Uiso   1.00
O556   O     0.98148   0.83332   0.18508   0.00000  Uiso   1.00
O557   O     0.93933   0.83333   0.31492   0.00000  Uiso   1.00
O558   O     0.72733   0.83333   0.18508   0.00000  Uiso   1.00
C559   C     0.33303   0.08746   0.75109   0.00000  Uiso   1.00
C560   C     0.03897   0.02248   0.72329   0.00000  Uiso   1.00
C561   C     0.00040   0.29051   0.74853   0.00000  Uiso   1.00
C562   C     0.33293   0.04283   0.75147   0.00000  Uiso   1.00
C563   C     0.18387   0.14051   0.77757   0.00000  Uiso   1.00
C564   C     0.14947   0.19282   0.72243   0.00000  Uiso   1.00
C565   C     0.13449   0.14034   0.77766   0.00000  Uiso   1.00
C566   C     0.19884   0.19299   0.72234   0.00000  Uiso   1.00
C567   C     0.30611   0.16618   0.83610   0.00000  Uiso   1.00
C568   C     0.02722   0.16715   0.66390   0.00000  Uiso   1.00
C569   C     0.29095   0.16266   0.88529   0.00000  Uiso   1.00
C570   C     0.00031   0.24587   0.74891   0.00000  Uiso   1.00
C571   C     0.04238   0.17067   0.61471   0.00000  Uiso   1.00
C572   C     0.30575   0.14292   0.95615   0.00000  Uiso   1.00
C573   C     0.02758   0.19042   0.54385   0.00000  Uiso   1.00
C574   C     0.32235   0.14793   0.90970   0.00000  Uiso   1.00
C575   C     0.01098   0.18541   0.59030   0.00000  Uiso   1.00
C576   C     0.24296   0.17163   0.90774   0.00000  Uiso   1.00
C577   C     0.09037   0.16171   0.59226   0.00000  Uiso   1.00
C578   C     0.22398   0.16217   0.95355   0.00000  Uiso   1.00
C579   C     0.10936   0.17117   0.54645   0.00000  Uiso   1.00
C580   C     0.25716   0.15095   0.97829   0.00000  Uiso   1.00
C581   C     0.19609   0.16356   0.54742   0.00000  Uiso   1.00
C582   C     0.07617   0.18239   0.52171   0.00000  Uiso   1.00
C583   C     0.17383   0.16640   0.97597   0.00000  Uiso   1.00
C584   C     0.15950   0.16694   0.52403   0.00000  Uiso   1.00
C585   C     0.13725   0.16978   0.95258   0.00000  Uiso   1.00
C586   C     0.24270   0.15156   0.52490   0.00000  Uiso   1.00
C587   C     0.09064   0.18177   0.97510   0.00000  Uiso   1.00
C588   C     0.29381   0.02028   0.77862   0.00000  Uiso   1.00
C589   C     0.03953   0.31305   0.72138   0.00000  Uiso   1.00
C590   C     0.29437   0.31085   0.77671   0.00000  Uiso   1.00
Cl591  Cl    0.19028   0.18218   0.60204   0.00000  Uiso   1.00
Cl592  Cl    0.14305   0.15116   0.89796   0.00000  Uiso   1.00
Cl593  Cl    0.24500   0.04400   0.81734   0.00000  Uiso   1.00
Cl594  Cl    0.08833   0.28934   0.68266   0.00000  Uiso   1.00
Cl595  Cl    0.09633   0.10511   0.81415   0.00000  Uiso   1.00
Cl596  Cl    0.23701   0.22822   0.68585   0.00000  Uiso   1.00
Cu597  Cu    0.04689   0.16667   0.75000   0.00000  Uiso   1.00
Cu598  Cu    0.28645   0.16666   0.75000   0.00000  Uiso   1.00
H599   H     0.26915   0.14671   0.54380   0.00000  Uiso   1.00
H600   H     0.06876   0.03995   0.70192   0.00000  Uiso   1.00
H601   H     0.19640   0.11969   0.79971   0.00000  Uiso   1.00
H602   H     0.13693   0.21364   0.70029   0.00000  Uiso   1.00
H603   H     0.06419   0.18662   0.95620   0.00000  Uiso   1.00
H604   H     0.11181   0.14542   0.61077   0.00000  Uiso   1.00
H605   H     0.22152   0.18791   0.88923   0.00000  Uiso   1.00
H606   H     0.30699   0.19248   0.60689   0.00000  Uiso   1.00
H607   H     0.02635   0.14085   0.89311   0.00000  Uiso   1.00
H608   H     0.33096   0.13317   0.97487   0.00000  Uiso   1.00
H609   H     0.00237   0.20017   0.52513   0.00000  Uiso   1.00
H610   H     0.26457   0.29339   0.79808   0.00000  Uiso   1.00
N611   N     0.11736   0.16668   0.74999   0.00000  Uiso   1.00
N612   N     0.21597   0.16666   0.75001   0.00000  Uiso   1.00
O613   O     0.03958   0.10655   0.75000   0.00000  Uiso   1.00
O614   O     0.29375   0.22678   0.75000   0.00000  Uiso   1.00
O615   O     0.29372   0.10654   0.75000   0.00000  Uiso   1.00
O616   O     0.03961   0.22679   0.74999   0.00000  Uiso   1.00
O617   O     0.01852   0.16668   0.81491   0.00000  Uiso   1.00
O618   O     0.31481   0.16666   0.68508   0.00000  Uiso   1.00
O619   O     0.27267   0.16667   0.81492   0.00000  Uiso   1.00
O620   O     0.06067   0.16667   0.68508   0.00000  Uiso   1.00
C621   C     0.66636   0.08746   0.75109   0.00000  Uiso   1.00
C622   C     0.37230   0.02248   0.72329   0.00000  Uiso   1.00
C623   C     0.33373   0.29051   0.74853   0.00000  Uiso   1.00
C624   C     0.66627   0.04283   0.75147   0.00000  Uiso   1.00
C625   C     0.51720   0.14051   0.77757   0.00000  Uiso   1.00
C626   C     0.48280   0.19282   0.72243   0.00000  Uiso   1.00
C627   C     0.46782   0.14034   0.77766   0.00000  Uiso   1.00
C628   C     0.53218   0.19299   0.72234   0.00000  Uiso   1.00
C629   C     0.63944   0.16618   0.83610   0.00000  Uiso   1.00
C630   C     0.36056   0.16715   0.66390   0.00000  Uiso   1.00
C631   C     0.62428   0.16266   0.88529   0.00000  Uiso   1.00
C632   C     0.33364   0.24587   0.74891   0.00000  Uiso   1.00
C633   C     0.37572   0.17067   0.61471   0.00000  Uiso   1.00
C634   C     0.63909   0.14292   0.95615   0.00000  Uiso   1.00
C635   C     0.36091   0.19042   0.54385   0.00000  Uiso   1.00
C636   C     0.65569   0.14793   0.90970   0.00000  Uiso   1.00
C637   C     0.34431   0.18541   0.59030   0.00000  Uiso   1.00
C638   C     0.57629   0.17163   0.90774   0.00000  Uiso   1.00
C639   C     0.42371   0.16171   0.59226   0.00000  Uiso   1.00
C640   C     0.55731   0.16217   0.95355   0.00000  Uiso   1.00
C641   C     0.44269   0.17117   0.54645   0.00000  Uiso   1.00
C642   C     0.59050   0.15095   0.97829   0.00000  Uiso   1.00
C643   C     0.52942   0.16356   0.54742   0.00000  Uiso   1.00
C644   C     0.40950   0.18239   0.52171   0.00000  Uiso   1.00
C645   C     0.50716   0.16640   0.97597   0.00000  Uiso   1.00
C646   C     0.49284   0.16694   0.52403   0.00000  Uiso   1.00
C647   C     0.47058   0.16978   0.95258   0.00000  Uiso   1.00
C648   C     0.57603   0.15156   0.52490   0.00000  Uiso   1.00
C649   C     0.42397   0.18177   0.97510   0.00000  Uiso   1.00
C650   C     0.62714   0.02028   0.77862   0.00000  Uiso   1.00
C651   C     0.37286   0.31305   0.72138   0.00000  Uiso   1.00
C652   C     0.62770   0.31085   0.77671   0.00000  Uiso   1.00
Cl653  Cl    0.52362   0.18218   0.60204   0.00000  Uiso   1.00
Cl654  Cl    0.47638   0.15116   0.89796   0.00000  Uiso   1.00
Cl655  Cl    0.57833   0.04400   0.81734   0.00000  Uiso   1.00
Cl656  Cl    0.42167   0.28934   0.68266   0.00000  Uiso   1.00
Cl657  Cl    0.42966   0.10511   0.81415   0.00000  Uiso   1.00
Cl658  Cl    0.57034   0.22822   0.68585   0.00000  Uiso   1.00
Cu659  Cu    0.38022   0.16667   0.75000   0.00000  Uiso   1.00
Cu660  Cu    0.61978   0.16666   0.75000   0.00000  Uiso   1.00
H661   H     0.60248   0.14671   0.54380   0.00000  Uiso   1.00
H662   H     0.40210   0.03995   0.70192   0.00000  Uiso   1.00
H663   H     0.52973   0.11969   0.79971   0.00000  Uiso   1.00
H664   H     0.47027   0.21364   0.70029   0.00000  Uiso   1.00
H665   H     0.39752   0.18662   0.95620   0.00000  Uiso   1.00
H666   H     0.44514   0.14542   0.61077   0.00000  Uiso   1.00
H667   H     0.55486   0.18791   0.88923   0.00000  Uiso   1.00
H668   H     0.64032   0.19248   0.60689   0.00000  Uiso   1.00
H669   H     0.35968   0.14085   0.89311   0.00000  Uiso   1.00
H670   H     0.66430   0.13317   0.97487   0.00000  Uiso   1.00
H671   H     0.33570   0.20017   0.52513   0.00000  Uiso   1.00
H672   H     0.59790   0.29339   0.79808   0.00000  Uiso   1.00
N673   N     0.45069   0.16668   0.74999   0.00000  Uiso   1.00
N674   N     0.54931   0.16666   0.75001   0.00000  Uiso   1.00
O675   O     0.37291   0.10655   0.75000   0.00000  Uiso   1.00
O676   O     0.62709   0.22678   0.75000   0.00000  Uiso   1.00
O677   O     0.62706   0.10654   0.75000   0.00000  Uiso   1.00
O678   O     0.37294   0.22679   0.74999   0.00000  Uiso   1.00
O679   O     0.35186   0.16668   0.81491   0.00000  Uiso   1.00
O680   O     0.64814   0.16666   0.68508   0.00000  Uiso   1.00
O681   O     0.60600   0.16667   0.81492   0.00000  Uiso   1.00
O682   O     0.39400   0.16667   0.68508   0.00000  Uiso   1.00
C683   C     0.99969   0.08746   0.75109   0.00000  Uiso   1.00
C684   C     0.70563   0.02248   0.72329   0.00000  Uiso   1.00
C685   C     0.66707   0.29051   0.74853   0.00000  Uiso   1.00
C686   C     0.99960   0.04283   0.75147   0.00000  Uiso   1.00
C687   C     0.85054   0.14051   0.77757   0.00000  Uiso   1.00
C688   C     0.81613   0.19282   0.72243   0.00000  Uiso   1.00
C689   C     0.80116   0.14034   0.77766   0.00000  Uiso   1.00
C690   C     0.86551   0.19299   0.72234   0.00000  Uiso   1.00
C691   C     0.97278   0.16618   0.83610   0.00000  Uiso   1.00
C692   C     0.69389   0.16715   0.66390   0.00000  Uiso   1.00
C693   C     0.95762   0.16266   0.88529   0.00000  Uiso   1.00
C694   C     0.66697   0.24587   0.74891   0.00000  Uiso   1.00
C695   C     0.70905   0.17067   0.61471   0.00000  Uiso   1.00
C696   C     0.97242   0.14292   0.95615   0.00000  Uiso   1.00
C697   C     0.69425   0.19042   0.54385   0.00000  Uiso   1.00
C698   C     0.98902   0.14793   0.90970   0.00000  Uiso   1.00
C699   C     0.67765   0.18541   0.59030   0.00000  Uiso   1.00
C700   C     0.90963   0.17163   0.90774   0.00000  Uiso   1.00
C701   C     0.75704   0.16171   0.59226   0.00000  Uiso   1.00
C702   C     0.89064   0.16217   0.95355   0.00000  Uiso   1.00
C703   C     0.77602   0.17117   0.54645   0.00000  Uiso   1.00
C704   C     0.92383   0.15095   0.97829   0.00000  Uiso   1.00
C705   C     0.86275   0.16356   0.54742   0.00000  Uiso   1.00
C706   C     0.74284   0.18239   0.52171   0.00000  Uiso   1.00
C707   C     0.84050   0.16640   0.97597   0.00000  Uiso   1.00
C708   C     0.82617   0.16694   0.52403   0.00000  Uiso   1.00
C709   C     0.80391   0.16978   0.95258   0.00000  Uiso   1.00
C710   C     0.90936   0.15156   0.52490   0.00000  Uiso   1.00
C711   C     0.75730   0.18177   0.97510   0.00000  Uiso   1.00
C712   C     0.96047   0.02028   0.77862   0.00000  Uiso   1.00
C713   C     0.70619   0.31305   0.72138   0.00000  Uiso   1.00
C714   C     0.96103   0.31085   0.77671   0.00000  Uiso   1.00
Cl715  Cl    0.85695   0.18218   0.60204   0.00000  Uiso   1.00
Cl716  Cl    0.80972   0.15116   0.89796   0.00000  Uiso   1.00
Cl717  Cl    0.91167   0.04400   0.81734   0.00000  Uiso   1.00
Cl718  Cl    0.75500   0.28934   0.68266   0.00000  Uiso   1.00
Cl719  Cl    0.76299   0.10511   0.81415   0.00000  Uiso   1.00
Cl720  Cl    0.90367   0.22822   0.68585   0.00000  Uiso   1.00
Cu721  Cu    0.71355   0.16667   0.75000   0.00000  Uiso   1.00
Cu722  Cu    0.95311   0.16666   0.75000   0.00000  Uiso   1.00
H723   H     0.93581   0.14671   0.54380   0.00000  Uiso   1.00
H724   H     0.73543   0.03995   0.70192   0.00000  Uiso   1.00
H725   H     0.86307   0.11969   0.79971   0.00000  Uiso   1.00
H726   H     0.80360   0.21364   0.70029   0.00000  Uiso   1.00
H727   H     0.73085   0.18662   0.95620   0.00000  Uiso   1.00
H728   H     0.77848   0.14542   0.61077   0.00000  Uiso   1.00
H729   H     0.88819   0.18791   0.88923   0.00000  Uiso   1.00
H730   H     0.97365   0.19248   0.60689   0.00000  Uiso   1.00
H731   H     0.69301   0.14085   0.89311   0.00000  Uiso   1.00
H732   H     0.99763   0.13317   0.97487   0.00000  Uiso   1.00
H733   H     0.66904   0.20017   0.52513   0.00000  Uiso   1.00
H734   H     0.93124   0.29339   0.79808   0.00000  Uiso   1.00
N735   N     0.78403   0.16668   0.74999   0.00000  Uiso   1.00
N736   N     0.88264   0.16666   0.75001   0.00000  Uiso   1.00
O737   O     0.70625   0.10655   0.75000   0.00000  Uiso   1.00
O738   O     0.96042   0.22678   0.75000   0.00000  Uiso   1.00
O739   O     0.96039   0.10654   0.75000   0.00000  Uiso   1.00
O740   O     0.70628   0.22679   0.74999   0.00000  Uiso   1.00
O741   O     0.68519   0.16668   0.81491   0.00000  Uiso   1.00
O742   O     0.98148   0.16666   0.68508   0.00000  Uiso   1.00
O743   O     0.93933   0.16667   0.81492   0.00000  Uiso   1.00
O744   O     0.72733   0.16667   0.68508   0.00000  Uiso   1.00
C745   C     0.33303   0.42079   0.75109   0.00000  Uiso   1.00
C746   C     0.03897   0.35581   0.72329   0.00000  Uiso   1.00
C747   C     0.00040   0.62384   0.74853   0.00000  Uiso   1.00
C748   C     0.33293   0.37616   0.75147   0.00000  Uiso   1.00
C749   C     0.18387   0.47385   0.77757   0.00000  Uiso   1.00
C750   C     0.14947   0.52615   0.72243   0.00000  Uiso   1.00
C751   C     0.13449   0.47368   0.77766   0.00000  Uiso   1.00
C752   C     0.19884   0.52632   0.72234   0.00000  Uiso   1.00
C753   C     0.30611   0.49952   0.83610   0.00000  Uiso   1.00
C754   C     0.02722   0.50048   0.66390   0.00000  Uiso   1.00
C755   C     0.29095   0.49599   0.88529   0.00000  Uiso   1.00
C756   C     0.00031   0.57921   0.74891   0.00000  Uiso   1.00
C757   C     0.04238   0.50401   0.61471   0.00000  Uiso   1.00
C758   C     0.30575   0.47625   0.95615   0.00000  Uiso   1.00
C759   C     0.02758   0.52375   0.54385   0.00000  Uiso   1.00
C760   C     0.32235   0.48126   0.90970   0.00000  Uiso   1.00
C761   C     0.01098   0.51874   0.59030   0.00000  Uiso   1.00
C762   C     0.24296   0.50496   0.90774   0.00000  Uiso   1.00
C763   C     0.09037   0.49504   0.59226   0.00000  Uiso   1.00
C764   C     0.22398   0.49550   0.95355   0.00000  Uiso   1.00
C765   C     0.10936   0.50450   0.54645   0.00000  Uiso   1.00
C766   C     0.25716   0.48428   0.97829   0.00000  Uiso   1.00
C767   C     0.19609   0.49689   0.54742   0.00000  Uiso   1.00
C768   C     0.07617   0.51572   0.52171   0.00000  Uiso   1.00
C769   C     0.17383   0.49973   0.97597   0.00000  Uiso   1.00
C770   C     0.15950   0.50027   0.52403   0.00000  Uiso   1.00
C771   C     0.13725   0.50311   0.95258   0.00000  Uiso   1.00
C772   C     0.24270   0.48489   0.52490   0.00000  Uiso   1.00
C773   C     0.09064   0.51511   0.97510   0.00000  Uiso   1.00
C774   C     0.29381   0.35361   0.77862   0.00000  Uiso   1.00
C775   C     0.03953   0.64639   0.72138   0.00000  Uiso   1.00
C776   C     0.29437   0.64419   0.77671   0.00000  Uiso   1.00
Cl777  Cl    0.19028   0.51551   0.60204   0.00000  Uiso   1.00
Cl778  Cl    0.14305   0.48449   0.89796   0.00000  Uiso   1.00
Cl779  Cl    0.24500   0.37733   0.81734   0.00000  Uiso   1.00
Cl780  Cl    0.08833   0.62267   0.68266   0.00000  Uiso   1.00
Cl781  Cl    0.09633   0.43844   0.81415   0.00000  Uiso   1.00
Cl782  Cl    0.23701   0.56156   0.68585   0.00000  Uiso   1.00
Cu783  Cu    0.04689   0.50001   0.75000   0.00000  Uiso   1.00
Cu784  Cu    0.28645   0.49999   0.75000   0.00000  Uiso   1.00
H785   H     0.26915   0.48005   0.54380   0.00000  Uiso   1.00
H786   H     0.06876   0.37328   0.70192   0.00000  Uiso   1.00
H787   H     0.19640   0.45302   0.79971   0.00000  Uiso   1.00
H788   H     0.13693   0.54698   0.70029   0.00000  Uiso   1.00
H789   H     0.06419   0.51995   0.95620   0.00000  Uiso   1.00
H790   H     0.11181   0.47875   0.61077   0.00000  Uiso   1.00
H791   H     0.22152   0.52125   0.88923   0.00000  Uiso   1.00
H792   H     0.30699   0.52582   0.60689   0.00000  Uiso   1.00
H793   H     0.02635   0.47418   0.89311   0.00000  Uiso   1.00
H794   H     0.33096   0.46650   0.97487   0.00000  Uiso   1.00
H795   H     0.00237   0.53350   0.52513   0.00000  Uiso   1.00
H796   H     0.26457   0.62672   0.79808   0.00000  Uiso   1.00
N797   N     0.11736   0.50001   0.74999   0.00000  Uiso   1.00
N798   N     0.21597   0.49999   0.75001   0.00000  Uiso   1.00
O799   O     0.03958   0.43989   0.75000   0.00000  Uiso   1.00
O800   O     0.29375   0.56011   0.75000   0.00000  Uiso   1.00
O801   O     0.29372   0.43988   0.75000   0.00000  Uiso   1.00
O802   O     0.03961   0.56012   0.74999   0.00000  Uiso   1.00
O803   O     0.01852   0.50001   0.81491   0.00000  Uiso   1.00
O804   O     0.31481   0.49999   0.68508   0.00000  Uiso   1.00
O805   O     0.27267   0.50000   0.81492   0.00000  Uiso   1.00
O806   O     0.06067   0.50000   0.68508   0.00000  Uiso   1.00
C807   C     0.66636   0.42079   0.75109   0.00000  Uiso   1.00
C808   C     0.37230   0.35581   0.72329   0.00000  Uiso   1.00
C809   C     0.33373   0.62384   0.74853   0.00000  Uiso   1.00
C810   C     0.66627   0.37616   0.75147   0.00000  Uiso   1.00
C811   C     0.51720   0.47385   0.77757   0.00000  Uiso   1.00
C812   C     0.48280   0.52615   0.72243   0.00000  Uiso   1.00
C813   C     0.46782   0.47368   0.77766   0.00000  Uiso   1.00
C814   C     0.53218   0.52632   0.72234   0.00000  Uiso   1.00
C815   C     0.63944   0.49952   0.83610   0.00000  Uiso   1.00
C816   C     0.36056   0.50048   0.66390   0.00000  Uiso   1.00
C817   C     0.62428   0.49599   0.88529   0.00000  Uiso   1.00
C818   C     0.33364   0.57921   0.74891   0.00000  Uiso   1.00
C819   C     0.37572   0.50401   0.61471   0.00000  Uiso   1.00
C820   C     0.63909   0.47625   0.95615   0.00000  Uiso   1.00
C821   C     0.36091   0.52375   0.54385   0.00000  Uiso   1.00
C822   C     0.65569   0.48126   0.90970   0.00000  Uiso   1.00
C823   C     0.34431   0.51874   0.59030   0.00000  Uiso   1.00
C824   C     0.57629   0.50496   0.90774   0.00000  Uiso   1.00
C825   C     0.42371   0.49504   0.59226   0.00000  Uiso   1.00
C826   C     0.55731   0.49550   0.95355   0.00000  Uiso   1.00
C827   C     0.44269   0.50450   0.54645   0.00000  Uiso   1.00
C828   C     0.59050   0.48428   0.97829   0.00000  Uiso   1.00
C829   C     0.52942   0.49689   0.54742   0.00000  Uiso   1.00
C830   C     0.40950   0.51572   0.52171   0.00000  Uiso   1.00
C831   C     0.50716   0.49973   0.97597   0.00000  Uiso   1.00
C832   C     0.49284   0.50027   0.52403   0.00000  Uiso   1.00
C833   C     0.47058   0.50311   0.95258   0.00000  Uiso   1.00
C834   C     0.57603   0.48489   0.52490   0.00000  Uiso   1.00
C835   C     0.42397   0.51511   0.97510   0.00000  Uiso   1.00
C836   C     0.62714   0.35361   0.77862   0.00000  Uiso   1.00
C837   C     0.37286   0.64639   0.72138   0.00000  Uiso   1.00
C838   C     0.62770   0.64419   0.77671   0.00000  Uiso   1.00
Cl839  Cl    0.52362   0.51551   0.60204   0.00000  Uiso   1.00
Cl840  Cl    0.47638   0.48449   0.89796   0.00000  Uiso   1.00
Cl841  Cl    0.57833   0.37733   0.81734   0.00000  Uiso   1.00
Cl842  Cl    0.42167   0.62267   0.68266   0.00000  Uiso   1.00
Cl843  Cl    0.42966   0.43844   0.81415   0.00000  Uiso   1.00
Cl844  Cl    0.57034   0.56156   0.68585   0.00000  Uiso   1.00
Cu845  Cu    0.38022   0.50001   0.75000   0.00000  Uiso   1.00
Cu846  Cu    0.61978   0.49999   0.75000   0.00000  Uiso   1.00
H847   H     0.60248   0.48005   0.54380   0.00000  Uiso   1.00
H848   H     0.40210   0.37328   0.70192   0.00000  Uiso   1.00
H849   H     0.52973   0.45302   0.79971   0.00000  Uiso   1.00
H850   H     0.47027   0.54698   0.70029   0.00000  Uiso   1.00
H851   H     0.39752   0.51995   0.95620   0.00000  Uiso   1.00
H852   H     0.44514   0.47875   0.61077   0.00000  Uiso   1.00
H853   H     0.55486   0.52125   0.88923   0.00000  Uiso   1.00
H854   H     0.64032   0.52582   0.60689   0.00000  Uiso   1.00
H855   H     0.35968   0.47418   0.89311   0.00000  Uiso   1.00
H856   H     0.66430   0.46650   0.97487   0.00000  Uiso   1.00
H857   H     0.33570   0.53350   0.52513   0.00000  Uiso   1.00
H858   H     0.59790   0.62672   0.79808   0.00000  Uiso   1.00
N859   N     0.45069   0.50001   0.74999   0.00000  Uiso   1.00
N860   N     0.54931   0.49999   0.75001   0.00000  Uiso   1.00
O861   O     0.37291   0.43989   0.75000   0.00000  Uiso   1.00
O862   O     0.62709   0.56011   0.75000   0.00000  Uiso   1.00
O863   O     0.62706   0.43988   0.75000   0.00000  Uiso   1.00
O864   O     0.37294   0.56012   0.74999   0.00000  Uiso   1.00
O865   O     0.35186   0.50001   0.81491   0.00000  Uiso   1.00
O866   O     0.64814   0.49999   0.68508   0.00000  Uiso   1.00
O867   O     0.60600   0.50000   0.81492   0.00000  Uiso   1.00
O868   O     0.39400   0.50000   0.68508   0.00000  Uiso   1.00
C869   C     0.99969   0.42079   0.75109   0.00000  Uiso   1.00
C870   C     0.70563   0.35581   0.72329   0.00000  Uiso   1.00
C871   C     0.66707   0.62384   0.74853   0.00000  Uiso   1.00
C872   C     0.99960   0.37616   0.75147   0.00000  Uiso   1.00
C873   C     0.85054   0.47385   0.77757   0.00000  Uiso   1.00
C874   C     0.81613   0.52615   0.72243   0.00000  Uiso   1.00
C875   C     0.80116   0.47368   0.77766   0.00000  Uiso   1.00
C876   C     0.86551   0.52632   0.72234   0.00000  Uiso   1.00
C877   C     0.97278   0.49952   0.83610   0.00000  Uiso   1.00
C878   C     0.69389   0.50048   0.66390   0.00000  Uiso   1.00
C879   C     0.95762   0.49599   0.88529   0.00000  Uiso   1.00
C880   C     0.66697   0.57921   0.74891   0.00000  Uiso   1.00
C881   C     0.70905   0.50401   0.61471   0.00000  Uiso   1.00
C882   C     0.97242   0.47625   0.95615   0.00000  Uiso   1.00
C883   C     0.69425   0.52375   0.54385   0.00000  Uiso   1.00
C884   C     0.98902   0.48126   0.90970   0.00000  Uiso   1.00
C885   C     0.67765   0.51874   0.59030   0.00000  Uiso   1.00
C886   C     0.90963   0.50496   0.90774   0.00000  Uiso   1.00
C887   C     0.75704   0.49504   0.59226   0.00000  Uiso   1.00
C888   C     0.89064   0.49550   0.95355   0.00000  Uiso   1.00
C889   C     0.77602   0.50450   0.54645   0.00000  Uiso   1.00
C890   C     0.92383   0.48428   0.97829   0.00000  Uiso   1.00
C891   C     0.86275   0.49689   0.54742   0.00000  Uiso   1.00
C892   C     0.74284   0.51572   0.52171   0.00000  Uiso   1.00
C893   C     0.84050   0.49973   0.97597   0.00000  Uiso   1.00
C894   C     0.82617   0.50027   0.52403   0.00000  Uiso   1.00
C895   C     0.80391   0.50311   0.95258   0.00000  Uiso   1.00
C896   C     0.90936   0.48489   0.52490   0.00000  Uiso   1.00
C897   C     0.75730   0.51511   0.97510   0.00000  Uiso   1.00
C898   C     0.96047   0.35361   0.77862   0.00000  Uiso   1.00
C899   C     0.70619   0.64639   0.72138   0.00000  Uiso   1.00
C900   C     0.96103   0.64419   0.77671   0.00000  Uiso   1.00
Cl901  Cl    0.85695   0.51551   0.60204   0.00000  Uiso   1.00
Cl902  Cl    0.80972   0.48449   0.89796   0.00000  Uiso   1.00
Cl903  Cl    0.91167   0.37733   0.81734   0.00000  Uiso   1.00
Cl904  Cl    0.75500   0.62267   0.68266   0.00000  Uiso   1.00
Cl905  Cl    0.76299   0.43844   0.81415   0.00000  Uiso   1.00
Cl906  Cl    0.90367   0.56156   0.68585   0.00000  Uiso   1.00
Cu907  Cu    0.71355   0.50001   0.75000   0.00000  Uiso   1.00
Cu908  Cu    0.95311   0.49999   0.75000   0.00000  Uiso   1.00
H909   H     0.93581   0.48005   0.54380   0.00000  Uiso   1.00
H910   H     0.73543   0.37328   0.70192   0.00000  Uiso   1.00
H911   H     0.86307   0.45302   0.79971   0.00000  Uiso   1.00
H912   H     0.80360   0.54698   0.70029   0.00000  Uiso   1.00
H913   H     0.73085   0.51995   0.95620   0.00000  Uiso   1.00
H914   H     0.77848   0.47875   0.61077   0.00000  Uiso   1.00
H915   H     0.88819   0.52125   0.88923   0.00000  Uiso   1.00
H916   H     0.97365   0.52582   0.60689   0.00000  Uiso   1.00
H917   H     0.69301   0.47418   0.89311   0.00000  Uiso   1.00
H918   H     0.99763   0.46650   0.97487   0.00000  Uiso   1.00
H919   H     0.66904   0.53350   0.52513   0.00000  Uiso   1.00
H920   H     0.93124   0.62672   0.79808   0.00000  Uiso   1.00
N921   N     0.78403   0.50001   0.74999   0.00000  Uiso   1.00
N922   N     0.88264   0.49999   0.75001   0.00000  Uiso   1.00
O923   O     0.70625   0.43989   0.75000   0.00000  Uiso   1.00
O924   O     0.96042   0.56011   0.75000   0.00000  Uiso   1.00
O925   O     0.96039   0.43988   0.75000   0.00000  Uiso   1.00
O926   O     0.70628   0.56012   0.74999   0.00000  Uiso   1.00
O927   O     0.68519   0.50001   0.81491   0.00000  Uiso   1.00
O928   O     0.98148   0.49999   0.68508   0.00000  Uiso   1.00
O929   O     0.93933   0.50000   0.81492   0.00000  Uiso   1.00
O930   O     0.72733   0.50000   0.68508   0.00000  Uiso   1.00
C931   C     0.33303   0.75413   0.75109   0.00000  Uiso   1.00
C932   C     0.03897   0.68915   0.72329   0.00000  Uiso   1.00
C933   C     0.00040   0.95717   0.74853   0.00000  Uiso   1.00
C934   C     0.33293   0.70949   0.75147   0.00000  Uiso   1.00
C935   C     0.18387   0.80718   0.77757   0.00000  Uiso   1.00
C936   C     0.14947   0.85949   0.72243   0.00000  Uiso   1.00
C937   C     0.13449   0.80701   0.77766   0.00000  Uiso   1.00
C938   C     0.19884   0.85966   0.72234   0.00000  Uiso   1.00
C939   C     0.30611   0.83285   0.83610   0.00000  Uiso   1.00
C940   C     0.02722   0.83382   0.66390   0.00000  Uiso   1.00
C941   C     0.29095   0.82933   0.88529   0.00000  Uiso   1.00
C942   C     0.00031   0.91254   0.74891   0.00000  Uiso   1.00
C943   C     0.04238   0.83734   0.61471   0.00000  Uiso   1.00
C944   C     0.30575   0.80958   0.95615   0.00000  Uiso   1.00
C945   C     0.02758   0.85708   0.54385   0.00000  Uiso   1.00
C946   C     0.32235   0.81459   0.90970   0.00000  Uiso   1.00
C947   C     0.01098   0.85207   0.59030   0.00000  Uiso   1.00
C948   C     0.24296   0.83829   0.90774   0.00000  Uiso   1.00
C949   C     0.09037   0.82837   0.59226   0.00000  Uiso   1.00
C950   C     0.22398   0.82883   0.95355   0.00000  Uiso   1.00
C951   C     0.10936   0.83783   0.54645   0.00000  Uiso   1.00
C952   C     0.25716   0.81761   0.97829   0.00000  Uiso   1.00
C953   C     0.19609   0.83022   0.54742   0.00000  Uiso   1.00
C954   C     0.07617   0.84905   0.52171   0.00000  Uiso   1.00
C955   C     0.17383   0.83306   0.97597   0.00000  Uiso   1.00
C956   C     0.15950   0.83360   0.52403   0.00000  Uiso   1.00
C957   C     0.13725   0.83644   0.95258   0.00000  Uiso   1.00
C958   C     0.24270   0.81823   0.52490   0.00000  Uiso   1.00
C959   C     0.09064   0.84844   0.97510   0.00000  Uiso   1.00
C960   C     0.29381   0.68695   0.77862   0.00000  Uiso   1.00
C961   C     0.03953   0.97972   0.72138   0.00000  Uiso   1.00
C962   C     0.29437   0.97752   0.77671   0.00000  Uiso   1.00
Cl963  Cl    0.19028   0.84884   0.60204   0.00000  Uiso   1.00
Cl964  Cl    0.14305   0.81782   0.89796   0.00000  Uiso   1.00
Cl965  Cl    0.24500   0.71066   0.81734   0.00000  Uiso   1.00
Cl966  Cl    0.08833   0.95600   0.68266   0.00000  Uiso   1.00
Cl967  Cl    0.09633   0.77178   0.81415   0.00000  Uiso   1.00
Cl968  Cl    0.23701   0.89489   0.68585   0.00000  Uiso   1.00
Cu969  Cu    0.04689   0.83334   0.75000   0.00000  Uiso   1.00
Cu970  Cu    0.28645   0.83333   0.75000   0.00000  Uiso   1.00
H971   H     0.26915   0.81338   0.54380   0.00000  Uiso   1.00
H972   H     0.06876   0.70661   0.70192   0.00000  Uiso   1.00
H973   H     0.19640   0.78636   0.79971   0.00000  Uiso   1.00
H974   H     0.13693   0.88031   0.70029   0.00000  Uiso   1.00
H975   H     0.06419   0.85329   0.95620   0.00000  Uiso   1.00
H976   H     0.11181   0.81209   0.61077   0.00000  Uiso   1.00
H977   H     0.22152   0.85458   0.88923   0.00000  Uiso   1.00
H978   H     0.30699   0.85915   0.60689   0.00000  Uiso   1.00
H979   H     0.02635   0.80752   0.89311   0.00000  Uiso   1.00
H980   H     0.33096   0.79983   0.97487   0.00000  Uiso   1.00
H981   H     0.00237   0.86683   0.52513   0.00000  Uiso   1.00
H982   H     0.26457   0.96005   0.79808   0.00000  Uiso   1.00
N983   N     0.11736   0.83334   0.74999   0.00000  Uiso   1.00
N984   N     0.21597   0.83332   0.75001   0.00000  Uiso   1.00
O985   O     0.03958   0.77322   0.75000   0.00000  Uiso   1.00
O986   O     0.29375   0.89345   0.75000   0.00000  Uiso   1.00
O987   O     0.29372   0.77321   0.75000   0.00000  Uiso   1.00
O988   O     0.03961   0.89346   0.74999   0.00000  Uiso   1.00
O989   O     0.01852   0.83334   0.81491   0.00000  Uiso   1.00
O990   O     0.31481   0.83332   0.68508   0.00000  Uiso   1.00
O991   O     0.27267   0.83333   0.81492   0.00000  Uiso   1.00
O992   O     0.06067   0.83333   0.68508   0.00000  Uiso   1.00
C993   C     0.66636   0.75413   0.75109   0.00000  Uiso   1.00
C994   C     0.37230   0.68915   0.72329   0.00000  Uiso   1.00
C995   C     0.33373   0.95717   0.74853   0.00000  Uiso   1.00
C996   C     0.66627   0.70949   0.75147   0.00000  Uiso   1.00
C997   C     0.51720   0.80718   0.77757   0.00000  Uiso   1.00
C998   C     0.48280   0.85949   0.72243   0.00000  Uiso   1.00
C999   C     0.46782   0.80701   0.77766   0.00000  Uiso   1.00
C1000  C     0.53218   0.85966   0.72234   0.00000  Uiso   1.00
C1001  C     0.63944   0.83285   0.83610   0.00000  Uiso   1.00
C1002  C     0.36056   0.83382   0.66390   0.00000  Uiso   1.00
C1003  C     0.62428   0.82933   0.88529   0.00000  Uiso   1.00
C1004  C     0.33364   0.91254   0.74891   0.00000  Uiso   1.00
C1005  C     0.37572   0.83734   0.61471   0.00000  Uiso   1.00
C1006  C     0.63909   0.80958   0.95615   0.00000  Uiso   1.00
C1007  C     0.36091   0.85708   0.54385   0.00000  Uiso   1.00
C1008  C     0.65569   0.81459   0.90970   0.00000  Uiso   1.00
C1009  C     0.34431   0.85207   0.59030   0.00000  Uiso   1.00
C1010  C     0.57629   0.83829   0.90774   0.00000  Uiso   1.00
C1011  C     0.42371   0.82837   0.59226   0.00000  Uiso   1.00
C1012  C     0.55731   0.82883   0.95355   0.00000  Uiso   1.00
C1013  C     0.44269   0.83783   0.54645   0.00000  Uiso   1.00
C1014  C     0.59050   0.81761   0.97829   0.00000  Uiso   1.00
C1015  C     0.52942   0.83022   0.54742   0.00000  Uiso   1.00
C1016  C     0.40950   0.84905   0.52171   0.00000  Uiso   1.00
C1017  C     0.50716   0.83306   0.97597   0.00000  Uiso   1.00
C1018  C     0.49284   0.83360   0.52403   0.00000  Uiso   1.00
C1019  C     0.47058   0.83644   0.95258   0.00000  Uiso   1.00
C1020  C     0.57603   0.81823   0.52490   0.00000  Uiso   1.00
C1021  C     0.42397   0.84844   0.97510   0.00000  Uiso   1.00
C1022  C     0.62714   0.68695   0.77862   0.00000  Uiso   1.00
C1023  C     0.37286   0.97972   0.72138   0.00000  Uiso   1.00
C1024  C     0.62770   0.97752   0.77671   0.00000  Uiso   1.00
Cl1025 Cl    0.52362   0.84884   0.60204   0.00000  Uiso   1.00
Cl1026 Cl    0.47638   0.81782   0.89796   0.00000  Uiso   1.00
Cl1027 Cl    0.57833   0.71066   0.81734   0.00000  Uiso   1.00
Cl1028 Cl    0.42167   0.95600   0.68266   0.00000  Uiso   1.00
Cl1029 Cl    0.42966   0.77178   0.81415   0.00000  Uiso   1.00
Cl1030 Cl    0.57034   0.89489   0.68585   0.00000  Uiso   1.00
Cu1031 Cu    0.38022   0.83334   0.75000   0.00000  Uiso   1.00
Cu1032 Cu    0.61978   0.83333   0.75000   0.00000  Uiso   1.00
H1033  H     0.60248   0.81338   0.54380   0.00000  Uiso   1.00
H1034  H     0.40210   0.70661   0.70192   0.00000  Uiso   1.00
H1035  H     0.52973   0.78636   0.79971   0.00000  Uiso   1.00
H1036  H     0.47027   0.88031   0.70029   0.00000  Uiso   1.00
H1037  H     0.39752   0.85329   0.95620   0.00000  Uiso   1.00
H1038  H     0.44514   0.81209   0.61077   0.00000  Uiso   1.00
H1039  H     0.55486   0.85458   0.88923   0.00000  Uiso   1.00
H1040  H     0.64032   0.85915   0.60689   0.00000  Uiso   1.00
H1041  H     0.35968   0.80752   0.89311   0.00000  Uiso   1.00
H1042  H     0.66430   0.79983   0.97487   0.00000  Uiso   1.00
H1043  H     0.33570   0.86683   0.52513   0.00000  Uiso   1.00
H1044  H     0.59790   0.96005   0.79808   0.00000  Uiso   1.00
N1045  N     0.45069   0.83334   0.74999   0.00000  Uiso   1.00
N1046  N     0.54931   0.83332   0.75001   0.00000  Uiso   1.00
O1047  O     0.37291   0.77322   0.75000   0.00000  Uiso   1.00
O1048  O     0.62709   0.89345   0.75000   0.00000  Uiso   1.00
O1049  O     0.62706   0.77321   0.75000   0.00000  Uiso   1.00
O1050  O     0.37294   0.89346   0.74999   0.00000  Uiso   1.00
O1051  O     0.35186   0.83334   0.81491   0.00000  Uiso   1.00
O1052  O     0.64814   0.83332   0.68508   0.00000  Uiso   1.00
O1053  O     0.60600   0.83333   0.81492   0.00000  Uiso   1.00
O1054  O     0.39400   0.83333   0.68508   0.00000  Uiso   1.00
C1055  C     0.99969   0.75413   0.75109   0.00000  Uiso   1.00
C1056  C     0.70563   0.68915   0.72329   0.00000  Uiso   1.00
C1057  C     0.66707   0.95717   0.74853   0.00000  Uiso   1.00
C1058  C     0.99960   0.70949   0.75147   0.00000  Uiso   1.00
C1059  C     0.85054   0.80718   0.77757   0.00000  Uiso   1.00
C1060  C     0.81613   0.85949   0.72243   0.00000  Uiso   1.00
C1061  C     0.80116   0.80701   0.77766   0.00000  Uiso   1.00
C1062  C     0.86551   0.85966   0.72234   0.00000  Uiso   1.00
C1063  C     0.97278   0.83285   0.83610   0.00000  Uiso   1.00
C1064  C     0.69389   0.83382   0.66390   0.00000  Uiso   1.00
C1065  C     0.95762   0.82933   0.88529   0.00000  Uiso   1.00
C1066  C     0.66697   0.91254   0.74891   0.00000  Uiso   1.00
C1067  C     0.70905   0.83734   0.61471   0.00000  Uiso   1.00
C1068  C     0.97242   0.80958   0.95615   0.00000  Uiso   1.00
C1069  C     0.69425   0.85708   0.54385   0.00000  Uiso   1.00
C1070  C     0.98902   0.81459   0.90970   0.00000  Uiso   1.00
C1071  C     0.67765   0.85207   0.59030   0.00000  Uiso   1.00
C1072  C     0.90963   0.83829   0.90774   0.00000  Uiso   1.00
C1073  C     0.75704   0.82837   0.59226   0.00000  Uiso   1.00
C1074  C     0.89064   0.82883   0.95355   0.00000  Uiso   1.00
C1075  C     0.77602   0.83783   0.54645   0.00000  Uiso   1.00
C1076  C     0.92383   0.81761   0.97829   0.00000  Uiso   1.00
C1077  C     0.86275   0.83022   0.54742   0.00000  Uiso   1.00
C1078  C     0.74284   0.84905   0.52171   0.00000  Uiso   1.00
C1079  C     0.84050   0.83306   0.97597   0.00000  Uiso   1.00
C1080  C     0.82617   0.83360   0.52403   0.00000  Uiso   1.00
C1081  C     0.80391   0.83644   0.95258   0.00000  Uiso   1.00
C1082  C     0.90936   0.81823   0.52490   0.00000  Uiso   1.00
C1083  C     0.75730   0.84844   0.97510   0.00000  Uiso   1.00
C1084  C     0.96047   0.68695   0.77862   0.00000  Uiso   1.00
C1085  C     0.70619   0.97972   0.72138   0.00000  Uiso   1.00
C1086  C     0.96103   0.97752   0.77671   0.00000  Uiso   1.00
Cl1087 Cl    0.85695   0.84884   0.60204   0.00000  Uiso   1.00
Cl1088 Cl    0.80972   0.81782   0.89796   0.00000  Uiso   1.00
Cl1089 Cl    0.91167   0.71066   0.81734   0.00000  Uiso   1.00
Cl1090 Cl    0.75500   0.95600   0.68266   0.00000  Uiso   1.00
Cl1091 Cl    0.76299   0.77178   0.81415   0.00000  Uiso   1.00
Cl1092 Cl    0.90367   0.89489   0.68585   0.00000  Uiso   1.00
Cu1093 Cu    0.71355   0.83334   0.75000   0.00000  Uiso   1.00
Cu1094 Cu    0.95311   0.83333   0.75000   0.00000  Uiso   1.00
H1095  H     0.93581   0.81338   0.54380   0.00000  Uiso   1.00
H1096  H     0.73543   0.70661   0.70192   0.00000  Uiso   1.00
H1097  H     0.86307   0.78636   0.79971   0.00000  Uiso   1.00
H1098  H     0.80360   0.88031   0.70029   0.00000  Uiso   1.00
H1099  H     0.73085   0.85329   0.95620   0.00000  Uiso   1.00
H1100  H     0.77848   0.81209   0.61077   0.00000  Uiso   1.00
H1101  H     0.88819   0.85458   0.88923   0.00000  Uiso   1.00
H1102  H     0.97365   0.85915   0.60689   0.00000  Uiso   1.00
H1103  H     0.69301   0.80752   0.89311   0.00000  Uiso   1.00
H1104  H     0.99763   0.79983   0.97487   0.00000  Uiso   1.00
H1105  H     0.66904   0.86683   0.52513   0.00000  Uiso   1.00
H1106  H     0.93124   0.96005   0.79808   0.00000  Uiso   1.00
N1107  N     0.78403   0.83334   0.74999   0.00000  Uiso   1.00
N1108  N     0.88264   0.83332   0.75001   0.00000  Uiso   1.00
O1109  O     0.70625   0.77322   0.75000   0.00000  Uiso   1.00
O1110  O     0.96042   0.89345   0.75000   0.00000  Uiso   1.00
O1111  O     0.96039   0.77321   0.75000   0.00000  Uiso   1.00
O1112  O     0.70628   0.89346   0.74999   0.00000  Uiso   1.00
O1113  O     0.68519   0.83334   0.81491   0.00000  Uiso   1.00
O1114  O     0.98148   0.83332   0.68508   0.00000  Uiso   1.00
O1115  O     0.93933   0.83333   0.81492   0.00000  Uiso   1.00
O1116  O     0.72733   0.83333   0.68508   0.00000  Uiso   1.00
loop_
_geom_bond_atom_site_label_1
_geom_bond_atom_site_label_2
_geom_bond_distance
_geom_bond_site_symmetry_2
_ccdc_geom_bond_type
C1     O57     1.292   .     A
C1     C4      1.445   .     S
C1     O117    1.295   .     S
C2     H42     1.084   .     S
C2     C128    1.398   1_455 S
C2     C403    1.386   1_545 S
C3     C31     1.407   .     A
C3     C12     1.445   .     S
C3     C156    1.398   1_455 S
C4     C30     1.407   .     A
C4     C64     1.398   .     S
C5     N54     1.361   .     A
C5     C7      1.416   .     A
C5     H43     1.080   .     S
C6     H44     1.080   .     S
C6     N53     1.361   .     A
C6     C8      1.416   .     A
C7     Cl37    1.754   .     S
C7     N53     1.378   .     A
C8     Cl38    1.754   .     S
C8     N54     1.378   .     A
C9     C11     1.468   .     S
C9     O61     1.298   .     A
C9     O121    1.301   .     S
C10    O62     1.298   .     A
C10    C13     1.468   .     S
C10    O184    1.301   1_455 S
C11    C18     1.398   .     A
C11    C16     1.399   .     A
C12    O58     1.292   .     A
C12    O180    1.295   1_455 S
C13    C17     1.399   .     A
C13    C19     1.398   .     A
C14    C22     1.404   .     A
C14    C16     1.393   .     A
C14    H50     1.084   .     S
C15    C24     1.404   .     A
C15    H51     1.084   .     S
C15    C17     1.393   .     A
C16    H111    1.082   .     S
C17    H172    1.082   1_455 S
C18    H47     1.077   .     S
C18    C20     1.403   .     A
C19    H46     1.077   .     S
C19    C21     1.403   .     A
C20    C25     1.427   .     A
C20    C22     1.415   .     A
C21    C26     1.427   .     A
C21    C24     1.415   .     A
C22    C586    1.388   .     S
C23    C28     1.389   .     A
C23    C26     1.428   .     A
C23    Cl33    1.766   .     S
C24    C587    1.388   1_554 S
C25    C27     1.428   .     A
C25    C584    1.431   .     S
C26    C583    1.431   1_554 S
C27    C29     1.389   .     A
C27    Cl34    1.766   .     S
C28    H41     1.084   .     S
C28    C580    1.388   1_554 S
C29    H45     1.084   .     S
C29    C582    1.388   .     S
C30    Cl35    1.763   .     S
C30    C404    1.386   1_545 S
C31    Cl36    1.763   .     S
C31    C188    1.386   .     S
C32    H52     1.084   .     S
C32    C65     1.398   .     S
C32    C216    1.386   .     S
Cu39   O59     1.952   .     S
Cu39   N53     2.022   .     S
Cu39   O62     1.938   .     S
Cu39   O58     1.957   .     S
Cu39   O55     1.958   .     S
Cu39   Cu164   2.691   1_455 S
Cu40   O60     1.952   .     S
Cu40   O57     1.957   .     S
Cu40   O61     1.938   .     S
Cu40   N54     2.022   .     S
Cu40   O56     1.958   .     S
Cu40   Cu101   2.691   .     S
H48    C79     1.082   .     S
H49    C140    1.082   1_455 S
O55    C125    1.295   1_455 S
O56    C74     1.295   .     S
O59    C133    1.301   1_455 S
O60    C72     1.301   .     S
C63    O119    1.292   .     A
C63    C66     1.445   .     S
C63    O179    1.295   .     S
C64    H104    1.084   .     S
C64    C465    1.386   1_545 S
C65    C93     1.407   .     A
C65    C74     1.445   .     S
C66    C92     1.407   .     A
C66    C126    1.398   .     S
C67    N116    1.361   .     A
C67    C69     1.416   .     A
C67    H105    1.080   .     S
C68    H106    1.080   .     S
C68    N115    1.361   .     A
C68    C70     1.416   .     A
C69    Cl99    1.754   .     S
C69    N115    1.378   .     A
C70    Cl100   1.754   .     S
C70    N116    1.378   .     A
C71    C73     1.468   .     S
C71    O123    1.298   .     A
C71    O183    1.301   .     S
C72    O124    1.298   .     A
C72    C75     1.468   .     S
C73    C80     1.398   .     A
C73    C78     1.399   .     A
C74    O120    1.292   .     A
C75    C79     1.399   .     A
C75    C81     1.398   .     A
C76    C84     1.404   .     A
C76    C78     1.393   .     A
C76    H112    1.084   .     S
C77    C86     1.404   .     A
C77    H113    1.084   .     S
C77    C79     1.393   .     A
C78    H173    1.082   .     S
C80    H109    1.077   .     S
C80    C82     1.403   .     A
C81    H108    1.077   .     S
C81    C83     1.403   .     A
C82    C87     1.427   .     A
C82    C84     1.415   .     A
C83    C88     1.427   .     A
C83    C86     1.415   .     A
C84    C648    1.388   .     S
C85    C90     1.389   .     A
C85    C88     1.428   .     A
C85    Cl95    1.766   .     S
C86    C649    1.388   1_554 S
C87    C89     1.428   .     A
C87    C646    1.431   .     S
C88    C645    1.431   1_554 S
C89    C91     1.389   .     A
C89    Cl96    1.766   .     S
C90    H103    1.084   .     S
C90    C642    1.388   1_554 S
C91    H107    1.084   .     S
C91    C644    1.388   .     S
C92    Cl97    1.763   .     S
C92    C466    1.386   1_545 S
C93    Cl98    1.763   .     S
C93    C250    1.386   .     S
C94    H114    1.084   .     S
C94    C127    1.398   .     S
C94    C278    1.386   .     S
Cu101  O121    1.952   .     S
Cu101  N115    2.022   .     S
Cu101  O124    1.938   .     S
Cu101  O120    1.957   .     S
Cu101  O117    1.958   .     S
Cu102  O122    1.952   .     S
Cu102  O119    1.957   .     S
Cu102  O123    1.938   .     S
Cu102  N116    2.022   .     S
Cu102  O118    1.958   .     S
Cu102  Cu163   2.691   .     S
H110   C141    1.082   .     S
O118   C136    1.295   .     S
O122   C134    1.301   .     S
C125   O181    1.292   .     A
C125   C128    1.445   .     S
C125   O55     1.295   1_655 S
C126   H166    1.084   .     S
C126   C527    1.386   1_545 S
C127   C155    1.407   .     A
C127   C136    1.445   .     S
C128   C154    1.407   .     A
C128   C2      1.398   1_655 S
C129   N178    1.361   .     A
C129   C131    1.416   .     A
C129   H167    1.080   .     S
C130   H168    1.080   .     S
C130   N177    1.361   .     A
C130   C132    1.416   .     A
C131   Cl161   1.754   .     S
C131   N177    1.378   .     A
C132   Cl162   1.754   .     S
C132   N178    1.378   .     A
C133   C135    1.468   .     S
C133   O185    1.298   .     A
C133   O59     1.301   1_655 S
C134   O186    1.298   .     A
C134   C137    1.468   .     S
C135   C142    1.398   .     A
C135   C140    1.399   .     A
C136   O182    1.292   .     A
C137   C141    1.399   .     A
C137   C143    1.398   .     A
C138   C146    1.404   .     A
C138   C140    1.393   .     A
C138   H174    1.084   .     S
C139   C148    1.404   .     A
C139   H175    1.084   .     S
C139   C141    1.393   .     A
C140   H49     1.082   1_655 S
C142   H171    1.077   .     S
C142   C144    1.403   .     A
C143   H170    1.077   .     S
C143   C145    1.403   .     A
C144   C149    1.427   .     A
C144   C146    1.415   .     A
C145   C150    1.427   .     A
C145   C148    1.415   .     A
C146   C710    1.388   .     S
C147   C152    1.389   .     A
C147   C150    1.428   .     A
C147   Cl157   1.766   .     S
C148   C711    1.388   1_554 S
C149   C151    1.428   .     A
C149   C708    1.431   .     S
C150   C707    1.431   1_554 S
C151   C153    1.389   .     A
C151   Cl158   1.766   .     S
C152   H165    1.084   .     S
C152   C704    1.388   1_554 S
C153   H169    1.084   .     S
C153   C706    1.388   .     S
C154   Cl159   1.763   .     S
C154   C528    1.386   1_545 S
C155   Cl160   1.763   .     S
C155   C312    1.386   .     S
C156   H176    1.084   .     S
C156   C3      1.398   1_655 S
C156   C340    1.386   .     S
Cu163  O183    1.952   .     S
Cu163  N177    2.022   .     S
Cu163  O186    1.938   .     S
Cu163  O182    1.957   .     S
Cu163  O179    1.958   .     S
Cu164  O184    1.952   .     S
Cu164  O181    1.957   .     S
Cu164  O185    1.938   .     S
Cu164  N178    2.022   .     S
Cu164  O180    1.958   .     S
Cu164  Cu39    2.691   1_655 S
H172   C17     1.082   1_655 S
O180   C12     1.295   1_655 S
O184   C10     1.301   1_655 S
C187   O243    1.292   .     A
C187   C190    1.445   .     S
C187   O303    1.295   .     S
C188   H228    1.084   .     S
C188   C314    1.398   1_455 S
C189   C217    1.407   .     A
C189   C198    1.445   .     S
C189   C342    1.398   1_455 S
C190   C216    1.407   .     A
C190   C250    1.398   .     S
C191   N240    1.361   .     A
C191   C193    1.416   .     A
C191   H229    1.080   .     S
C192   H230    1.080   .     S
C192   N239    1.361   .     A
C192   C194    1.416   .     A
C193   Cl223   1.754   .     S
C193   N239    1.378   .     A
C194   Cl224   1.754   .     S
C194   N240    1.378   .     A
C195   C197    1.468   .     S
C195   O247    1.298   .     A
C195   O307    1.301   .     S
C196   O248    1.298   .     A
C196   C199    1.468   .     S
C196   O370    1.301   1_455 S
C197   C204    1.398   .     A
C197   C202    1.399   .     A
C198   O244    1.292   .     A
C198   O366    1.295   1_455 S
C199   C203    1.399   .     A
C199   C205    1.398   .     A
C200   C208    1.404   .     A
C200   C202    1.393   .     A
C200   H236    1.084   .     S
C201   C210    1.404   .     A
C201   H237    1.084   .     S
C201   C203    1.393   .     A
C202   H297    1.082   .     S
C203   H358    1.082   1_455 S
C204   H233    1.077   .     S
C204   C206    1.403   .     A
C205   H232    1.077   .     S
C205   C207    1.403   .     A
C206   C211    1.427   .     A
C206   C208    1.415   .     A
C207   C212    1.427   .     A
C207   C210    1.415   .     A
C208   C772    1.388   .     S
C209   C214    1.389   .     A
C209   C212    1.428   .     A
C209   Cl219   1.766   .     S
C210   C773    1.388   1_554 S
C211   C213    1.428   .     A
C211   C770    1.431   .     S
C212   C769    1.431   1_554 S
C213   C215    1.389   .     A
C213   Cl220   1.766   .     S
C214   H227    1.084   .     S
C214   C766    1.388   1_554 S
C215   H231    1.084   .     S
C215   C768    1.388   .     S
C216   Cl221   1.763   .     S
C217   Cl222   1.763   .     S
C217   C374    1.386   .     S
C218   H238    1.084   .     S
C218   C251    1.398   .     S
C218   C402    1.386   .     S
Cu225  O245    1.952   .     S
Cu225  N239    2.022   .     S
Cu225  O248    1.938   .     S
Cu225  O244    1.957   .     S
Cu225  O241    1.958   .     S
Cu225  Cu350   2.691   1_455 S
Cu226  O246    1.952   .     S
Cu226  O243    1.957   .     S
Cu226  O247    1.938   .     S
Cu226  N240    2.022   .     S
Cu226  O242    1.958   .     S
Cu226  Cu287   2.691   .     S
H234   C265    1.082   .     S
H235   C326    1.082   1_455 S
O241   C311    1.295   1_455 S
O242   C260    1.295   .     S
O245   C319    1.301   1_455 S
O246   C258    1.301   .     S
C249   O305    1.292   .     A
C249   C252    1.445   .     S
C249   O365    1.295   .     S
C250   H290    1.084   .     S
C251   C279    1.407   .     A
C251   C260    1.445   .     S
C252   C278    1.407   .     A
C252   C312    1.398   .     S
C253   N302    1.361   .     A
C253   C255    1.416   .     A
C253   H291    1.080   .     S
C254   H292    1.080   .     S
C254   N301    1.361   .     A
C254   C256    1.416   .     A
C255   Cl285   1.754   .     S
C255   N301    1.378   .     A
C256   Cl286   1.754   .     S
C256   N302    1.378   .     A
C257   C259    1.468   .     S
C257   O309    1.298   .     A
C257   O369    1.301   .     S
C258   O310    1.298   .     A
C258   C261    1.468   .     S
C259   C266    1.398   .     A
C259   C264    1.399   .     A
C260   O306    1.292   .     A
C261   C265    1.399   .     A
C261   C267    1.398   .     A
C262   C270    1.404   .     A
C262   C264    1.393   .     A
C262   H298    1.084   .     S
C263   C272    1.404   .     A
C263   H299    1.084   .     S
C263   C265    1.393   .     A
C264   H359    1.082   .     S
C266   H295    1.077   .     S
C266   C268    1.403   .     A
C267   H294    1.077   .     S
C267   C269    1.403   .     A
C268   C273    1.427   .     A
C268   C270    1.415   .     A
C269   C274    1.427   .     A
C269   C272    1.415   .     A
C270   C834    1.388   .     S
C271   C276    1.389   .     A
C271   C274    1.428   .     A
C271   Cl281   1.766   .     S
C272   C835    1.388   1_554 S
C273   C275    1.428   .     A
C273   C832    1.431   .     S
C274   C831    1.431   1_554 S
C275   C277    1.389   .     A
C275   Cl282   1.766   .     S
C276   H289    1.084   .     S
C276   C828    1.388   1_554 S
C277   H293    1.084   .     S
C277   C830    1.388   .     S
C278   Cl283   1.763   .     S
C279   Cl284   1.763   .     S
C279   C436    1.386   .     S
C280   H300    1.084   .     S
C280   C313    1.398   .     S
C280   C464    1.386   .     S
Cu287  O307    1.952   .     S
Cu287  N301    2.022   .     S
Cu287  O310    1.938   .     S
Cu287  O306    1.957   .     S
Cu287  O303    1.958   .     S
Cu288  O308    1.952   .     S
Cu288  O305    1.957   .     S
Cu288  O309    1.938   .     S
Cu288  N302    2.022   .     S
Cu288  O304    1.958   .     S
Cu288  Cu349   2.691   .     S
H296   C327    1.082   .     S
O304   C322    1.295   .     S
O308   C320    1.301   .     S
C311   O367    1.292   .     A
C311   C314    1.445   .     S
C311   O241    1.295   1_655 S
C312   H352    1.084   .     S
C313   C341    1.407   .     A
C313   C322    1.445   .     S
C314   C340    1.407   .     A
C314   C188    1.398   1_655 S
C315   N364    1.361   .     A
C315   C317    1.416   .     A
C315   H353    1.080   .     S
C316   H354    1.080   .     S
C316   N363    1.361   .     A
C316   C318    1.416   .     A
C317   Cl347   1.754   .     S
C317   N363    1.378   .     A
C318   Cl348   1.754   .     S
C318   N364    1.378   .     A
C319   C321    1.468   .     S
C319   O371    1.298   .     A
C319   O245    1.301   1_655 S
C320   O372    1.298   .     A
C320   C323    1.468   .     S
C321   C328    1.398   .     A
C321   C326    1.399   .     A
C322   O368    1.292   .     A
C323   C327    1.399   .     A
C323   C329    1.398   .     A
C324   C332    1.404   .     A
C324   C326    1.393   .     A
C324   H360    1.084   .     S
C325   C334    1.404   .     A
C325   H361    1.084   .     S
C325   C327    1.393   .     A
C326   H235    1.082   1_655 S
C328   H357    1.077   .     S
C328   C330    1.403   .     A
C329   H356    1.077   .     S
C329   C331    1.403   .     A
C330   C335    1.427   .     A
C330   C332    1.415   .     A
C331   C336    1.427   .     A
C331   C334    1.415   .     A
C332   C896    1.388   .     S
C333   C338    1.389   .     A
C333   C336    1.428   .     A
C333   Cl343   1.766   .     S
C334   C897    1.388   1_554 S
C335   C337    1.428   .     A
C335   C894    1.431   .     S
C336   C893    1.431   1_554 S
C337   C339    1.389   .     A
C337   Cl344   1.766   .     S
C338   H351    1.084   .     S
C338   C890    1.388   1_554 S
C339   H355    1.084   .     S
C339   C892    1.388   .     S
C340   Cl345   1.763   .     S
C341   Cl346   1.763   .     S
C341   C498    1.386   .     S
C342   H362    1.084   .     S
C342   C189    1.398   1_655 S
C342   C526    1.386   .     S
Cu349  O369    1.952   .     S
Cu349  N363    2.022   .     S
Cu349  O372    1.938   .     S
Cu349  O368    1.957   .     S
Cu349  O365    1.958   .     S
Cu350  O370    1.952   .     S
Cu350  O367    1.957   .     S
Cu350  O371    1.938   .     S
Cu350  N364    2.022   .     S
Cu350  O366    1.958   .     S
Cu350  Cu225   2.691   1_655 S
H358   C203    1.082   1_655 S
O366   C198    1.295   1_655 S
O370   C196    1.301   1_655 S
C373   O429    1.292   .     A
C373   C376    1.445   .     S
C373   O489    1.295   .     S
C374   H414    1.084   .     S
C374   C500    1.398   1_455 S
C375   C403    1.407   .     A
C375   C384    1.445   .     S
C375   C528    1.398   1_455 S
C376   C402    1.407   .     A
C376   C436    1.398   .     S
C377   N426    1.361   .     A
C377   C379    1.416   .     A
C377   H415    1.080   .     S
C378   H416    1.080   .     S
C378   N425    1.361   .     A
C378   C380    1.416   .     A
C379   Cl409   1.754   .     S
C379   N425    1.378   .     A
C380   Cl410   1.754   .     S
C380   N426    1.378   .     A
C381   C383    1.468   .     S
C381   O433    1.298   .     A
C381   O493    1.301   .     S
C382   O434    1.298   .     A
C382   C385    1.468   .     S
C382   O556    1.301   1_455 S
C383   C390    1.398   .     A
C383   C388    1.399   .     A
C384   O430    1.292   .     A
C384   O552    1.295   1_455 S
C385   C389    1.399   .     A
C385   C391    1.398   .     A
C386   C394    1.404   .     A
C386   C388    1.393   .     A
C386   H422    1.084   .     S
C387   C396    1.404   .     A
C387   H423    1.084   .     S
C387   C389    1.393   .     A
C388   H483    1.082   .     S
C389   H544    1.082   1_455 S
C390   H419    1.077   .     S
C390   C392    1.403   .     A
C391   H418    1.077   .     S
C391   C393    1.403   .     A
C392   C397    1.427   .     A
C392   C394    1.415   .     A
C393   C398    1.427   .     A
C393   C396    1.415   .     A
C394   C958    1.388   .     S
C395   C400    1.389   .     A
C395   C398    1.428   .     A
C395   Cl405   1.766   .     S
C396   C959    1.388   1_554 S
C397   C399    1.428   .     A
C397   C956    1.431   .     S
C398   C955    1.431   1_554 S
C399   C401    1.389   .     A
C399   Cl406   1.766   .     S
C400   H413    1.084   .     S
C400   C952    1.388   1_554 S
C401   H417    1.084   .     S
C401   C954    1.388   .     S
C402   Cl407   1.763   .     S
C403   Cl408   1.763   .     S
C403   C2      1.386   1_565 S
C404   H424    1.084   .     S
C404   C437    1.398   .     S
C404   C30     1.386   1_565 S
Cu411  O431    1.952   .     S
Cu411  N425    2.022   .     S
Cu411  O434    1.938   .     S
Cu411  O430    1.957   .     S
Cu411  O427    1.958   .     S
Cu411  Cu536   2.691   1_455 S
Cu412  O432    1.952   .     S
Cu412  O429    1.957   .     S
Cu412  O433    1.938   .     S
Cu412  N426    2.022   .     S
Cu412  O428    1.958   .     S
Cu412  Cu473   2.691   .     S
H420   C451    1.082   .     S
H421   C512    1.082   1_455 S
O427   C497    1.295   1_455 S
O428   C446    1.295   .     S
O431   C505    1.301   1_455 S
O432   C444    1.301   .     S
C435   O491    1.292   .     A
C435   C438    1.445   .     S
C435   O551    1.295   .     S
C436   H476    1.084   .     S
C437   C465    1.407   .     A
C437   C446    1.445   .     S
C438   C464    1.407   .     A
C438   C498    1.398   .     S
C439   N488    1.361   .     A
C439   C441    1.416   .     A
C439   H477    1.080   .     S
C440   H478    1.080   .     S
C440   N487    1.361   .     A
C440   C442    1.416   .     A
C441   Cl471   1.754   .     S
C441   N487    1.378   .     A
C442   Cl472   1.754   .     S
C442   N488    1.378   .     A
C443   C445    1.468   .     S
C443   O495    1.298   .     A
C443   O555    1.301   .     S
C444   O496    1.298   .     A
C444   C447    1.468   .     S
C445   C452    1.398   .     A
C445   C450    1.399   .     A
C446   O492    1.292   .     A
C447   C451    1.399   .     A
C447   C453    1.398   .     A
C448   C456    1.404   .     A
C448   C450    1.393   .     A
C448   H484    1.084   .     S
C449   C458    1.404   .     A
C449   H485    1.084   .     S
C449   C451    1.393   .     A
C450   H545    1.082   .     S
C452   H481    1.077   .     S
C452   C454    1.403   .     A
C453   H480    1.077   .     S
C453   C455    1.403   .     A
C454   C459    1.427   .     A
C454   C456    1.415   .     A
C455   C460    1.427   .     A
C455   C458    1.415   .     A
C456   C1020   1.388   .     S
C457   C462    1.389   .     A
C457   C460    1.428   .     A
C457   Cl467   1.766   .     S
C458   C1021   1.388   1_554 S
C459   C461    1.428   .     A
C459   C1018   1.431   .     S
C460   C1017   1.431   1_554 S
C461   C463    1.389   .     A
C461   Cl468   1.766   .     S
C462   H475    1.084   .     S
C462   C1014   1.388   1_554 S
C463   H479    1.084   .     S
C463   C1016   1.388   .     S
C464   Cl469   1.763   .     S
C465   Cl470   1.763   .     S
C465   C64     1.386   1_565 S
C466   H486    1.084   .     S
C466   C499    1.398   .     S
C466   C92     1.386   1_565 S
Cu473  O493    1.952   .     S
Cu473  N487    2.022   .     S
Cu473  O496    1.938   .     S
Cu473  O492    1.957   .     S
Cu473  O489    1.958   .     S
Cu474  O494    1.952   .     S
Cu474  O491    1.957   .     S
Cu474  O495    1.938   .     S
Cu474  N488    2.022   .     S
Cu474  O490    1.958   .     S
Cu474  Cu535   2.691   .     S
H482   C513    1.082   .     S
O490   C508    1.295   .     S
O494   C506    1.301   .     S
C497   O553    1.292   .     A
C497   C500    1.445   .     S
C497   O427    1.295   1_655 S
C498   H538    1.084   .     S
C499   C527    1.407   .     A
C499   C508    1.445   .     S
C500   C526    1.407   .     A
C500   C374    1.398   1_655 S
C501   N550    1.361   .     A
C501   C503    1.416   .     A
C501   H539    1.080   .     S
C502   H540    1.080   .     S
C502   N549    1.361   .     A
C502   C504    1.416   .     A
C503   Cl533   1.754   .     S
C503   N549    1.378   .     A
C504   Cl534   1.754   .     S
C504   N550    1.378   .     A
C505   C507    1.468   .     S
C505   O557    1.298   .     A
C505   O431    1.301   1_655 S
C506   O558    1.298   .     A
C506   C509    1.468   .     S
C507   C514    1.398   .     A
C507   C512    1.399   .     A
C508   O554    1.292   .     A
C509   C513    1.399   .     A
C509   C515    1.398   .     A
C510   C518    1.404   .     A
C510   C512    1.393   .     A
C510   H546    1.084   .     S
C511   C520    1.404   .     A
C511   H547    1.084   .     S
C511   C513    1.393   .     A
C512   H421    1.082   1_655 S
C514   H543    1.077   .     S
C514   C516    1.403   .     A
C515   H542    1.077   .     S
C515   C517    1.403   .     A
C516   C521    1.427   .     A
C516   C518    1.415   .     A
C517   C522    1.427   .     A
C517   C520    1.415   .     A
C518   C1082   1.388   .     S
C519   C524    1.389   .     A
C519   C522    1.428   .     A
C519   Cl529   1.766   .     S
C520   C1083   1.388   1_554 S
C521   C523    1.428   .     A
C521   C1080   1.431   .     S
C522   C1079   1.431   1_554 S
C523   C525    1.389   .     A
C523   Cl530   1.766   .     S
C524   H537    1.084   .     S
C524   C1076   1.388   1_554 S
C525   H541    1.084   .     S
C525   C1078   1.388   .     S
C526   Cl531   1.763   .     S
C527   Cl532   1.763   .     S
C527   C126    1.386   1_565 S
C528   H548    1.084   .     S
C528   C375    1.398   1_655 S
C528   C154    1.386   1_565 S
Cu535  O555    1.952   .     S
Cu535  N549    2.022   .     S
Cu535  O558    1.938   .     S
Cu535  O554    1.957   .     S
Cu535  O551    1.958   .     S
Cu536  O556    1.952   .     S
Cu536  O553    1.957   .     S
Cu536  O557    1.938   .     S
Cu536  N550    2.022   .     S
Cu536  O552    1.958   .     S
Cu536  Cu411   2.691   1_655 S
H544   C389    1.082   1_655 S
O552   C384    1.295   1_655 S
O556   C382    1.301   1_655 S
C559   O615    1.292   .     A
C559   C562    1.445   .     S
C559   O675    1.295   .     S
C560   H600    1.084   .     S
C560   C686    1.398   1_455 S
C560   C961    1.386   1_545 S
C561   C589    1.407   .     A
C561   C570    1.445   .     S
C561   C714    1.398   1_455 S
C562   C588    1.407   .     A
C562   C622    1.398   .     S
C563   N612    1.361   .     A
C563   C565    1.416   .     A
C563   H601    1.080   .     S
C564   H602    1.080   .     S
C564   N611    1.361   .     A
C564   C566    1.416   .     A
C565   Cl595   1.754   .     S
C565   N611    1.378   .     A
C566   Cl596   1.754   .     S
C566   N612    1.378   .     A
C567   C569    1.468   .     S
C567   O619    1.298   .     A
C567   O679    1.301   .     S
C568   O620    1.298   .     A
C568   C571    1.468   .     S
C568   O742    1.301   1_455 S
C569   C576    1.398   .     A
C569   C574    1.399   .     A
C570   O616    1.292   .     A
C570   O738    1.295   1_455 S
C571   C575    1.399   .     A
C571   C577    1.398   .     A
C572   C580    1.404   .     A
C572   C574    1.393   .     A
C572   H608    1.084   .     S
C573   C582    1.404   .     A
C573   H609    1.084   .     S
C573   C575    1.393   .     A
C574   H669    1.082   .     S
C575   H730    1.082   1_455 S
C576   H605    1.077   .     S
C576   C578    1.403   .     A
C577   H604    1.077   .     S
C577   C579    1.403   .     A
C578   C583    1.427   .     A
C578   C580    1.415   .     A
C579   C584    1.427   .     A
C579   C582    1.415   .     A
C580   C28     1.388   1_556 S
C581   C586    1.389   .     A
C581   C584    1.428   .     A
C581   Cl591   1.766   .     S
C583   C585    1.428   .     A
C583   C26     1.431   1_556 S
C585   C587    1.389   .     A
C585   Cl592   1.766   .     S
C586   H599    1.084   .     S
C587   H603    1.084   .     S
C587   C24     1.388   1_556 S
C588   Cl593   1.763   .     S
C588   C962    1.386   1_545 S
C589   Cl594   1.763   .     S
C589   C746    1.386   .     S
C590   H610    1.084   .     S
C590   C623    1.398   .     S
C590   C774    1.386   .     S
Cu597  O617    1.952   .     S
Cu597  N611    2.022   .     S
Cu597  O620    1.938   .     S
Cu597  O616    1.957   .     S
Cu597  O613    1.958   .     S
Cu597  Cu722   2.691   1_455 S
Cu598  O618    1.952   .     S
Cu598  O615    1.957   .     S
Cu598  O619    1.938   .     S
Cu598  N612    2.022   .     S
Cu598  O614    1.958   .     S
Cu598  Cu659   2.691   .     S
H606   C637    1.082   .     S
H607   C698    1.082   1_455 S
O613   C683    1.295   1_455 S
O614   C632    1.295   .     S
O617   C691    1.301   1_455 S
O618   C630    1.301   .     S
C621   O677    1.292   .     A
C621   C624    1.445   .     S
C621   O737    1.295   .     S
C622   H662    1.084   .     S
C622   C1023   1.386   1_545 S
C623   C651    1.407   .     A
C623   C632    1.445   .     S
C624   C650    1.407   .     A
C624   C684    1.398   .     S
C625   N674    1.361   .     A
C625   C627    1.416   .     A
C625   H663    1.080   .     S
C626   H664    1.080   .     S
C626   N673    1.361   .     A
C626   C628    1.416   .     A
C627   Cl657   1.754   .     S
C627   N673    1.378   .     A
C628   Cl658   1.754   .     S
C628   N674    1.378   .     A
C629   C631    1.468   .     S
C629   O681    1.298   .     A
C629   O741    1.301   .     S
C630   O682    1.298   .     A
C630   C633    1.468   .     S
C631   C638    1.398   .     A
C631   C636    1.399   .     A
C632   O678    1.292   .     A
C633   C637    1.399   .     A
C633   C639    1.398   .     A
C634   C642    1.404   .     A
C634   C636    1.393   .     A
C634   H670    1.084   .     S
C635   C644    1.404   .     A
C635   H671    1.084   .     S
C635   C637    1.393   .     A
C636   H731    1.082   .     S
C638   H667    1.077   .     S
C638   C640    1.403   .     A
C639   H666    1.077   .     S
C639   C641    1.403   .     A
C640   C645    1.427   .     A
C640   C642    1.415   .     A
C641   C646    1.427   .     A
C641   C644    1.415   .     A
C642   C90     1.388   1_556 S
C643   C648    1.389   .     A
C643   C646    1.428   .     A
C643   Cl653   1.766   .     S
C645   C647    1.428   .     A
C645   C88     1.431   1_556 S
C647   C649    1.389   .     A
C647   Cl654   1.766   .     S
C648   H661    1.084   .     S
C649   H665    1.084   .     S
C649   C86     1.388   1_556 S
C650   Cl655   1.763   .     S
C650   C1024   1.386   1_545 S
C651   Cl656   1.763   .     S
C651   C808    1.386   .     S
C652   H672    1.084   .     S
C652   C685    1.398   .     S
C652   C836    1.386   .     S
Cu659  O679    1.952   .     S
Cu659  N673    2.022   .     S
Cu659  O682    1.938   .     S
Cu659  O678    1.957   .     S
Cu659  O675    1.958   .     S
Cu660  O680    1.952   .     S
Cu660  O677    1.957   .     S
Cu660  O681    1.938   .     S
Cu660  N674    2.022   .     S
Cu660  O676    1.958   .     S
Cu660  Cu721   2.691   .     S
H668   C699    1.082   .     S
O676   C694    1.295   .     S
O680   C692    1.301   .     S
C683   O739    1.292   .     A
C683   C686    1.445   .     S
C683   O613    1.295   1_655 S
C684   H724    1.084   .     S
C684   C1085   1.386   1_545 S
C685   C713    1.407   .     A
C685   C694    1.445   .     S
C686   C712    1.407   .     A
C686   C560    1.398   1_655 S
C687   N736    1.361   .     A
C687   C689    1.416   .     A
C687   H725    1.080   .     S
C688   H726    1.080   .     S
C688   N735    1.361   .     A
C688   C690    1.416   .     A
C689   Cl719   1.754   .     S
C689   N735    1.378   .     A
C690   Cl720   1.754   .     S
C690   N736    1.378   .     A
C691   C693    1.468   .     S
C691   O743    1.298   .     A
C691   O617    1.301   1_655 S
C692   O744    1.298   .     A
C692   C695    1.468   .     S
C693   C700    1.398   .     A
C693   C698    1.399   .     A
C694   O740    1.292   .     A
C695   C699    1.399   .     A
C695   C701    1.398   .     A
C696   C704    1.404   .     A
C696   C698    1.393   .     A
C696   H732    1.084   .     S
C697   C706    1.404   .     A
C697   H733    1.084   .     S
C697   C699    1.393   .     A
C698   H607    1.082   1_655 S
C700   H729    1.077   .     S
C700   C702    1.403   .     A
C701   H728    1.077   .     S
C701   C703    1.403   .     A
C702   C707    1.427   .     A
C702   C704    1.415   .     A
C703   C708    1.427   .     A
C703   C706    1.415   .     A
C704   C152    1.388   1_556 S
C705   C710    1.389   .     A
C705   C708    1.428   .     A
C705   Cl715   1.766   .     S
C707   C709    1.428   .     A
C707   C150    1.431   1_556 S
C709   C711    1.389   .     A
C709   Cl716   1.766   .     S
C710   H723    1.084   .     S
C711   H727    1.084   .     S
C711   C148    1.388   1_556 S
C712   Cl717   1.763   .     S
C712   C1086   1.386   1_545 S
C713   Cl718   1.763   .     S
C713   C870    1.386   .     S
C714   H734    1.084   .     S
C714   C561    1.398   1_655 S
C714   C898    1.386   .     S
Cu721  O741    1.952   .     S
Cu721  N735    2.022   .     S
Cu721  O744    1.938   .     S
Cu721  O740    1.957   .     S
Cu721  O737    1.958   .     S
Cu722  O742    1.952   .     S
Cu722  O739    1.957   .     S
Cu722  O743    1.938   .     S
Cu722  N736    2.022   .     S
Cu722  O738    1.958   .     S
Cu722  Cu597   2.691   1_655 S
H730   C575    1.082   1_655 S
O738   C570    1.295   1_655 S
O742   C568    1.301   1_655 S
C745   O801    1.292   .     A
C745   C748    1.445   .     S
C745   O861    1.295   .     S
C746   H786    1.084   .     S
C746   C872    1.398   1_455 S
C747   C775    1.407   .     A
C747   C756    1.445   .     S
C747   C900    1.398   1_455 S
C748   C774    1.407   .     A
C748   C808    1.398   .     S
C749   N798    1.361   .     A
C749   C751    1.416   .     A
C749   H787    1.080   .     S
C750   H788    1.080   .     S
C750   N797    1.361   .     A
C750   C752    1.416   .     A
C751   Cl781   1.754   .     S
C751   N797    1.378   .     A
C752   Cl782   1.754   .     S
C752   N798    1.378   .     A
C753   C755    1.468   .     S
C753   O805    1.298   .     A
C753   O865    1.301   .     S
C754   O806    1.298   .     A
C754   C757    1.468   .     S
C754   O928    1.301   1_455 S
C755   C762    1.398   .     A
C755   C760    1.399   .     A
C756   O802    1.292   .     A
C756   O924    1.295   1_455 S
C757   C761    1.399   .     A
C757   C763    1.398   .     A
C758   C766    1.404   .     A
C758   C760    1.393   .     A
C758   H794    1.084   .     S
C759   C768    1.404   .     A
C759   H795    1.084   .     S
C759   C761    1.393   .     A
C760   H855    1.082   .     S
C761   H916    1.082   1_455 S
C762   H791    1.077   .     S
C762   C764    1.403   .     A
C763   H790    1.077   .     S
C763   C765    1.403   .     A
C764   C769    1.427   .     A
C764   C766    1.415   .     A
C765   C770    1.427   .     A
C765   C768    1.415   .     A
C766   C214    1.388   1_556 S
C767   C772    1.389   .     A
C767   C770    1.428   .     A
C767   Cl777   1.766   .     S
C769   C771    1.428   .     A
C769   C212    1.431   1_556 S
C771   C773    1.389   .     A
C771   Cl778   1.766   .     S
C772   H785    1.084   .     S
C773   H789    1.084   .     S
C773   C210    1.388   1_556 S
C774   Cl779   1.763   .     S
C775   Cl780   1.763   .     S
C775   C932    1.386   .     S
C776   H796    1.084   .     S
C776   C809    1.398   .     S
C776   C960    1.386   .     S
Cu783  O803    1.952   .     S
Cu783  N797    2.022   .     S
Cu783  O806    1.938   .     S
Cu783  O802    1.957   .     S
Cu783  O799    1.958   .     S
Cu783  Cu908   2.691   1_455 S
Cu784  O804    1.952   .     S
Cu784  O801    1.957   .     S
Cu784  O805    1.938   .     S
Cu784  N798    2.022   .     S
Cu784  O800    1.958   .     S
Cu784  Cu845   2.691   .     S
H792   C823    1.082   .     S
H793   C884    1.082   1_455 S
O799   C869    1.295   1_455 S
O800   C818    1.295   .     S
O803   C877    1.301   1_455 S
O804   C816    1.301   .     S
C807   O863    1.292   .     A
C807   C810    1.445   .     S
C807   O923    1.295   .     S
C808   H848    1.084   .     S
C809   C837    1.407   .     A
C809   C818    1.445   .     S
C810   C836    1.407   .     A
C810   C870    1.398   .     S
C811   N860    1.361   .     A
C811   C813    1.416   .     A
C811   H849    1.080   .     S
C812   H850    1.080   .     S
C812   N859    1.361   .     A
C812   C814    1.416   .     A
C813   Cl843   1.754   .     S
C813   N859    1.378   .     A
C814   Cl844   1.754   .     S
C814   N860    1.378   .     A
C815   C817    1.468   .     S
C815   O867    1.298   .     A
C815   O927    1.301   .     S
C816   O868    1.298   .     A
C816   C819    1.468   .     S
C817   C824    1.398   .     A
C817   C822    1.399   .     A
C818   O864    1.292   .     A
C819   C823    1.399   .     A
C819   C825    1.398   .     A
C820   C828    1.404   .     A
C820   C822    1.393   .     A
C820   H856    1.084   .     S
C821   C830    1.404   .     A
C821   H857    1.084   .     S
C821   C823    1.393   .     A
C822   H917    1.082   .     S
C824   H853    1.077   .     S
C824   C826    1.403   .     A
C825   H852    1.077   .     S
C825   C827    1.403   .     A
C826   C831    1.427   .     A
C826   C828    1.415   .     A
C827   C832    1.427   .     A
C827   C830    1.415   .     A
C828   C276    1.388   1_556 S
C829   C834    1.389   .     A
C829   C832    1.428   .     A
C829   Cl839   1.766   .     S
C831   C833    1.428   .     A
C831   C274    1.431   1_556 S
C833   C835    1.389   .     A
C833   Cl840   1.766   .     S
C834   H847    1.084   .     S
C835   H851    1.084   .     S
C835   C272    1.388   1_556 S
C836   Cl841   1.763   .     S
C837   Cl842   1.763   .     S
C837   C994    1.386   .     S
C838   H858    1.084   .     S
C838   C871    1.398   .     S
C838   C1022   1.386   .     S
Cu845  O865    1.952   .     S
Cu845  N859    2.022   .     S
Cu845  O868    1.938   .     S
Cu845  O864    1.957   .     S
Cu845  O861    1.958   .     S
Cu846  O866    1.952   .     S
Cu846  O863    1.957   .     S
Cu846  O867    1.938   .     S
Cu846  N860    2.022   .     S
Cu846  O862    1.958   .     S
Cu846  Cu907   2.691   .     S
H854   C885    1.082   .     S
O862   C880    1.295   .     S
O866   C878    1.301   .     S
C869   O925    1.292   .     A
C869   C872    1.445   .     S
C869   O799    1.295   1_655 S
C870   H910    1.084   .     S
C871   C899    1.407   .     A
C871   C880    1.445   .     S
C872   C898    1.407   .     A
C872   C746    1.398   1_655 S
C873   N922    1.361   .     A
C873   C875    1.416   .     A
C873   H911    1.080   .     S
C874   H912    1.080   .     S
C874   N921    1.361   .     A
C874   C876    1.416   .     A
C875   Cl905   1.754   .     S
C875   N921    1.378   .     A
C876   Cl906   1.754   .     S
C876   N922    1.378   .     A
C877   C879    1.468   .     S
C877   O929    1.298   .     A
C877   O803    1.301   1_655 S
C878   O930    1.298   .     A
C878   C881    1.468   .     S
C879   C886    1.398   .     A
C879   C884    1.399   .     A
C880   O926    1.292   .     A
C881   C885    1.399   .     A
C881   C887    1.398   .     A
C882   C890    1.404   .     A
C882   C884    1.393   .     A
C882   H918    1.084   .     S
C883   C892    1.404   .     A
C883   H919    1.084   .     S
C883   C885    1.393   .     A
C884   H793    1.082   1_655 S
C886   H915    1.077   .     S
C886   C888    1.403   .     A
C887   H914    1.077   .     S
C887   C889    1.403   .     A
C888   C893    1.427   .     A
C888   C890    1.415   .     A
C889   C894    1.427   .     A
C889   C892    1.415   .     A
C890   C338    1.388   1_556 S
C891   C896    1.389   .     A
C891   C894    1.428   .     A
C891   Cl901   1.766   .     S
C893   C895    1.428   .     A
C893   C336    1.431   1_556 S
C895   C897    1.389   .     A
C895   Cl902   1.766   .     S
C896   H909    1.084   .     S
C897   H913    1.084   .     S
C897   C334    1.388   1_556 S
C898   Cl903   1.763   .     S
C899   Cl904   1.763   .     S
C899   C1056   1.386   .     S
C900   H920    1.084   .     S
C900   C747    1.398   1_655 S
C900   C1084   1.386   .     S
Cu907  O927    1.952   .     S
Cu907  N921    2.022   .     S
Cu907  O930    1.938   .     S
Cu907  O926    1.957   .     S
Cu907  O923    1.958   .     S
Cu908  O928    1.952   .     S
Cu908  O925    1.957   .     S
Cu908  O929    1.938   .     S
Cu908  N922    2.022   .     S
Cu908  O924    1.958   .     S
Cu908  Cu783   2.691   1_655 S
H916   C761    1.082   1_655 S
O924   C756    1.295   1_655 S
O928   C754    1.301   1_655 S
C931   O987    1.292   .     A
C931   C934    1.445   .     S
C931   O1047   1.295   .     S
C932   H972    1.084   .     S
C932   C1058   1.398   1_455 S
C933   C961    1.407   .     A
C933   C942    1.445   .     S
C933   C1086   1.398   1_455 S
C934   C960    1.407   .     A
C934   C994    1.398   .     S
C935   N984    1.361   .     A
C935   C937    1.416   .     A
C935   H973    1.080   .     S
C936   H974    1.080   .     S
C936   N983    1.361   .     A
C936   C938    1.416   .     A
C937   Cl967   1.754   .     S
C937   N983    1.378   .     A
C938   Cl968   1.754   .     S
C938   N984    1.378   .     A
C939   C941    1.468   .     S
C939   O991    1.298   .     A
C939   O1051   1.301   .     S
C940   O992    1.298   .     A
C940   C943    1.468   .     S
C940   O1114   1.301   1_455 S
C941   C948    1.398   .     A
C941   C946    1.399   .     A
C942   O988    1.292   .     A
C942   O1110   1.295   1_455 S
C943   C947    1.399   .     A
C943   C949    1.398   .     A
C944   C952    1.404   .     A
C944   C946    1.393   .     A
C944   H980    1.084   .     S
C945   C954    1.404   .     A
C945   H981    1.084   .     S
C945   C947    1.393   .     A
C946   H1041   1.082   .     S
C947   H1102   1.082   1_455 S
C948   H977    1.077   .     S
C948   C950    1.403   .     A
C949   H976    1.077   .     S
C949   C951    1.403   .     A
C950   C955    1.427   .     A
C950   C952    1.415   .     A
C951   C956    1.427   .     A
C951   C954    1.415   .     A
C952   C400    1.388   1_556 S
C953   C958    1.389   .     A
C953   C956    1.428   .     A
C953   Cl963   1.766   .     S
C955   C957    1.428   .     A
C955   C398    1.431   1_556 S
C957   C959    1.389   .     A
C957   Cl964   1.766   .     S
C958   H971    1.084   .     S
C959   H975    1.084   .     S
C959   C396    1.388   1_556 S
C960   Cl965   1.763   .     S
C961   Cl966   1.763   .     S
C961   C560    1.386   1_565 S
C962   H982    1.084   .     S
C962   C995    1.398   .     S
C962   C588    1.386   1_565 S
Cu969  O989    1.952   .     S
Cu969  N983    2.022   .     S
Cu969  O992    1.938   .     S
Cu969  O988    1.957   .     S
Cu969  O985    1.958   .     S
Cu969  Cu1094  2.691   1_455 S
Cu970  O990    1.952   .     S
Cu970  O987    1.957   .     S
Cu970  O991    1.938   .     S
Cu970  N984    2.022   .     S
Cu970  O986    1.958   .     S
Cu970  Cu1031  2.691   .     S
H978   C1009   1.082   .     S
H979   C1070   1.082   1_455 S
O985   C1055   1.295   1_455 S
O986   C1004   1.295   .     S
O989   C1063   1.301   1_455 S
O990   C1002   1.301   .     S
C993   O1049   1.292   .     A
C993   C996    1.445   .     S
C993   O1109   1.295   .     S
C994   H1034   1.084   .     S
C995   C1023   1.407   .     A
C995   C1004   1.445   .     S
C996   C1022   1.407   .     A
C996   C1056   1.398   .     S
C997   N1046   1.361   .     A
C997   C999    1.416   .     A
C997   H1035   1.080   .     S
C998   H1036   1.080   .     S
C998   N1045   1.361   .     A
C998   C1000   1.416   .     A
C999   Cl1029  1.754   .     S
C999   N1045   1.378   .     A
C1000  Cl1030  1.754   .     S
C1000  N1046   1.378   .     A
C1001  C1003   1.468   .     S
C1001  O1053   1.298   .     A
C1001  O1113   1.301   .     S
C1002  O1054   1.298   .     A
C1002  C1005   1.468   .     S
C1003  C1010   1.398   .     A
C1003  C1008   1.399   .     A
C1004  O1050   1.292   .     A
C1005  C1009   1.399   .     A
C1005  C1011   1.398   .     A
C1006  C1014   1.404   .     A
C1006  C1008   1.393   .     A
C1006  H1042   1.084   .     S
C1007  C1016   1.404   .     A
C1007  H1043   1.084   .     S
C1007  C1009   1.393   .     A
C1008  H1103   1.082   .     S
C1010  H1039   1.077   .     S
C1010  C1012   1.403   .     A
C1011  H1038   1.077   .     S
C1011  C1013   1.403   .     A
C1012  C1017   1.427   .     A
C1012  C1014   1.415   .     A
C1013  C1018   1.427   .     A
C1013  C1016   1.415   .     A
C1014  C462    1.388   1_556 S
C1015  C1020   1.389   .     A
C1015  C1018   1.428   .     A
C1015  Cl1025  1.766   .     S
C1017  C1019   1.428   .     A
C1017  C460    1.431   1_556 S
C1019  C1021   1.389   .     A
C1019  Cl1026  1.766   .     S
C1020  H1033   1.084   .     S
C1021  H1037   1.084   .     S
C1021  C458    1.388   1_556 S
C1022  Cl1027  1.763   .     S
C1023  Cl1028  1.763   .     S
C1023  C622    1.386   1_565 S
C1024  H1044   1.084   .     S
C1024  C1057   1.398   .     S
C1024  C650    1.386   1_565 S
Cu1031 O1051   1.952   .     S
Cu1031 N1045   2.022   .     S
Cu1031 O1054   1.938   .     S
Cu1031 O1050   1.957   .     S
Cu1031 O1047   1.958   .     S
Cu1032 O1052   1.952   .     S
Cu1032 O1049   1.957   .     S
Cu1032 O1053   1.938   .     S
Cu1032 N1046   2.022   .     S
Cu1032 O1048   1.958   .     S
Cu1032 Cu1093  2.691   .     S
H1040  C1071   1.082   .     S
O1048  C1066   1.295   .     S
O1052  C1064   1.301   .     S
C1055  O1111   1.292   .     A
C1055  C1058   1.445   .     S
C1055  O985    1.295   1_655 S
C1056  H1096   1.084   .     S
C1057  C1085   1.407   .     A
C1057  C1066   1.445   .     S
C1058  C1084   1.407   .     A
C1058  C932    1.398   1_655 S
C1059  N1108   1.361   .     A
C1059  C1061   1.416   .     A
C1059  H1097   1.080   .     S
C1060  H1098   1.080   .     S
C1060  N1107   1.361   .     A
C1060  C1062   1.416   .     A
C1061  Cl1091  1.754   .     S
C1061  N1107   1.378   .     A
C1062  Cl1092  1.754   .     S
C1062  N1108   1.378   .     A
C1063  C1065   1.468   .     S
C1063  O1115   1.298   .     A
C1063  O989    1.301   1_655 S
C1064  O1116   1.298   .     A
C1064  C1067   1.468   .     S
C1065  C1072   1.398   .     A
C1065  C1070   1.399   .     A
C1066  O1112   1.292   .     A
C1067  C1071   1.399   .     A
C1067  C1073   1.398   .     A
C1068  C1076   1.404   .     A
C1068  C1070   1.393   .     A
C1068  H1104   1.084   .     S
C1069  C1078   1.404   .     A
C1069  H1105   1.084   .     S
C1069  C1071   1.393   .     A
C1070  H979    1.082   1_655 S
C1072  H1101   1.077   .     S
C1072  C1074   1.403   .     A
C1073  H1100   1.077   .     S
C1073  C1075   1.403   .     A
C1074  C1079   1.427   .     A
C1074  C1076   1.415   .     A
C1075  C1080   1.427   .     A
C1075  C1078   1.415   .     A
C1076  C524    1.388   1_556 S
C1077  C1082   1.389   .     A
C1077  C1080   1.428   .     A
C1077  Cl1087  1.766   .     S
C1079  C1081   1.428   .     A
C1079  C522    1.431   1_556 S
C1081  C1083   1.389   .     A
C1081  Cl1088  1.766   .     S
C1082  H1095   1.084   .     S
C1083  H1099   1.084   .     S
C1083  C520    1.388   1_556 S
C1084  Cl1089  1.763   .     S
C1085  Cl1090  1.763   .     S
C1085  C684    1.386   1_565 S
C1086  H1106   1.084   .     S
C1086  C933    1.398   1_655 S
C1086  C712    1.386   1_565 S
Cu1093 O1113   1.952   .     S
Cu1093 N1107   2.022   .     S
Cu1093 O1116   1.938   .     S
Cu1093 O1112   1.957   .     S
Cu1093 O1109   1.958   .     S
Cu1094 O1114   1.952   .     S
Cu1094 O1111   1.957   .     S
Cu1094 O1115   1.938   .     S
Cu1094 N1108   2.022   .     S
Cu1094 O1110   1.958   .     S
Cu1094 Cu969   2.691   1_655 S
H1102  C947    1.082   1_655 S
O1110  C942    1.295   1_655 S
O1114  C940    1.301   1_655 S
