data_str_m2_o2_o10_pcu_sym.63
_audit_creation_date              2020-01-03
_audit_creation_method            'Materials Studio'
_symmetry_space_group_name_H-M    'P1'
_symmetry_Int_Tables_number       1
_symmetry_cell_setting            triclinic
loop_
_symmetry_equiv_pos_as_xyz
  x,y,z
_cell_length_a                    26.1813
_cell_length_b                    30.1906
_cell_length_c                    27.7471
_cell_angle_alpha                 90.2093
_cell_angle_beta                  97.9636
_cell_angle_gamma                 90.0807
loop_
_atom_site_label
_atom_site_type_symbol
_atom_site_fract_x
_atom_site_fract_y
_atom_site_fract_z
_atom_site_U_iso_or_equiv
_atom_site_adp_type
_atom_site_occupancy
C1     C     0.16699   0.16495   0.24994   0.00000  Uiso   1.00
C2     C     0.18815   0.28658   0.44873   0.00000  Uiso   1.00
C3     C     0.16532   0.25097   0.02704   0.00000  Uiso   1.00
C4     C     0.16594   0.25136   0.47250   0.00000  Uiso   1.00
C5     C     0.06790   0.24996   0.23755   0.00000  Uiso   1.00
C6     C     0.26544   0.25000   0.26245   0.00000  Uiso   1.00
C7     C     0.01263   0.24990   0.23068   0.00000  Uiso   1.00
C8     C     0.32072   0.25000   0.26932   0.00000  Uiso   1.00
C9     C     0.14760   0.04673   0.28349   0.00000  Uiso   1.00
C10    C     0.15068   0.45337   0.21079   0.00000  Uiso   1.00
C11    C     0.14521   0.09265   0.28344   0.00000  Uiso   1.00
C12    C     0.16705   0.33508   0.25017   0.00000  Uiso   1.00
C13    C     0.14833   0.40744   0.20998   0.00000  Uiso   1.00
C14    C     0.16921   0.11673   0.24995   0.00000  Uiso   1.00
C15    C     0.16927   0.38336   0.25091   0.00000  Uiso   1.00
C16    C     0.19646   0.09472   0.21704   0.00000  Uiso   1.00
C17    C     0.19334   0.40547   0.29247   0.00000  Uiso   1.00
C18    C     0.20069   0.04846   0.21773   0.00000  Uiso   1.00
C19    C     0.19742   0.45175   0.29331   0.00000  Uiso   1.00
C20    C     0.17541   0.02439   0.25120   0.00000  Uiso   1.00
C21    C     0.17536   0.47577   0.25192   0.00000  Uiso   1.00
C22    C     0.23268   0.02603   0.18468   0.00000  Uiso   1.00
C23    C     0.21019   0.26151   0.05917   0.00000  Uiso   1.00
C24    C     0.22591   0.47424   0.33669   0.00000  Uiso   1.00
C25    C     0.04512   0.26897   0.49837   0.00000  Uiso   1.00
C26    C     0.17128   0.35593   0.48690   0.00000  Uiso   1.00
C27    C     0.14444   0.21585   0.44336   0.00000  Uiso   1.00
C28    C     0.20986   0.26153   0.10981   0.00000  Uiso   1.00
C29    C     0.14458   0.21607   0.39270   0.00000  Uiso   1.00
C30    C     0.12282   0.23872   0.09914   0.00000  Uiso   1.00
C31    C     0.18876   0.28448   0.39789   0.00000  Uiso   1.00
C32    C     0.12054   0.23985   0.04793   0.00000  Uiso   1.00
Cu33   Cu    0.16667   0.24999   0.29821   0.00000  Uiso   1.00
Cu34   Cu    0.16667   0.25000   0.20178   0.00000  Uiso   1.00
H35    H     0.32598   0.24975   0.19363   0.00000  Uiso   1.00
H36    H     0.12776   0.18776   0.45967   0.00000  Uiso   1.00
H37    H     0.24465   0.27078   0.13327   0.00000  Uiso   1.00
H38    H     0.12703   0.18877   0.37109   0.00000  Uiso   1.00
H39    H     0.08867   0.22943   0.11451   0.00000  Uiso   1.00
H40    H     0.20628   0.31115   0.38003   0.00000  Uiso   1.00
H41    H     0.24028   0.49079   0.18773   0.00000  Uiso   1.00
H42    H     0.23378   0.00949   0.33625   0.00000  Uiso   1.00
H43    H     0.04958   0.20874   0.03391   0.00000  Uiso   1.00
H44    H     0.00948   0.25841   0.47462   0.00000  Uiso   1.00
H45    H     0.06886   0.28866   0.47604   0.00000  Uiso   1.00
H46    H     0.00739   0.25011   0.30637   0.00000  Uiso   1.00
H47    H     0.03413   0.28999   0.02825   0.00000  Uiso   1.00
H48    H     0.23862   0.33954   0.45998   0.00000  Uiso   1.00
H49    H     0.19096   0.38352   0.00868   0.00000  Uiso   1.00
H50    H     0.14398   0.34008   0.00884   0.00000  Uiso   1.00
H51    H     0.14953   0.36971   0.45304   0.00000  Uiso   1.00
H52    H     0.12776   0.02842   0.30887   0.00000  Uiso   1.00
H53    H     0.13326   0.47164   0.17920   0.00000  Uiso   1.00
H54    H     0.12389   0.10933   0.30895   0.00000  Uiso   1.00
H55    H     0.12941   0.39077   0.17771   0.00000  Uiso   1.00
H56    H     0.21567   0.11385   0.19183   0.00000  Uiso   1.00
H57    H     0.21019   0.38644   0.32371   0.00000  Uiso   1.00
H58    H     0.24570   0.26957   0.04526   0.00000  Uiso   1.00
N59    N     0.16667   0.25001   0.12934   0.00000  Uiso   1.00
N60    N     0.16667   0.24999   0.37065   0.00000  Uiso   1.00
N61    N     0.07299   0.23029   0.01817   0.00000  Uiso   1.00
N62    N     0.20928   0.32441   0.47510   0.00000  Uiso   1.00
O63    O     0.16667   0.18572   0.29071   0.00000  Uiso   1.00
O64    O     0.24136   0.45354   0.37357   0.00000  Uiso   1.00
O65    O     0.16666   0.31427   0.20928   0.00000  Uiso   1.00
O66    O     0.16667   0.18573   0.20928   0.00000  Uiso   1.00
O67    O     0.16666   0.31427   0.29072   0.00000  Uiso   1.00
O68    O     0.09161   0.24999   0.28132   0.00000  Uiso   1.00
O69    O     0.24172   0.25000   0.21868   0.00000  Uiso   1.00
O70    O     0.09161   0.25000   0.19988   0.00000  Uiso   1.00
O71    O     0.24172   0.25000   0.30011   0.00000  Uiso   1.00
O72    O     0.25138   0.04679   0.15369   0.00000  Uiso   1.00
C73    C     0.50032   0.16495   0.24994   0.00000  Uiso   1.00
C74    C     0.52149   0.28658   0.44873   0.00000  Uiso   1.00
C75    C     0.49865   0.25097   0.02704   0.00000  Uiso   1.00
C76    C     0.49927   0.25136   0.47250   0.00000  Uiso   1.00
C77    C     0.40123   0.24996   0.23755   0.00000  Uiso   1.00
C78    C     0.59877   0.25000   0.26245   0.00000  Uiso   1.00
C79    C     0.34596   0.24990   0.23068   0.00000  Uiso   1.00
C80    C     0.65405   0.25000   0.26932   0.00000  Uiso   1.00
C81    C     0.48093   0.04673   0.28349   0.00000  Uiso   1.00
C82    C     0.48402   0.45337   0.21079   0.00000  Uiso   1.00
C83    C     0.47854   0.09265   0.28344   0.00000  Uiso   1.00
C84    C     0.50038   0.33508   0.25017   0.00000  Uiso   1.00
C85    C     0.48166   0.40744   0.20998   0.00000  Uiso   1.00
C86    C     0.50254   0.11673   0.24995   0.00000  Uiso   1.00
C87    C     0.50260   0.38336   0.25091   0.00000  Uiso   1.00
C88    C     0.52980   0.09472   0.21704   0.00000  Uiso   1.00
C89    C     0.52668   0.40547   0.29247   0.00000  Uiso   1.00
C90    C     0.53403   0.04846   0.21773   0.00000  Uiso   1.00
C91    C     0.53075   0.45175   0.29331   0.00000  Uiso   1.00
C92    C     0.50875   0.02439   0.25120   0.00000  Uiso   1.00
C93    C     0.50869   0.47577   0.25192   0.00000  Uiso   1.00
C94    C     0.56601   0.02603   0.18468   0.00000  Uiso   1.00
C95    C     0.54352   0.26151   0.05917   0.00000  Uiso   1.00
C96    C     0.55924   0.47424   0.33669   0.00000  Uiso   1.00
C97    C     0.37845   0.26897   0.49837   0.00000  Uiso   1.00
C98    C     0.50462   0.35593   0.48690   0.00000  Uiso   1.00
C99    C     0.47778   0.21585   0.44336   0.00000  Uiso   1.00
C100   C     0.54319   0.26153   0.10981   0.00000  Uiso   1.00
C101   C     0.47791   0.21607   0.39270   0.00000  Uiso   1.00
C102   C     0.45615   0.23872   0.09914   0.00000  Uiso   1.00
C103   C     0.52209   0.28448   0.39789   0.00000  Uiso   1.00
C104   C     0.45388   0.23985   0.04793   0.00000  Uiso   1.00
Cu105  Cu    0.50000   0.24999   0.29821   0.00000  Uiso   1.00
Cu106  Cu    0.50000   0.25000   0.20178   0.00000  Uiso   1.00
H107   H     0.65932   0.24975   0.19363   0.00000  Uiso   1.00
H108   H     0.46109   0.18776   0.45967   0.00000  Uiso   1.00
H109   H     0.57799   0.27078   0.13327   0.00000  Uiso   1.00
H110   H     0.46037   0.18877   0.37109   0.00000  Uiso   1.00
H111   H     0.42200   0.22943   0.11451   0.00000  Uiso   1.00
H112   H     0.53961   0.31115   0.38003   0.00000  Uiso   1.00
H113   H     0.57362   0.49079   0.18773   0.00000  Uiso   1.00
H114   H     0.56711   0.00949   0.33625   0.00000  Uiso   1.00
H115   H     0.38292   0.20874   0.03391   0.00000  Uiso   1.00
H116   H     0.34282   0.25841   0.47462   0.00000  Uiso   1.00
H117   H     0.40220   0.28866   0.47604   0.00000  Uiso   1.00
H118   H     0.34073   0.25011   0.30637   0.00000  Uiso   1.00
H119   H     0.36746   0.28999   0.02825   0.00000  Uiso   1.00
H120   H     0.57195   0.33954   0.45998   0.00000  Uiso   1.00
H121   H     0.52429   0.38352   0.00868   0.00000  Uiso   1.00
H122   H     0.47732   0.34008   0.00884   0.00000  Uiso   1.00
H123   H     0.48286   0.36971   0.45304   0.00000  Uiso   1.00
H124   H     0.46110   0.02842   0.30887   0.00000  Uiso   1.00
H125   H     0.46660   0.47164   0.17920   0.00000  Uiso   1.00
H126   H     0.45723   0.10933   0.30895   0.00000  Uiso   1.00
H127   H     0.46274   0.39077   0.17771   0.00000  Uiso   1.00
H128   H     0.54900   0.11385   0.19183   0.00000  Uiso   1.00
H129   H     0.54352   0.38644   0.32371   0.00000  Uiso   1.00
H130   H     0.57903   0.26957   0.04526   0.00000  Uiso   1.00
N131   N     0.50000   0.25001   0.12934   0.00000  Uiso   1.00
N132   N     0.50000   0.24999   0.37065   0.00000  Uiso   1.00
N133   N     0.40632   0.23029   0.01817   0.00000  Uiso   1.00
N134   N     0.54261   0.32441   0.47510   0.00000  Uiso   1.00
O135   O     0.50000   0.18572   0.29071   0.00000  Uiso   1.00
O136   O     0.57469   0.45354   0.37357   0.00000  Uiso   1.00
O137   O     0.50000   0.31427   0.20928   0.00000  Uiso   1.00
O138   O     0.50000   0.18573   0.20928   0.00000  Uiso   1.00
O139   O     0.50000   0.31427   0.29072   0.00000  Uiso   1.00
O140   O     0.42495   0.24999   0.28132   0.00000  Uiso   1.00
O141   O     0.57505   0.25000   0.21868   0.00000  Uiso   1.00
O142   O     0.42495   0.25000   0.19988   0.00000  Uiso   1.00
O143   O     0.57505   0.25000   0.30011   0.00000  Uiso   1.00
O144   O     0.58472   0.04679   0.15369   0.00000  Uiso   1.00
C145   C     0.83366   0.16495   0.24994   0.00000  Uiso   1.00
C146   C     0.85482   0.28658   0.44873   0.00000  Uiso   1.00
C147   C     0.83199   0.25097   0.02704   0.00000  Uiso   1.00
C148   C     0.83260   0.25136   0.47250   0.00000  Uiso   1.00
C149   C     0.73457   0.24996   0.23755   0.00000  Uiso   1.00
C150   C     0.93210   0.25000   0.26245   0.00000  Uiso   1.00
C151   C     0.67929   0.24990   0.23068   0.00000  Uiso   1.00
C152   C     0.98739   0.25000   0.26932   0.00000  Uiso   1.00
C153   C     0.81427   0.04673   0.28349   0.00000  Uiso   1.00
C154   C     0.81735   0.45337   0.21079   0.00000  Uiso   1.00
C155   C     0.81188   0.09265   0.28344   0.00000  Uiso   1.00
C156   C     0.83371   0.33508   0.25017   0.00000  Uiso   1.00
C157   C     0.81499   0.40744   0.20998   0.00000  Uiso   1.00
C158   C     0.83587   0.11673   0.24995   0.00000  Uiso   1.00
C159   C     0.83594   0.38336   0.25091   0.00000  Uiso   1.00
C160   C     0.86313   0.09472   0.21704   0.00000  Uiso   1.00
C161   C     0.86001   0.40547   0.29247   0.00000  Uiso   1.00
C162   C     0.86736   0.04846   0.21773   0.00000  Uiso   1.00
C163   C     0.86408   0.45175   0.29331   0.00000  Uiso   1.00
C164   C     0.84208   0.02439   0.25120   0.00000  Uiso   1.00
C165   C     0.84203   0.47577   0.25192   0.00000  Uiso   1.00
C166   C     0.89934   0.02603   0.18468   0.00000  Uiso   1.00
C167   C     0.87685   0.26151   0.05917   0.00000  Uiso   1.00
C168   C     0.89258   0.47424   0.33669   0.00000  Uiso   1.00
C169   C     0.71179   0.26897   0.49837   0.00000  Uiso   1.00
C170   C     0.83795   0.35593   0.48690   0.00000  Uiso   1.00
C171   C     0.81111   0.21585   0.44336   0.00000  Uiso   1.00
C172   C     0.87652   0.26153   0.10981   0.00000  Uiso   1.00
C173   C     0.81125   0.21607   0.39270   0.00000  Uiso   1.00
C174   C     0.78949   0.23872   0.09914   0.00000  Uiso   1.00
C175   C     0.85542   0.28448   0.39789   0.00000  Uiso   1.00
C176   C     0.78721   0.23985   0.04793   0.00000  Uiso   1.00
Cu177  Cu    0.83333   0.24999   0.29821   0.00000  Uiso   1.00
Cu178  Cu    0.83333   0.25000   0.20178   0.00000  Uiso   1.00
H179   H     0.99265   0.24975   0.19363   0.00000  Uiso   1.00
H180   H     0.79443   0.18776   0.45967   0.00000  Uiso   1.00
H181   H     0.91132   0.27078   0.13327   0.00000  Uiso   1.00
H182   H     0.79370   0.18877   0.37109   0.00000  Uiso   1.00
H183   H     0.75533   0.22943   0.11451   0.00000  Uiso   1.00
H184   H     0.87294   0.31115   0.38003   0.00000  Uiso   1.00
H185   H     0.90695   0.49079   0.18773   0.00000  Uiso   1.00
H186   H     0.90045   0.00949   0.33625   0.00000  Uiso   1.00
H187   H     0.71625   0.20874   0.03391   0.00000  Uiso   1.00
H188   H     0.67615   0.25841   0.47462   0.00000  Uiso   1.00
H189   H     0.73553   0.28866   0.47604   0.00000  Uiso   1.00
H190   H     0.67406   0.25011   0.30637   0.00000  Uiso   1.00
H191   H     0.70080   0.28999   0.02825   0.00000  Uiso   1.00
H192   H     0.90529   0.33954   0.45998   0.00000  Uiso   1.00
H193   H     0.85762   0.38352   0.00868   0.00000  Uiso   1.00
H194   H     0.81065   0.34008   0.00884   0.00000  Uiso   1.00
H195   H     0.81619   0.36971   0.45304   0.00000  Uiso   1.00
H196   H     0.79443   0.02842   0.30887   0.00000  Uiso   1.00
H197   H     0.79993   0.47164   0.17920   0.00000  Uiso   1.00
H198   H     0.79056   0.10933   0.30895   0.00000  Uiso   1.00
H199   H     0.79608   0.39077   0.17771   0.00000  Uiso   1.00
H200   H     0.88234   0.11385   0.19183   0.00000  Uiso   1.00
H201   H     0.87686   0.38644   0.32371   0.00000  Uiso   1.00
H202   H     0.91237   0.26957   0.04526   0.00000  Uiso   1.00
N203   N     0.83333   0.25001   0.12934   0.00000  Uiso   1.00
N204   N     0.83333   0.24999   0.37065   0.00000  Uiso   1.00
N205   N     0.73965   0.23029   0.01817   0.00000  Uiso   1.00
N206   N     0.87594   0.32441   0.47510   0.00000  Uiso   1.00
O207   O     0.83334   0.18572   0.29071   0.00000  Uiso   1.00
O208   O     0.90802   0.45354   0.37357   0.00000  Uiso   1.00
O209   O     0.83333   0.31427   0.20928   0.00000  Uiso   1.00
O210   O     0.83334   0.18573   0.20928   0.00000  Uiso   1.00
O211   O     0.83333   0.31427   0.29072   0.00000  Uiso   1.00
O212   O     0.75828   0.24999   0.28132   0.00000  Uiso   1.00
O213   O     0.90839   0.25000   0.21868   0.00000  Uiso   1.00
O214   O     0.75828   0.25000   0.19988   0.00000  Uiso   1.00
O215   O     0.90839   0.25000   0.30011   0.00000  Uiso   1.00
O216   O     0.91805   0.04679   0.15369   0.00000  Uiso   1.00
C217   C     0.16699   0.66495   0.24994   0.00000  Uiso   1.00
C218   C     0.18815   0.78658   0.44873   0.00000  Uiso   1.00
C219   C     0.16532   0.75097   0.02704   0.00000  Uiso   1.00
C220   C     0.16594   0.75136   0.47250   0.00000  Uiso   1.00
C221   C     0.06790   0.74996   0.23755   0.00000  Uiso   1.00
C222   C     0.26544   0.75000   0.26245   0.00000  Uiso   1.00
C223   C     0.01263   0.74990   0.23068   0.00000  Uiso   1.00
C224   C     0.32072   0.75000   0.26932   0.00000  Uiso   1.00
C225   C     0.14760   0.54673   0.28349   0.00000  Uiso   1.00
C226   C     0.15068   0.95337   0.21079   0.00000  Uiso   1.00
C227   C     0.14521   0.59265   0.28344   0.00000  Uiso   1.00
C228   C     0.16705   0.83508   0.25017   0.00000  Uiso   1.00
C229   C     0.14833   0.90744   0.20998   0.00000  Uiso   1.00
C230   C     0.16921   0.61673   0.24995   0.00000  Uiso   1.00
C231   C     0.16927   0.88336   0.25091   0.00000  Uiso   1.00
C232   C     0.19646   0.59472   0.21704   0.00000  Uiso   1.00
C233   C     0.19334   0.90547   0.29247   0.00000  Uiso   1.00
C234   C     0.20069   0.54846   0.21773   0.00000  Uiso   1.00
C235   C     0.19742   0.95175   0.29331   0.00000  Uiso   1.00
C236   C     0.17541   0.52439   0.25120   0.00000  Uiso   1.00
C237   C     0.17536   0.97577   0.25192   0.00000  Uiso   1.00
C238   C     0.23268   0.52603   0.18468   0.00000  Uiso   1.00
C239   C     0.21019   0.76151   0.05917   0.00000  Uiso   1.00
C240   C     0.22591   0.97424   0.33669   0.00000  Uiso   1.00
C241   C     0.04512   0.76897   0.49837   0.00000  Uiso   1.00
C242   C     0.17128   0.85593   0.48690   0.00000  Uiso   1.00
C243   C     0.14444   0.71585   0.44336   0.00000  Uiso   1.00
C244   C     0.20986   0.76153   0.10981   0.00000  Uiso   1.00
C245   C     0.14458   0.71607   0.39270   0.00000  Uiso   1.00
C246   C     0.12282   0.73872   0.09914   0.00000  Uiso   1.00
C247   C     0.18876   0.78448   0.39789   0.00000  Uiso   1.00
C248   C     0.12054   0.73985   0.04793   0.00000  Uiso   1.00
Cu249  Cu    0.16667   0.74999   0.29821   0.00000  Uiso   1.00
Cu250  Cu    0.16667   0.75000   0.20178   0.00000  Uiso   1.00
H251   H     0.32598   0.74975   0.19363   0.00000  Uiso   1.00
H252   H     0.12776   0.68776   0.45967   0.00000  Uiso   1.00
H253   H     0.24465   0.77078   0.13327   0.00000  Uiso   1.00
H254   H     0.12703   0.68877   0.37109   0.00000  Uiso   1.00
H255   H     0.08867   0.72943   0.11451   0.00000  Uiso   1.00
H256   H     0.20628   0.81115   0.38003   0.00000  Uiso   1.00
H257   H     0.24028   0.99079   0.18773   0.00000  Uiso   1.00
H258   H     0.23378   0.50949   0.33625   0.00000  Uiso   1.00
H259   H     0.04958   0.70874   0.03391   0.00000  Uiso   1.00
H260   H     0.00948   0.75841   0.47462   0.00000  Uiso   1.00
H261   H     0.06886   0.78866   0.47604   0.00000  Uiso   1.00
H262   H     0.00739   0.75011   0.30637   0.00000  Uiso   1.00
H263   H     0.03413   0.78999   0.02825   0.00000  Uiso   1.00
H264   H     0.23862   0.83954   0.45998   0.00000  Uiso   1.00
H265   H     0.19096   0.88352   0.00868   0.00000  Uiso   1.00
H266   H     0.14398   0.84008   0.00884   0.00000  Uiso   1.00
H267   H     0.14953   0.86971   0.45304   0.00000  Uiso   1.00
H268   H     0.12776   0.52842   0.30887   0.00000  Uiso   1.00
H269   H     0.13326   0.97164   0.17920   0.00000  Uiso   1.00
H270   H     0.12389   0.60933   0.30895   0.00000  Uiso   1.00
H271   H     0.12941   0.89077   0.17771   0.00000  Uiso   1.00
H272   H     0.21567   0.61385   0.19183   0.00000  Uiso   1.00
H273   H     0.21019   0.88644   0.32371   0.00000  Uiso   1.00
H274   H     0.24570   0.76957   0.04526   0.00000  Uiso   1.00
N275   N     0.16667   0.75001   0.12934   0.00000  Uiso   1.00
N276   N     0.16667   0.74999   0.37065   0.00000  Uiso   1.00
N277   N     0.07299   0.73029   0.01817   0.00000  Uiso   1.00
N278   N     0.20928   0.82441   0.47510   0.00000  Uiso   1.00
O279   O     0.16667   0.68572   0.29071   0.00000  Uiso   1.00
O280   O     0.24136   0.95354   0.37357   0.00000  Uiso   1.00
O281   O     0.16666   0.81427   0.20928   0.00000  Uiso   1.00
O282   O     0.16667   0.68573   0.20928   0.00000  Uiso   1.00
O283   O     0.16666   0.81427   0.29072   0.00000  Uiso   1.00
O284   O     0.09161   0.74999   0.28132   0.00000  Uiso   1.00
O285   O     0.24172   0.75000   0.21868   0.00000  Uiso   1.00
O286   O     0.09161   0.75000   0.19988   0.00000  Uiso   1.00
O287   O     0.24172   0.75000   0.30011   0.00000  Uiso   1.00
O288   O     0.25138   0.54679   0.15369   0.00000  Uiso   1.00
C289   C     0.50032   0.66495   0.24994   0.00000  Uiso   1.00
C290   C     0.52149   0.78658   0.44873   0.00000  Uiso   1.00
C291   C     0.49865   0.75097   0.02704   0.00000  Uiso   1.00
C292   C     0.49927   0.75136   0.47250   0.00000  Uiso   1.00
C293   C     0.40123   0.74996   0.23755   0.00000  Uiso   1.00
C294   C     0.59877   0.75000   0.26245   0.00000  Uiso   1.00
C295   C     0.34596   0.74990   0.23068   0.00000  Uiso   1.00
C296   C     0.65405   0.75000   0.26932   0.00000  Uiso   1.00
C297   C     0.48093   0.54673   0.28349   0.00000  Uiso   1.00
C298   C     0.48402   0.95337   0.21079   0.00000  Uiso   1.00
C299   C     0.47854   0.59265   0.28344   0.00000  Uiso   1.00
C300   C     0.50038   0.83508   0.25017   0.00000  Uiso   1.00
C301   C     0.48166   0.90744   0.20998   0.00000  Uiso   1.00
C302   C     0.50254   0.61673   0.24995   0.00000  Uiso   1.00
C303   C     0.50260   0.88336   0.25091   0.00000  Uiso   1.00
C304   C     0.52980   0.59472   0.21704   0.00000  Uiso   1.00
C305   C     0.52668   0.90547   0.29247   0.00000  Uiso   1.00
C306   C     0.53403   0.54846   0.21773   0.00000  Uiso   1.00
C307   C     0.53075   0.95175   0.29331   0.00000  Uiso   1.00
C308   C     0.50875   0.52439   0.25120   0.00000  Uiso   1.00
C309   C     0.50869   0.97577   0.25192   0.00000  Uiso   1.00
C310   C     0.56601   0.52603   0.18468   0.00000  Uiso   1.00
C311   C     0.54352   0.76151   0.05917   0.00000  Uiso   1.00
C312   C     0.55924   0.97424   0.33669   0.00000  Uiso   1.00
C313   C     0.37845   0.76897   0.49837   0.00000  Uiso   1.00
C314   C     0.50462   0.85593   0.48690   0.00000  Uiso   1.00
C315   C     0.47778   0.71585   0.44336   0.00000  Uiso   1.00
C316   C     0.54319   0.76153   0.10981   0.00000  Uiso   1.00
C317   C     0.47791   0.71607   0.39270   0.00000  Uiso   1.00
C318   C     0.45615   0.73872   0.09914   0.00000  Uiso   1.00
C319   C     0.52209   0.78448   0.39789   0.00000  Uiso   1.00
C320   C     0.45388   0.73985   0.04793   0.00000  Uiso   1.00
Cu321  Cu    0.50000   0.74999   0.29821   0.00000  Uiso   1.00
Cu322  Cu    0.50000   0.75000   0.20178   0.00000  Uiso   1.00
H323   H     0.65932   0.74975   0.19363   0.00000  Uiso   1.00
H324   H     0.46109   0.68776   0.45967   0.00000  Uiso   1.00
H325   H     0.57799   0.77078   0.13327   0.00000  Uiso   1.00
H326   H     0.46037   0.68877   0.37109   0.00000  Uiso   1.00
H327   H     0.42200   0.72943   0.11451   0.00000  Uiso   1.00
H328   H     0.53961   0.81115   0.38003   0.00000  Uiso   1.00
H329   H     0.57362   0.99079   0.18773   0.00000  Uiso   1.00
H330   H     0.56711   0.50949   0.33625   0.00000  Uiso   1.00
H331   H     0.38292   0.70874   0.03391   0.00000  Uiso   1.00
H332   H     0.34282   0.75841   0.47462   0.00000  Uiso   1.00
H333   H     0.40220   0.78866   0.47604   0.00000  Uiso   1.00
H334   H     0.34073   0.75011   0.30637   0.00000  Uiso   1.00
H335   H     0.36746   0.78999   0.02825   0.00000  Uiso   1.00
H336   H     0.57195   0.83954   0.45998   0.00000  Uiso   1.00
H337   H     0.52429   0.88352   0.00868   0.00000  Uiso   1.00
H338   H     0.47732   0.84008   0.00884   0.00000  Uiso   1.00
H339   H     0.48286   0.86971   0.45304   0.00000  Uiso   1.00
H340   H     0.46110   0.52842   0.30887   0.00000  Uiso   1.00
H341   H     0.46660   0.97164   0.17920   0.00000  Uiso   1.00
H342   H     0.45723   0.60933   0.30895   0.00000  Uiso   1.00
H343   H     0.46274   0.89077   0.17771   0.00000  Uiso   1.00
H344   H     0.54900   0.61385   0.19183   0.00000  Uiso   1.00
H345   H     0.54352   0.88644   0.32371   0.00000  Uiso   1.00
H346   H     0.57903   0.76957   0.04526   0.00000  Uiso   1.00
N347   N     0.50000   0.75001   0.12934   0.00000  Uiso   1.00
N348   N     0.50000   0.74999   0.37065   0.00000  Uiso   1.00
N349   N     0.40632   0.73029   0.01817   0.00000  Uiso   1.00
N350   N     0.54261   0.82441   0.47510   0.00000  Uiso   1.00
O351   O     0.50000   0.68572   0.29071   0.00000  Uiso   1.00
O352   O     0.57469   0.95354   0.37357   0.00000  Uiso   1.00
O353   O     0.50000   0.81427   0.20928   0.00000  Uiso   1.00
O354   O     0.50000   0.68573   0.20928   0.00000  Uiso   1.00
O355   O     0.50000   0.81427   0.29072   0.00000  Uiso   1.00
O356   O     0.42495   0.74999   0.28132   0.00000  Uiso   1.00
O357   O     0.57505   0.75000   0.21868   0.00000  Uiso   1.00
O358   O     0.42495   0.75000   0.19988   0.00000  Uiso   1.00
O359   O     0.57505   0.75000   0.30011   0.00000  Uiso   1.00
O360   O     0.58472   0.54679   0.15369   0.00000  Uiso   1.00
C361   C     0.83366   0.66495   0.24994   0.00000  Uiso   1.00
C362   C     0.85482   0.78658   0.44873   0.00000  Uiso   1.00
C363   C     0.83199   0.75097   0.02704   0.00000  Uiso   1.00
C364   C     0.83260   0.75136   0.47250   0.00000  Uiso   1.00
C365   C     0.73457   0.74996   0.23755   0.00000  Uiso   1.00
C366   C     0.93210   0.75000   0.26245   0.00000  Uiso   1.00
C367   C     0.67929   0.74990   0.23068   0.00000  Uiso   1.00
C368   C     0.98739   0.75000   0.26932   0.00000  Uiso   1.00
C369   C     0.81427   0.54673   0.28349   0.00000  Uiso   1.00
C370   C     0.81735   0.95337   0.21079   0.00000  Uiso   1.00
C371   C     0.81188   0.59265   0.28344   0.00000  Uiso   1.00
C372   C     0.83371   0.83508   0.25017   0.00000  Uiso   1.00
C373   C     0.81499   0.90744   0.20998   0.00000  Uiso   1.00
C374   C     0.83587   0.61673   0.24995   0.00000  Uiso   1.00
C375   C     0.83594   0.88336   0.25091   0.00000  Uiso   1.00
C376   C     0.86313   0.59472   0.21704   0.00000  Uiso   1.00
C377   C     0.86001   0.90547   0.29247   0.00000  Uiso   1.00
C378   C     0.86736   0.54846   0.21773   0.00000  Uiso   1.00
C379   C     0.86408   0.95175   0.29331   0.00000  Uiso   1.00
C380   C     0.84208   0.52439   0.25120   0.00000  Uiso   1.00
C381   C     0.84203   0.97577   0.25192   0.00000  Uiso   1.00
C382   C     0.89934   0.52603   0.18468   0.00000  Uiso   1.00
C383   C     0.87685   0.76151   0.05917   0.00000  Uiso   1.00
C384   C     0.89258   0.97424   0.33669   0.00000  Uiso   1.00
C385   C     0.71179   0.76897   0.49837   0.00000  Uiso   1.00
C386   C     0.83795   0.85593   0.48690   0.00000  Uiso   1.00
C387   C     0.81111   0.71585   0.44336   0.00000  Uiso   1.00
C388   C     0.87652   0.76153   0.10981   0.00000  Uiso   1.00
C389   C     0.81125   0.71607   0.39270   0.00000  Uiso   1.00
C390   C     0.78949   0.73872   0.09914   0.00000  Uiso   1.00
C391   C     0.85542   0.78448   0.39789   0.00000  Uiso   1.00
C392   C     0.78721   0.73985   0.04793   0.00000  Uiso   1.00
Cu393  Cu    0.83333   0.74999   0.29821   0.00000  Uiso   1.00
Cu394  Cu    0.83333   0.75000   0.20178   0.00000  Uiso   1.00
H395   H     0.99265   0.74975   0.19363   0.00000  Uiso   1.00
H396   H     0.79443   0.68776   0.45967   0.00000  Uiso   1.00
H397   H     0.91132   0.77078   0.13327   0.00000  Uiso   1.00
H398   H     0.79370   0.68877   0.37109   0.00000  Uiso   1.00
H399   H     0.75533   0.72943   0.11451   0.00000  Uiso   1.00
H400   H     0.87294   0.81115   0.38003   0.00000  Uiso   1.00
H401   H     0.90695   0.99079   0.18773   0.00000  Uiso   1.00
H402   H     0.90045   0.50949   0.33625   0.00000  Uiso   1.00
H403   H     0.71625   0.70874   0.03391   0.00000  Uiso   1.00
H404   H     0.67615   0.75841   0.47462   0.00000  Uiso   1.00
H405   H     0.73553   0.78866   0.47604   0.00000  Uiso   1.00
H406   H     0.67406   0.75011   0.30637   0.00000  Uiso   1.00
H407   H     0.70080   0.78999   0.02825   0.00000  Uiso   1.00
H408   H     0.90529   0.83954   0.45998   0.00000  Uiso   1.00
H409   H     0.85762   0.88352   0.00868   0.00000  Uiso   1.00
H410   H     0.81065   0.84008   0.00884   0.00000  Uiso   1.00
H411   H     0.81619   0.86971   0.45304   0.00000  Uiso   1.00
H412   H     0.79443   0.52842   0.30887   0.00000  Uiso   1.00
H413   H     0.79993   0.97164   0.17920   0.00000  Uiso   1.00
H414   H     0.79056   0.60933   0.30895   0.00000  Uiso   1.00
H415   H     0.79608   0.89077   0.17771   0.00000  Uiso   1.00
H416   H     0.88234   0.61385   0.19183   0.00000  Uiso   1.00
H417   H     0.87686   0.88644   0.32371   0.00000  Uiso   1.00
H418   H     0.91237   0.76957   0.04526   0.00000  Uiso   1.00
N419   N     0.83333   0.75001   0.12934   0.00000  Uiso   1.00
N420   N     0.83333   0.74999   0.37065   0.00000  Uiso   1.00
N421   N     0.73965   0.73029   0.01817   0.00000  Uiso   1.00
N422   N     0.87594   0.82441   0.47510   0.00000  Uiso   1.00
O423   O     0.83334   0.68572   0.29071   0.00000  Uiso   1.00
O424   O     0.90802   0.95354   0.37357   0.00000  Uiso   1.00
O425   O     0.83333   0.81427   0.20928   0.00000  Uiso   1.00
O426   O     0.83334   0.68573   0.20928   0.00000  Uiso   1.00
O427   O     0.83333   0.81427   0.29072   0.00000  Uiso   1.00
O428   O     0.75828   0.74999   0.28132   0.00000  Uiso   1.00
O429   O     0.90839   0.75000   0.21868   0.00000  Uiso   1.00
O430   O     0.75828   0.75000   0.19988   0.00000  Uiso   1.00
O431   O     0.90839   0.75000   0.30011   0.00000  Uiso   1.00
O432   O     0.91805   0.54679   0.15369   0.00000  Uiso   1.00
C433   C     0.16699   0.16495   0.74994   0.00000  Uiso   1.00
C434   C     0.18815   0.28658   0.94873   0.00000  Uiso   1.00
C435   C     0.16532   0.25097   0.52704   0.00000  Uiso   1.00
C436   C     0.16594   0.25136   0.97250   0.00000  Uiso   1.00
C437   C     0.06790   0.24996   0.73755   0.00000  Uiso   1.00
C438   C     0.26544   0.25000   0.76245   0.00000  Uiso   1.00
C439   C     0.01263   0.24990   0.73068   0.00000  Uiso   1.00
C440   C     0.32072   0.25000   0.76932   0.00000  Uiso   1.00
C441   C     0.14760   0.04673   0.78349   0.00000  Uiso   1.00
C442   C     0.15068   0.45337   0.71079   0.00000  Uiso   1.00
C443   C     0.14521   0.09265   0.78344   0.00000  Uiso   1.00
C444   C     0.16705   0.33508   0.75017   0.00000  Uiso   1.00
C445   C     0.14833   0.40744   0.70998   0.00000  Uiso   1.00
C446   C     0.16921   0.11673   0.74995   0.00000  Uiso   1.00
C447   C     0.16927   0.38336   0.75091   0.00000  Uiso   1.00
C448   C     0.19646   0.09472   0.71704   0.00000  Uiso   1.00
C449   C     0.19334   0.40547   0.79247   0.00000  Uiso   1.00
C450   C     0.20069   0.04846   0.71773   0.00000  Uiso   1.00
C451   C     0.19742   0.45175   0.79331   0.00000  Uiso   1.00
C452   C     0.17541   0.02439   0.75120   0.00000  Uiso   1.00
C453   C     0.17536   0.47577   0.75192   0.00000  Uiso   1.00
C454   C     0.23268   0.02603   0.68468   0.00000  Uiso   1.00
C455   C     0.21019   0.26151   0.55917   0.00000  Uiso   1.00
C456   C     0.22591   0.47424   0.83669   0.00000  Uiso   1.00
C457   C     0.04512   0.26897   0.99837   0.00000  Uiso   1.00
C458   C     0.17128   0.35593   0.98690   0.00000  Uiso   1.00
C459   C     0.14444   0.21585   0.94336   0.00000  Uiso   1.00
C460   C     0.20986   0.26153   0.60981   0.00000  Uiso   1.00
C461   C     0.14458   0.21607   0.89270   0.00000  Uiso   1.00
C462   C     0.12282   0.23872   0.59914   0.00000  Uiso   1.00
C463   C     0.18876   0.28448   0.89789   0.00000  Uiso   1.00
C464   C     0.12054   0.23985   0.54793   0.00000  Uiso   1.00
Cu465  Cu    0.16667   0.24999   0.79821   0.00000  Uiso   1.00
Cu466  Cu    0.16667   0.25000   0.70178   0.00000  Uiso   1.00
H467   H     0.32598   0.24975   0.69363   0.00000  Uiso   1.00
H468   H     0.12776   0.18776   0.95967   0.00000  Uiso   1.00
H469   H     0.24465   0.27078   0.63327   0.00000  Uiso   1.00
H470   H     0.12703   0.18877   0.87109   0.00000  Uiso   1.00
H471   H     0.08867   0.22943   0.61451   0.00000  Uiso   1.00
H472   H     0.20628   0.31115   0.88003   0.00000  Uiso   1.00
H473   H     0.24028   0.49079   0.68773   0.00000  Uiso   1.00
H474   H     0.23378   0.00949   0.83625   0.00000  Uiso   1.00
H475   H     0.04958   0.20874   0.53391   0.00000  Uiso   1.00
H476   H     0.00948   0.25841   0.97462   0.00000  Uiso   1.00
H477   H     0.06886   0.28866   0.97604   0.00000  Uiso   1.00
H478   H     0.00739   0.25011   0.80637   0.00000  Uiso   1.00
H479   H     0.03413   0.28999   0.52825   0.00000  Uiso   1.00
H480   H     0.23862   0.33954   0.95998   0.00000  Uiso   1.00
H481   H     0.19096   0.38352   0.50868   0.00000  Uiso   1.00
H482   H     0.14398   0.34008   0.50884   0.00000  Uiso   1.00
H483   H     0.14953   0.36971   0.95304   0.00000  Uiso   1.00
H484   H     0.12776   0.02842   0.80887   0.00000  Uiso   1.00
H485   H     0.13326   0.47164   0.67920   0.00000  Uiso   1.00
H486   H     0.12389   0.10933   0.80895   0.00000  Uiso   1.00
H487   H     0.12941   0.39077   0.67771   0.00000  Uiso   1.00
H488   H     0.21567   0.11385   0.69183   0.00000  Uiso   1.00
H489   H     0.21019   0.38644   0.82371   0.00000  Uiso   1.00
H490   H     0.24570   0.26957   0.54526   0.00000  Uiso   1.00
N491   N     0.16667   0.25001   0.62934   0.00000  Uiso   1.00
N492   N     0.16667   0.24999   0.87065   0.00000  Uiso   1.00
N493   N     0.07299   0.23029   0.51817   0.00000  Uiso   1.00
N494   N     0.20928   0.32441   0.97510   0.00000  Uiso   1.00
O495   O     0.16667   0.18572   0.79071   0.00000  Uiso   1.00
O496   O     0.24136   0.45354   0.87357   0.00000  Uiso   1.00
O497   O     0.16666   0.31427   0.70928   0.00000  Uiso   1.00
O498   O     0.16667   0.18573   0.70928   0.00000  Uiso   1.00
O499   O     0.16666   0.31427   0.79072   0.00000  Uiso   1.00
O500   O     0.09161   0.24999   0.78132   0.00000  Uiso   1.00
O501   O     0.24172   0.25000   0.71868   0.00000  Uiso   1.00
O502   O     0.09161   0.25000   0.69988   0.00000  Uiso   1.00
O503   O     0.24172   0.25000   0.80011   0.00000  Uiso   1.00
O504   O     0.25138   0.04679   0.65369   0.00000  Uiso   1.00
C505   C     0.50032   0.16495   0.74994   0.00000  Uiso   1.00
C506   C     0.52149   0.28658   0.94873   0.00000  Uiso   1.00
C507   C     0.49865   0.25097   0.52704   0.00000  Uiso   1.00
C508   C     0.49927   0.25136   0.97250   0.00000  Uiso   1.00
C509   C     0.40123   0.24996   0.73755   0.00000  Uiso   1.00
C510   C     0.59877   0.25000   0.76245   0.00000  Uiso   1.00
C511   C     0.34596   0.24990   0.73068   0.00000  Uiso   1.00
C512   C     0.65405   0.25000   0.76932   0.00000  Uiso   1.00
C513   C     0.48093   0.04673   0.78349   0.00000  Uiso   1.00
C514   C     0.48402   0.45337   0.71079   0.00000  Uiso   1.00
C515   C     0.47854   0.09265   0.78344   0.00000  Uiso   1.00
C516   C     0.50038   0.33508   0.75017   0.00000  Uiso   1.00
C517   C     0.48166   0.40744   0.70998   0.00000  Uiso   1.00
C518   C     0.50254   0.11673   0.74995   0.00000  Uiso   1.00
C519   C     0.50260   0.38336   0.75091   0.00000  Uiso   1.00
C520   C     0.52980   0.09472   0.71704   0.00000  Uiso   1.00
C521   C     0.52668   0.40547   0.79247   0.00000  Uiso   1.00
C522   C     0.53403   0.04846   0.71773   0.00000  Uiso   1.00
C523   C     0.53075   0.45175   0.79331   0.00000  Uiso   1.00
C524   C     0.50875   0.02439   0.75120   0.00000  Uiso   1.00
C525   C     0.50869   0.47577   0.75192   0.00000  Uiso   1.00
C526   C     0.56601   0.02603   0.68468   0.00000  Uiso   1.00
C527   C     0.54352   0.26151   0.55917   0.00000  Uiso   1.00
C528   C     0.55924   0.47424   0.83669   0.00000  Uiso   1.00
C529   C     0.37845   0.26897   0.99837   0.00000  Uiso   1.00
C530   C     0.50462   0.35593   0.98690   0.00000  Uiso   1.00
C531   C     0.47778   0.21585   0.94336   0.00000  Uiso   1.00
C532   C     0.54319   0.26153   0.60981   0.00000  Uiso   1.00
C533   C     0.47791   0.21607   0.89270   0.00000  Uiso   1.00
C534   C     0.45615   0.23872   0.59914   0.00000  Uiso   1.00
C535   C     0.52209   0.28448   0.89789   0.00000  Uiso   1.00
C536   C     0.45388   0.23985   0.54793   0.00000  Uiso   1.00
Cu537  Cu    0.50000   0.24999   0.79821   0.00000  Uiso   1.00
Cu538  Cu    0.50000   0.25000   0.70178   0.00000  Uiso   1.00
H539   H     0.65932   0.24975   0.69363   0.00000  Uiso   1.00
H540   H     0.46109   0.18776   0.95967   0.00000  Uiso   1.00
H541   H     0.57799   0.27078   0.63327   0.00000  Uiso   1.00
H542   H     0.46037   0.18877   0.87109   0.00000  Uiso   1.00
H543   H     0.42200   0.22943   0.61451   0.00000  Uiso   1.00
H544   H     0.53961   0.31115   0.88003   0.00000  Uiso   1.00
H545   H     0.57362   0.49079   0.68773   0.00000  Uiso   1.00
H546   H     0.56711   0.00949   0.83625   0.00000  Uiso   1.00
H547   H     0.38292   0.20874   0.53391   0.00000  Uiso   1.00
H548   H     0.34282   0.25841   0.97462   0.00000  Uiso   1.00
H549   H     0.40220   0.28866   0.97604   0.00000  Uiso   1.00
H550   H     0.34073   0.25011   0.80637   0.00000  Uiso   1.00
H551   H     0.36746   0.28999   0.52825   0.00000  Uiso   1.00
H552   H     0.57195   0.33954   0.95998   0.00000  Uiso   1.00
H553   H     0.52429   0.38352   0.50868   0.00000  Uiso   1.00
H554   H     0.47732   0.34008   0.50884   0.00000  Uiso   1.00
H555   H     0.48286   0.36971   0.95304   0.00000  Uiso   1.00
H556   H     0.46110   0.02842   0.80887   0.00000  Uiso   1.00
H557   H     0.46660   0.47164   0.67920   0.00000  Uiso   1.00
H558   H     0.45723   0.10933   0.80895   0.00000  Uiso   1.00
H559   H     0.46274   0.39077   0.67771   0.00000  Uiso   1.00
H560   H     0.54900   0.11385   0.69183   0.00000  Uiso   1.00
H561   H     0.54352   0.38644   0.82371   0.00000  Uiso   1.00
H562   H     0.57903   0.26957   0.54526   0.00000  Uiso   1.00
N563   N     0.50000   0.25001   0.62934   0.00000  Uiso   1.00
N564   N     0.50000   0.24999   0.87065   0.00000  Uiso   1.00
N565   N     0.40632   0.23029   0.51817   0.00000  Uiso   1.00
N566   N     0.54261   0.32441   0.97510   0.00000  Uiso   1.00
O567   O     0.50000   0.18572   0.79071   0.00000  Uiso   1.00
O568   O     0.57469   0.45354   0.87357   0.00000  Uiso   1.00
O569   O     0.50000   0.31427   0.70928   0.00000  Uiso   1.00
O570   O     0.50000   0.18573   0.70928   0.00000  Uiso   1.00
O571   O     0.50000   0.31427   0.79072   0.00000  Uiso   1.00
O572   O     0.42495   0.24999   0.78132   0.00000  Uiso   1.00
O573   O     0.57505   0.25000   0.71868   0.00000  Uiso   1.00
O574   O     0.42495   0.25000   0.69988   0.00000  Uiso   1.00
O575   O     0.57505   0.25000   0.80011   0.00000  Uiso   1.00
O576   O     0.58472   0.04679   0.65369   0.00000  Uiso   1.00
C577   C     0.83366   0.16495   0.74994   0.00000  Uiso   1.00
C578   C     0.85482   0.28658   0.94873   0.00000  Uiso   1.00
C579   C     0.83199   0.25097   0.52704   0.00000  Uiso   1.00
C580   C     0.83260   0.25136   0.97250   0.00000  Uiso   1.00
C581   C     0.73457   0.24996   0.73755   0.00000  Uiso   1.00
C582   C     0.93210   0.25000   0.76245   0.00000  Uiso   1.00
C583   C     0.67929   0.24990   0.73068   0.00000  Uiso   1.00
C584   C     0.98739   0.25000   0.76932   0.00000  Uiso   1.00
C585   C     0.81427   0.04673   0.78349   0.00000  Uiso   1.00
C586   C     0.81735   0.45337   0.71079   0.00000  Uiso   1.00
C587   C     0.81188   0.09265   0.78344   0.00000  Uiso   1.00
C588   C     0.83371   0.33508   0.75017   0.00000  Uiso   1.00
C589   C     0.81499   0.40744   0.70998   0.00000  Uiso   1.00
C590   C     0.83587   0.11673   0.74995   0.00000  Uiso   1.00
C591   C     0.83594   0.38336   0.75091   0.00000  Uiso   1.00
C592   C     0.86313   0.09472   0.71704   0.00000  Uiso   1.00
C593   C     0.86001   0.40547   0.79247   0.00000  Uiso   1.00
C594   C     0.86736   0.04846   0.71773   0.00000  Uiso   1.00
C595   C     0.86408   0.45175   0.79331   0.00000  Uiso   1.00
C596   C     0.84208   0.02439   0.75120   0.00000  Uiso   1.00
C597   C     0.84203   0.47577   0.75192   0.00000  Uiso   1.00
C598   C     0.89934   0.02603   0.68468   0.00000  Uiso   1.00
C599   C     0.87685   0.26151   0.55917   0.00000  Uiso   1.00
C600   C     0.89258   0.47424   0.83669   0.00000  Uiso   1.00
C601   C     0.71179   0.26897   0.99837   0.00000  Uiso   1.00
C602   C     0.83795   0.35593   0.98690   0.00000  Uiso   1.00
C603   C     0.81111   0.21585   0.94336   0.00000  Uiso   1.00
C604   C     0.87652   0.26153   0.60981   0.00000  Uiso   1.00
C605   C     0.81125   0.21607   0.89270   0.00000  Uiso   1.00
C606   C     0.78949   0.23872   0.59914   0.00000  Uiso   1.00
C607   C     0.85542   0.28448   0.89789   0.00000  Uiso   1.00
C608   C     0.78721   0.23985   0.54793   0.00000  Uiso   1.00
Cu609  Cu    0.83333   0.24999   0.79821   0.00000  Uiso   1.00
Cu610  Cu    0.83333   0.25000   0.70178   0.00000  Uiso   1.00
H611   H     0.99265   0.24975   0.69363   0.00000  Uiso   1.00
H612   H     0.79443   0.18776   0.95967   0.00000  Uiso   1.00
H613   H     0.91132   0.27078   0.63327   0.00000  Uiso   1.00
H614   H     0.79370   0.18877   0.87109   0.00000  Uiso   1.00
H615   H     0.75533   0.22943   0.61451   0.00000  Uiso   1.00
H616   H     0.87294   0.31115   0.88003   0.00000  Uiso   1.00
H617   H     0.90695   0.49079   0.68773   0.00000  Uiso   1.00
H618   H     0.90045   0.00949   0.83625   0.00000  Uiso   1.00
H619   H     0.71625   0.20874   0.53391   0.00000  Uiso   1.00
H620   H     0.67615   0.25841   0.97462   0.00000  Uiso   1.00
H621   H     0.73553   0.28866   0.97604   0.00000  Uiso   1.00
H622   H     0.67406   0.25011   0.80637   0.00000  Uiso   1.00
H623   H     0.70080   0.28999   0.52825   0.00000  Uiso   1.00
H624   H     0.90529   0.33954   0.95998   0.00000  Uiso   1.00
H625   H     0.85762   0.38352   0.50868   0.00000  Uiso   1.00
H626   H     0.81065   0.34008   0.50884   0.00000  Uiso   1.00
H627   H     0.81619   0.36971   0.95304   0.00000  Uiso   1.00
H628   H     0.79443   0.02842   0.80887   0.00000  Uiso   1.00
H629   H     0.79993   0.47164   0.67920   0.00000  Uiso   1.00
H630   H     0.79056   0.10933   0.80895   0.00000  Uiso   1.00
H631   H     0.79608   0.39077   0.67771   0.00000  Uiso   1.00
H632   H     0.88234   0.11385   0.69183   0.00000  Uiso   1.00
H633   H     0.87686   0.38644   0.82371   0.00000  Uiso   1.00
H634   H     0.91237   0.26957   0.54526   0.00000  Uiso   1.00
N635   N     0.83333   0.25001   0.62934   0.00000  Uiso   1.00
N636   N     0.83333   0.24999   0.87065   0.00000  Uiso   1.00
N637   N     0.73965   0.23029   0.51817   0.00000  Uiso   1.00
N638   N     0.87594   0.32441   0.97510   0.00000  Uiso   1.00
O639   O     0.83334   0.18572   0.79071   0.00000  Uiso   1.00
O640   O     0.90802   0.45354   0.87357   0.00000  Uiso   1.00
O641   O     0.83333   0.31427   0.70928   0.00000  Uiso   1.00
O642   O     0.83334   0.18573   0.70928   0.00000  Uiso   1.00
O643   O     0.83333   0.31427   0.79072   0.00000  Uiso   1.00
O644   O     0.75828   0.24999   0.78132   0.00000  Uiso   1.00
O645   O     0.90839   0.25000   0.71868   0.00000  Uiso   1.00
O646   O     0.75828   0.25000   0.69988   0.00000  Uiso   1.00
O647   O     0.90839   0.25000   0.80011   0.00000  Uiso   1.00
O648   O     0.91805   0.04679   0.65369   0.00000  Uiso   1.00
C649   C     0.16699   0.66495   0.74994   0.00000  Uiso   1.00
C650   C     0.18815   0.78658   0.94873   0.00000  Uiso   1.00
C651   C     0.16532   0.75097   0.52704   0.00000  Uiso   1.00
C652   C     0.16594   0.75136   0.97250   0.00000  Uiso   1.00
C653   C     0.06790   0.74996   0.73755   0.00000  Uiso   1.00
C654   C     0.26544   0.75000   0.76245   0.00000  Uiso   1.00
C655   C     0.01263   0.74990   0.73068   0.00000  Uiso   1.00
C656   C     0.32072   0.75000   0.76932   0.00000  Uiso   1.00
C657   C     0.14760   0.54673   0.78349   0.00000  Uiso   1.00
C658   C     0.15068   0.95337   0.71079   0.00000  Uiso   1.00
C659   C     0.14521   0.59265   0.78344   0.00000  Uiso   1.00
C660   C     0.16705   0.83508   0.75017   0.00000  Uiso   1.00
C661   C     0.14833   0.90744   0.70998   0.00000  Uiso   1.00
C662   C     0.16921   0.61673   0.74995   0.00000  Uiso   1.00
C663   C     0.16927   0.88336   0.75091   0.00000  Uiso   1.00
C664   C     0.19646   0.59472   0.71704   0.00000  Uiso   1.00
C665   C     0.19334   0.90547   0.79247   0.00000  Uiso   1.00
C666   C     0.20069   0.54846   0.71773   0.00000  Uiso   1.00
C667   C     0.19742   0.95175   0.79331   0.00000  Uiso   1.00
C668   C     0.17541   0.52439   0.75120   0.00000  Uiso   1.00
C669   C     0.17536   0.97577   0.75192   0.00000  Uiso   1.00
C670   C     0.23268   0.52603   0.68468   0.00000  Uiso   1.00
C671   C     0.21019   0.76151   0.55917   0.00000  Uiso   1.00
C672   C     0.22591   0.97424   0.83669   0.00000  Uiso   1.00
C673   C     0.04512   0.76897   0.99837   0.00000  Uiso   1.00
C674   C     0.17128   0.85593   0.98690   0.00000  Uiso   1.00
C675   C     0.14444   0.71585   0.94336   0.00000  Uiso   1.00
C676   C     0.20986   0.76153   0.60981   0.00000  Uiso   1.00
C677   C     0.14458   0.71607   0.89270   0.00000  Uiso   1.00
C678   C     0.12282   0.73872   0.59914   0.00000  Uiso   1.00
C679   C     0.18876   0.78448   0.89789   0.00000  Uiso   1.00
C680   C     0.12054   0.73985   0.54793   0.00000  Uiso   1.00
Cu681  Cu    0.16667   0.74999   0.79821   0.00000  Uiso   1.00
Cu682  Cu    0.16667   0.75000   0.70178   0.00000  Uiso   1.00
H683   H     0.32598   0.74975   0.69363   0.00000  Uiso   1.00
H684   H     0.12776   0.68776   0.95967   0.00000  Uiso   1.00
H685   H     0.24465   0.77078   0.63327   0.00000  Uiso   1.00
H686   H     0.12703   0.68877   0.87109   0.00000  Uiso   1.00
H687   H     0.08867   0.72943   0.61451   0.00000  Uiso   1.00
H688   H     0.20628   0.81115   0.88003   0.00000  Uiso   1.00
H689   H     0.24028   0.99079   0.68773   0.00000  Uiso   1.00
H690   H     0.23378   0.50949   0.83625   0.00000  Uiso   1.00
H691   H     0.04958   0.70874   0.53391   0.00000  Uiso   1.00
H692   H     0.00948   0.75841   0.97462   0.00000  Uiso   1.00
H693   H     0.06886   0.78866   0.97604   0.00000  Uiso   1.00
H694   H     0.00739   0.75011   0.80637   0.00000  Uiso   1.00
H695   H     0.03413   0.78999   0.52825   0.00000  Uiso   1.00
H696   H     0.23862   0.83954   0.95998   0.00000  Uiso   1.00
H697   H     0.19096   0.88352   0.50868   0.00000  Uiso   1.00
H698   H     0.14398   0.84008   0.50884   0.00000  Uiso   1.00
H699   H     0.14953   0.86971   0.95304   0.00000  Uiso   1.00
H700   H     0.12776   0.52842   0.80887   0.00000  Uiso   1.00
H701   H     0.13326   0.97164   0.67920   0.00000  Uiso   1.00
H702   H     0.12389   0.60933   0.80895   0.00000  Uiso   1.00
H703   H     0.12941   0.89077   0.67771   0.00000  Uiso   1.00
H704   H     0.21567   0.61385   0.69183   0.00000  Uiso   1.00
H705   H     0.21019   0.88644   0.82371   0.00000  Uiso   1.00
H706   H     0.24570   0.76957   0.54526   0.00000  Uiso   1.00
N707   N     0.16667   0.75001   0.62934   0.00000  Uiso   1.00
N708   N     0.16667   0.74999   0.87065   0.00000  Uiso   1.00
N709   N     0.07299   0.73029   0.51817   0.00000  Uiso   1.00
N710   N     0.20928   0.82441   0.97510   0.00000  Uiso   1.00
O711   O     0.16667   0.68572   0.79071   0.00000  Uiso   1.00
O712   O     0.24136   0.95354   0.87357   0.00000  Uiso   1.00
O713   O     0.16666   0.81427   0.70928   0.00000  Uiso   1.00
O714   O     0.16667   0.68573   0.70928   0.00000  Uiso   1.00
O715   O     0.16666   0.81427   0.79072   0.00000  Uiso   1.00
O716   O     0.09161   0.74999   0.78132   0.00000  Uiso   1.00
O717   O     0.24172   0.75000   0.71868   0.00000  Uiso   1.00
O718   O     0.09161   0.75000   0.69988   0.00000  Uiso   1.00
O719   O     0.24172   0.75000   0.80011   0.00000  Uiso   1.00
O720   O     0.25138   0.54679   0.65369   0.00000  Uiso   1.00
C721   C     0.50032   0.66495   0.74994   0.00000  Uiso   1.00
C722   C     0.52149   0.78658   0.94873   0.00000  Uiso   1.00
C723   C     0.49865   0.75097   0.52704   0.00000  Uiso   1.00
C724   C     0.49927   0.75136   0.97250   0.00000  Uiso   1.00
C725   C     0.40123   0.74996   0.73755   0.00000  Uiso   1.00
C726   C     0.59877   0.75000   0.76245   0.00000  Uiso   1.00
C727   C     0.34596   0.74990   0.73068   0.00000  Uiso   1.00
C728   C     0.65405   0.75000   0.76932   0.00000  Uiso   1.00
C729   C     0.48093   0.54673   0.78349   0.00000  Uiso   1.00
C730   C     0.48402   0.95337   0.71079   0.00000  Uiso   1.00
C731   C     0.47854   0.59265   0.78344   0.00000  Uiso   1.00
C732   C     0.50038   0.83508   0.75017   0.00000  Uiso   1.00
C733   C     0.48166   0.90744   0.70998   0.00000  Uiso   1.00
C734   C     0.50254   0.61673   0.74995   0.00000  Uiso   1.00
C735   C     0.50260   0.88336   0.75091   0.00000  Uiso   1.00
C736   C     0.52980   0.59472   0.71704   0.00000  Uiso   1.00
C737   C     0.52668   0.90547   0.79247   0.00000  Uiso   1.00
C738   C     0.53403   0.54846   0.71773   0.00000  Uiso   1.00
C739   C     0.53075   0.95175   0.79331   0.00000  Uiso   1.00
C740   C     0.50875   0.52439   0.75120   0.00000  Uiso   1.00
C741   C     0.50869   0.97577   0.75192   0.00000  Uiso   1.00
C742   C     0.56601   0.52603   0.68468   0.00000  Uiso   1.00
C743   C     0.54352   0.76151   0.55917   0.00000  Uiso   1.00
C744   C     0.55924   0.97424   0.83669   0.00000  Uiso   1.00
C745   C     0.37845   0.76897   0.99837   0.00000  Uiso   1.00
C746   C     0.50462   0.85593   0.98690   0.00000  Uiso   1.00
C747   C     0.47778   0.71585   0.94336   0.00000  Uiso   1.00
C748   C     0.54319   0.76153   0.60981   0.00000  Uiso   1.00
C749   C     0.47791   0.71607   0.89270   0.00000  Uiso   1.00
C750   C     0.45615   0.73872   0.59914   0.00000  Uiso   1.00
C751   C     0.52209   0.78448   0.89789   0.00000  Uiso   1.00
C752   C     0.45388   0.73985   0.54793   0.00000  Uiso   1.00
Cu753  Cu    0.50000   0.74999   0.79821   0.00000  Uiso   1.00
Cu754  Cu    0.50000   0.75000   0.70178   0.00000  Uiso   1.00
H755   H     0.65932   0.74975   0.69363   0.00000  Uiso   1.00
H756   H     0.46109   0.68776   0.95967   0.00000  Uiso   1.00
H757   H     0.57799   0.77078   0.63327   0.00000  Uiso   1.00
H758   H     0.46037   0.68877   0.87109   0.00000  Uiso   1.00
H759   H     0.42200   0.72943   0.61451   0.00000  Uiso   1.00
H760   H     0.53961   0.81115   0.88003   0.00000  Uiso   1.00
H761   H     0.57362   0.99079   0.68773   0.00000  Uiso   1.00
H762   H     0.56711   0.50949   0.83625   0.00000  Uiso   1.00
H763   H     0.38292   0.70874   0.53391   0.00000  Uiso   1.00
H764   H     0.34282   0.75841   0.97462   0.00000  Uiso   1.00
H765   H     0.40220   0.78866   0.97604   0.00000  Uiso   1.00
H766   H     0.34073   0.75011   0.80637   0.00000  Uiso   1.00
H767   H     0.36746   0.78999   0.52825   0.00000  Uiso   1.00
H768   H     0.57195   0.83954   0.95998   0.00000  Uiso   1.00
H769   H     0.52429   0.88352   0.50868   0.00000  Uiso   1.00
H770   H     0.47732   0.84008   0.50884   0.00000  Uiso   1.00
H771   H     0.48286   0.86971   0.95304   0.00000  Uiso   1.00
H772   H     0.46110   0.52842   0.80887   0.00000  Uiso   1.00
H773   H     0.46660   0.97164   0.67920   0.00000  Uiso   1.00
H774   H     0.45723   0.60933   0.80895   0.00000  Uiso   1.00
H775   H     0.46274   0.89077   0.67771   0.00000  Uiso   1.00
H776   H     0.54900   0.61385   0.69183   0.00000  Uiso   1.00
H777   H     0.54352   0.88644   0.82371   0.00000  Uiso   1.00
H778   H     0.57903   0.76957   0.54526   0.00000  Uiso   1.00
N779   N     0.50000   0.75001   0.62934   0.00000  Uiso   1.00
N780   N     0.50000   0.74999   0.87065   0.00000  Uiso   1.00
N781   N     0.40632   0.73029   0.51817   0.00000  Uiso   1.00
N782   N     0.54261   0.82441   0.97510   0.00000  Uiso   1.00
O783   O     0.50000   0.68572   0.79071   0.00000  Uiso   1.00
O784   O     0.57469   0.95354   0.87357   0.00000  Uiso   1.00
O785   O     0.50000   0.81427   0.70928   0.00000  Uiso   1.00
O786   O     0.50000   0.68573   0.70928   0.00000  Uiso   1.00
O787   O     0.50000   0.81427   0.79072   0.00000  Uiso   1.00
O788   O     0.42495   0.74999   0.78132   0.00000  Uiso   1.00
O789   O     0.57505   0.75000   0.71868   0.00000  Uiso   1.00
O790   O     0.42495   0.75000   0.69988   0.00000  Uiso   1.00
O791   O     0.57505   0.75000   0.80011   0.00000  Uiso   1.00
O792   O     0.58472   0.54679   0.65369   0.00000  Uiso   1.00
C793   C     0.83366   0.66495   0.74994   0.00000  Uiso   1.00
C794   C     0.85482   0.78658   0.94873   0.00000  Uiso   1.00
C795   C     0.83199   0.75097   0.52704   0.00000  Uiso   1.00
C796   C     0.83260   0.75136   0.97250   0.00000  Uiso   1.00
C797   C     0.73457   0.74996   0.73755   0.00000  Uiso   1.00
C798   C     0.93210   0.75000   0.76245   0.00000  Uiso   1.00
C799   C     0.67929   0.74990   0.73068   0.00000  Uiso   1.00
C800   C     0.98739   0.75000   0.76932   0.00000  Uiso   1.00
C801   C     0.81427   0.54673   0.78349   0.00000  Uiso   1.00
C802   C     0.81735   0.95337   0.71079   0.00000  Uiso   1.00
C803   C     0.81188   0.59265   0.78344   0.00000  Uiso   1.00
C804   C     0.83371   0.83508   0.75017   0.00000  Uiso   1.00
C805   C     0.81499   0.90744   0.70998   0.00000  Uiso   1.00
C806   C     0.83587   0.61673   0.74995   0.00000  Uiso   1.00
C807   C     0.83594   0.88336   0.75091   0.00000  Uiso   1.00
C808   C     0.86313   0.59472   0.71704   0.00000  Uiso   1.00
C809   C     0.86001   0.90547   0.79247   0.00000  Uiso   1.00
C810   C     0.86736   0.54846   0.71773   0.00000  Uiso   1.00
C811   C     0.86408   0.95175   0.79331   0.00000  Uiso   1.00
C812   C     0.84208   0.52439   0.75120   0.00000  Uiso   1.00
C813   C     0.84203   0.97577   0.75192   0.00000  Uiso   1.00
C814   C     0.89934   0.52603   0.68468   0.00000  Uiso   1.00
C815   C     0.87685   0.76151   0.55917   0.00000  Uiso   1.00
C816   C     0.89258   0.97424   0.83669   0.00000  Uiso   1.00
C817   C     0.71179   0.76897   0.99837   0.00000  Uiso   1.00
C818   C     0.83795   0.85593   0.98690   0.00000  Uiso   1.00
C819   C     0.81111   0.71585   0.94336   0.00000  Uiso   1.00
C820   C     0.87652   0.76153   0.60981   0.00000  Uiso   1.00
C821   C     0.81125   0.71607   0.89270   0.00000  Uiso   1.00
C822   C     0.78949   0.73872   0.59914   0.00000  Uiso   1.00
C823   C     0.85542   0.78448   0.89789   0.00000  Uiso   1.00
C824   C     0.78721   0.73985   0.54793   0.00000  Uiso   1.00
Cu825  Cu    0.83333   0.74999   0.79821   0.00000  Uiso   1.00
Cu826  Cu    0.83333   0.75000   0.70178   0.00000  Uiso   1.00
H827   H     0.99265   0.74975   0.69363   0.00000  Uiso   1.00
H828   H     0.79443   0.68776   0.95967   0.00000  Uiso   1.00
H829   H     0.91132   0.77078   0.63327   0.00000  Uiso   1.00
H830   H     0.79370   0.68877   0.87109   0.00000  Uiso   1.00
H831   H     0.75533   0.72943   0.61451   0.00000  Uiso   1.00
H832   H     0.87294   0.81115   0.88003   0.00000  Uiso   1.00
H833   H     0.90695   0.99079   0.68773   0.00000  Uiso   1.00
H834   H     0.90045   0.50949   0.83625   0.00000  Uiso   1.00
H835   H     0.71625   0.70874   0.53391   0.00000  Uiso   1.00
H836   H     0.67615   0.75841   0.97462   0.00000  Uiso   1.00
H837   H     0.73553   0.78866   0.97604   0.00000  Uiso   1.00
H838   H     0.67406   0.75011   0.80637   0.00000  Uiso   1.00
H839   H     0.70080   0.78999   0.52825   0.00000  Uiso   1.00
H840   H     0.90529   0.83954   0.95998   0.00000  Uiso   1.00
H841   H     0.85762   0.88352   0.50868   0.00000  Uiso   1.00
H842   H     0.81065   0.84008   0.50884   0.00000  Uiso   1.00
H843   H     0.81619   0.86971   0.95304   0.00000  Uiso   1.00
H844   H     0.79443   0.52842   0.80887   0.00000  Uiso   1.00
H845   H     0.79993   0.97164   0.67920   0.00000  Uiso   1.00
H846   H     0.79056   0.60933   0.80895   0.00000  Uiso   1.00
H847   H     0.79608   0.89077   0.67771   0.00000  Uiso   1.00
H848   H     0.88234   0.61385   0.69183   0.00000  Uiso   1.00
H849   H     0.87686   0.88644   0.82371   0.00000  Uiso   1.00
H850   H     0.91237   0.76957   0.54526   0.00000  Uiso   1.00
N851   N     0.83333   0.75001   0.62934   0.00000  Uiso   1.00
N852   N     0.83333   0.74999   0.87065   0.00000  Uiso   1.00
N853   N     0.73965   0.73029   0.51817   0.00000  Uiso   1.00
N854   N     0.87594   0.82441   0.97510   0.00000  Uiso   1.00
O855   O     0.83334   0.68572   0.79071   0.00000  Uiso   1.00
O856   O     0.90802   0.95354   0.87357   0.00000  Uiso   1.00
O857   O     0.83333   0.81427   0.70928   0.00000  Uiso   1.00
O858   O     0.83334   0.68573   0.70928   0.00000  Uiso   1.00
O859   O     0.83333   0.81427   0.79072   0.00000  Uiso   1.00
O860   O     0.75828   0.74999   0.78132   0.00000  Uiso   1.00
O861   O     0.90839   0.75000   0.71868   0.00000  Uiso   1.00
O862   O     0.75828   0.75000   0.69988   0.00000  Uiso   1.00
O863   O     0.90839   0.75000   0.80011   0.00000  Uiso   1.00
O864   O     0.91805   0.54679   0.65369   0.00000  Uiso   1.00
loop_
_geom_bond_atom_site_label_1
_geom_bond_atom_site_label_2
_geom_bond_distance
_geom_bond_site_symmetry_2
_ccdc_geom_bond_type
C1     O63     1.293   .     A
C1     C14     1.457   .     S
C1     O66     1.292   .     A
C2     C4      1.419   .     A
C2     C31     1.414   .     A
C2     N62     1.423   .     S
C3     C32     1.418   .     A
C3     C23     1.408   .     A
C3     C436    1.516   1_554 S
C4     C27     1.409   .     A
C4     C435    1.516   .     S
C5     O70     1.287   .     A
C5     C7      1.433   .     S
C5     O68     1.285   .     A
C6     O69     1.285   .     A
C6     C8      1.433   .     S
C6     O71     1.287   .     A
C7     C152    1.335   1_455 S
C7     H179    1.087   1_455 S
C8     C79     1.335   .     S
C8     H118    1.087   .     S
C9     C20     1.402   .     A
C9     H52     1.084   .     S
C9     C11     1.388   .     A
C10    C21     1.402   .     A
C10    H53     1.084   .     S
C10    C13     1.388   .     A
C11    H54     1.083   .     S
C11    C14     1.397   .     A
C12    C15     1.459   .     S
C12    O67     1.292   .     A
C12    O65     1.293   .     A
C13    C15     1.398   .     A
C13    H55     1.083   .     S
C14    C16     1.401   .     A
C15    C17     1.402   .     A
C16    H56     1.084   .     S
C16    C18     1.401   .     A
C17    C19     1.401   .     A
C17    H57     1.084   .     S
C18    C20     1.415   .     A
C18    C22     1.487   .     S
C19    C24     1.487   .     S
C19    C21     1.415   .     A
C20    C237    1.468   1_545 S
C21    C236    1.468   .     S
C22    O72     1.221   .     D
C22    H257    1.084   1_545 S
C23    C28     1.406   .     A
C23    H58     1.083   .     S
C24    O64     1.221   .     D
C24    H258    1.084   .     S
C25    H44     1.111   .     S
C25    H45     1.110   .     S
C25    H479    1.112   .     S
C25    N493    1.447   .     S
C26    N62     1.447   .     S
C26    H51     1.112   .     S
C26    H481    1.110   .     S
C26    H482    1.110   .     S
C27    H36     1.082   .     S
C27    C29     1.406   .     A
C28    H37     1.080   .     S
C28    N59     1.365   .     A
C29    H38     1.081   .     S
C29    N60     1.363   .     A
C30    N59     1.366   .     A
C30    C32     1.415   .     A
C30    H39     1.080   .     S
C31    H40     1.081   .     S
C31    N60     1.364   .     A
C32    N61     1.424   .     S
Cu33   O63     1.951   .     S
Cu33   O67     1.952   .     S
Cu33   Cu34    2.676   .     S
Cu33   N60     2.010   .     S
Cu33   O71     1.958   .     S
Cu33   O68     1.956   .     S
Cu34   O70     1.958   .     S
Cu34   O66     1.952   .     S
Cu34   O69     1.956   .     S
Cu34   N59     2.010   .     S
Cu34   O65     1.951   .     S
H35    C79     1.087   .     S
H41    C238    1.084   .     S
H42    C240    1.084   1_545 S
H43    N61     1.032   .     S
H46    C152    1.087   1_455 S
H47    C457    1.112   1_554 S
H48    N62     1.032   .     S
H49    C458    1.110   1_554 S
H50    C458    1.110   1_554 S
N61    C457    1.447   1_554 S
C73    O135    1.293   .     A
C73    C86     1.457   .     S
C73    O138    1.292   .     A
C74    C76     1.419   .     A
C74    C103    1.414   .     A
C74    N134    1.423   .     S
C75    C104    1.418   .     A
C75    C95     1.408   .     A
C75    C508    1.516   1_554 S
C76    C99     1.409   .     A
C76    C507    1.516   .     S
C77    O142    1.287   .     A
C77    C79     1.433   .     S
C77    O140    1.285   .     A
C78    O141    1.285   .     A
C78    C80     1.433   .     S
C78    O143    1.287   .     A
C80    C151    1.335   .     S
C80    H190    1.087   .     S
C81    C92     1.402   .     A
C81    H124    1.084   .     S
C81    C83     1.388   .     A
C82    C93     1.402   .     A
C82    H125    1.084   .     S
C82    C85     1.388   .     A
C83    H126    1.083   .     S
C83    C86     1.397   .     A
C84    C87     1.459   .     S
C84    O139    1.292   .     A
C84    O137    1.293   .     A
C85    C87     1.398   .     A
C85    H127    1.083   .     S
C86    C88     1.401   .     A
C87    C89     1.402   .     A
C88    H128    1.084   .     S
C88    C90     1.401   .     A
C89    C91     1.401   .     A
C89    H129    1.084   .     S
C90    C92     1.415   .     A
C90    C94     1.487   .     S
C91    C96     1.487   .     S
C91    C93     1.415   .     A
C92    C309    1.468   1_545 S
C93    C308    1.468   .     S
C94    O144    1.221   .     D
C94    H329    1.084   1_545 S
C95    C100    1.406   .     A
C95    H130    1.083   .     S
C96    O136    1.221   .     D
C96    H330    1.084   .     S
C97    H116    1.111   .     S
C97    H117    1.110   .     S
C97    H551    1.112   .     S
C97    N565    1.447   .     S
C98    N134    1.447   .     S
C98    H123    1.112   .     S
C98    H553    1.110   .     S
C98    H554    1.110   .     S
C99    H108    1.082   .     S
C99    C101    1.406   .     A
C100   H109    1.080   .     S
C100   N131    1.365   .     A
C101   H110    1.081   .     S
C101   N132    1.363   .     A
C102   N131    1.366   .     A
C102   C104    1.415   .     A
C102   H111    1.080   .     S
C103   H112    1.081   .     S
C103   N132    1.364   .     A
C104   N133    1.424   .     S
Cu105  O135    1.951   .     S
Cu105  O139    1.952   .     S
Cu105  Cu106   2.676   .     S
Cu105  N132    2.010   .     S
Cu105  O143    1.958   .     S
Cu105  O140    1.956   .     S
Cu106  O142    1.958   .     S
Cu106  O138    1.952   .     S
Cu106  O141    1.956   .     S
Cu106  N131    2.010   .     S
Cu106  O137    1.951   .     S
H107   C151    1.087   .     S
H113   C310    1.084   .     S
H114   C312    1.084   1_545 S
H115   N133    1.032   .     S
H119   C529    1.112   1_554 S
H120   N134    1.032   .     S
H121   C530    1.110   1_554 S
H122   C530    1.110   1_554 S
N133   C529    1.447   1_554 S
C145   O207    1.293   .     A
C145   C158    1.457   .     S
C145   O210    1.292   .     A
C146   C148    1.419   .     A
C146   C175    1.414   .     A
C146   N206    1.423   .     S
C147   C176    1.418   .     A
C147   C167    1.408   .     A
C147   C580    1.516   1_554 S
C148   C171    1.409   .     A
C148   C579    1.516   .     S
C149   O214    1.287   .     A
C149   C151    1.433   .     S
C149   O212    1.285   .     A
C150   O213    1.285   .     A
C150   C152    1.433   .     S
C150   O215    1.287   .     A
C152   C7      1.335   1_655 S
C152   H46     1.087   1_655 S
C153   C164    1.402   .     A
C153   H196    1.084   .     S
C153   C155    1.388   .     A
C154   C165    1.402   .     A
C154   H197    1.084   .     S
C154   C157    1.388   .     A
C155   H198    1.083   .     S
C155   C158    1.397   .     A
C156   C159    1.459   .     S
C156   O211    1.292   .     A
C156   O209    1.293   .     A
C157   C159    1.398   .     A
C157   H199    1.083   .     S
C158   C160    1.401   .     A
C159   C161    1.402   .     A
C160   H200    1.084   .     S
C160   C162    1.401   .     A
C161   C163    1.401   .     A
C161   H201    1.084   .     S
C162   C164    1.415   .     A
C162   C166    1.487   .     S
C163   C168    1.487   .     S
C163   C165    1.415   .     A
C164   C381    1.468   1_545 S
C165   C380    1.468   .     S
C166   O216    1.221   .     D
C166   H401    1.084   1_545 S
C167   C172    1.406   .     A
C167   H202    1.083   .     S
C168   O208    1.221   .     D
C168   H402    1.084   .     S
C169   H188    1.111   .     S
C169   H189    1.110   .     S
C169   H623    1.112   .     S
C169   N637    1.447   .     S
C170   N206    1.447   .     S
C170   H195    1.112   .     S
C170   H625    1.110   .     S
C170   H626    1.110   .     S
C171   H180    1.082   .     S
C171   C173    1.406   .     A
C172   H181    1.080   .     S
C172   N203    1.365   .     A
C173   H182    1.081   .     S
C173   N204    1.363   .     A
C174   N203    1.366   .     A
C174   C176    1.415   .     A
C174   H183    1.080   .     S
C175   H184    1.081   .     S
C175   N204    1.364   .     A
C176   N205    1.424   .     S
Cu177  O207    1.951   .     S
Cu177  O211    1.952   .     S
Cu177  Cu178   2.676   .     S
Cu177  N204    2.010   .     S
Cu177  O215    1.958   .     S
Cu177  O212    1.956   .     S
Cu178  O214    1.958   .     S
Cu178  O210    1.952   .     S
Cu178  O213    1.956   .     S
Cu178  N203    2.010   .     S
Cu178  O209    1.951   .     S
H179   C7      1.087   1_655 S
H185   C382    1.084   .     S
H186   C384    1.084   1_545 S
H187   N205    1.032   .     S
H191   C601    1.112   1_554 S
H192   N206    1.032   .     S
H193   C602    1.110   1_554 S
H194   C602    1.110   1_554 S
N205   C601    1.447   1_554 S
C217   O279    1.293   .     A
C217   C230    1.457   .     S
C217   O282    1.292   .     A
C218   C220    1.419   .     A
C218   C247    1.414   .     A
C218   N278    1.423   .     S
C219   C248    1.418   .     A
C219   C239    1.408   .     A
C219   C652    1.516   1_554 S
C220   C243    1.409   .     A
C220   C651    1.516   .     S
C221   O286    1.287   .     A
C221   C223    1.433   .     S
C221   O284    1.285   .     A
C222   O285    1.285   .     A
C222   C224    1.433   .     S
C222   O287    1.287   .     A
C223   C368    1.335   1_455 S
C223   H395    1.087   1_455 S
C224   C295    1.335   .     S
C224   H334    1.087   .     S
C225   C236    1.402   .     A
C225   H268    1.084   .     S
C225   C227    1.388   .     A
C226   C237    1.402   .     A
C226   H269    1.084   .     S
C226   C229    1.388   .     A
C227   H270    1.083   .     S
C227   C230    1.397   .     A
C228   C231    1.459   .     S
C228   O283    1.292   .     A
C228   O281    1.293   .     A
C229   C231    1.398   .     A
C229   H271    1.083   .     S
C230   C232    1.401   .     A
C231   C233    1.402   .     A
C232   H272    1.084   .     S
C232   C234    1.401   .     A
C233   C235    1.401   .     A
C233   H273    1.084   .     S
C234   C236    1.415   .     A
C234   C238    1.487   .     S
C235   C240    1.487   .     S
C235   C237    1.415   .     A
C237   C20     1.468   1_565 S
C238   O288    1.221   .     D
C239   C244    1.406   .     A
C239   H274    1.083   .     S
C240   O280    1.221   .     D
C240   H42     1.084   1_565 S
C241   H260    1.111   .     S
C241   H261    1.110   .     S
C241   H695    1.112   .     S
C241   N709    1.447   .     S
C242   N278    1.447   .     S
C242   H267    1.112   .     S
C242   H697    1.110   .     S
C242   H698    1.110   .     S
C243   H252    1.082   .     S
C243   C245    1.406   .     A
C244   H253    1.080   .     S
C244   N275    1.365   .     A
C245   H254    1.081   .     S
C245   N276    1.363   .     A
C246   N275    1.366   .     A
C246   C248    1.415   .     A
C246   H255    1.080   .     S
C247   H256    1.081   .     S
C247   N276    1.364   .     A
C248   N277    1.424   .     S
Cu249  O279    1.951   .     S
Cu249  O283    1.952   .     S
Cu249  Cu250   2.676   .     S
Cu249  N276    2.010   .     S
Cu249  O287    1.958   .     S
Cu249  O284    1.956   .     S
Cu250  O286    1.958   .     S
Cu250  O282    1.952   .     S
Cu250  O285    1.956   .     S
Cu250  N275    2.010   .     S
Cu250  O281    1.951   .     S
H251   C295    1.087   .     S
H257   C22     1.084   1_565 S
H259   N277    1.032   .     S
H262   C368    1.087   1_455 S
H263   C673    1.112   1_554 S
H264   N278    1.032   .     S
H265   C674    1.110   1_554 S
H266   C674    1.110   1_554 S
N277   C673    1.447   1_554 S
C289   O351    1.293   .     A
C289   C302    1.457   .     S
C289   O354    1.292   .     A
C290   C292    1.419   .     A
C290   C319    1.414   .     A
C290   N350    1.423   .     S
C291   C320    1.418   .     A
C291   C311    1.408   .     A
C291   C724    1.516   1_554 S
C292   C315    1.409   .     A
C292   C723    1.516   .     S
C293   O358    1.287   .     A
C293   C295    1.433   .     S
C293   O356    1.285   .     A
C294   O357    1.285   .     A
C294   C296    1.433   .     S
C294   O359    1.287   .     A
C296   C367    1.335   .     S
C296   H406    1.087   .     S
C297   C308    1.402   .     A
C297   H340    1.084   .     S
C297   C299    1.388   .     A
C298   C309    1.402   .     A
C298   H341    1.084   .     S
C298   C301    1.388   .     A
C299   H342    1.083   .     S
C299   C302    1.397   .     A
C300   C303    1.459   .     S
C300   O355    1.292   .     A
C300   O353    1.293   .     A
C301   C303    1.398   .     A
C301   H343    1.083   .     S
C302   C304    1.401   .     A
C303   C305    1.402   .     A
C304   H344    1.084   .     S
C304   C306    1.401   .     A
C305   C307    1.401   .     A
C305   H345    1.084   .     S
C306   C308    1.415   .     A
C306   C310    1.487   .     S
C307   C312    1.487   .     S
C307   C309    1.415   .     A
C309   C92     1.468   1_565 S
C310   O360    1.221   .     D
C311   C316    1.406   .     A
C311   H346    1.083   .     S
C312   O352    1.221   .     D
C312   H114    1.084   1_565 S
C313   H332    1.111   .     S
C313   H333    1.110   .     S
C313   H767    1.112   .     S
C313   N781    1.447   .     S
C314   N350    1.447   .     S
C314   H339    1.112   .     S
C314   H769    1.110   .     S
C314   H770    1.110   .     S
C315   H324    1.082   .     S
C315   C317    1.406   .     A
C316   H325    1.080   .     S
C316   N347    1.365   .     A
C317   H326    1.081   .     S
C317   N348    1.363   .     A
C318   N347    1.366   .     A
C318   C320    1.415   .     A
C318   H327    1.080   .     S
C319   H328    1.081   .     S
C319   N348    1.364   .     A
C320   N349    1.424   .     S
Cu321  O351    1.951   .     S
Cu321  O355    1.952   .     S
Cu321  Cu322   2.676   .     S
Cu321  N348    2.010   .     S
Cu321  O359    1.958   .     S
Cu321  O356    1.956   .     S
Cu322  O358    1.958   .     S
Cu322  O354    1.952   .     S
Cu322  O357    1.956   .     S
Cu322  N347    2.010   .     S
Cu322  O353    1.951   .     S
H323   C367    1.087   .     S
H329   C94     1.084   1_565 S
H331   N349    1.032   .     S
H335   C745    1.112   1_554 S
H336   N350    1.032   .     S
H337   C746    1.110   1_554 S
H338   C746    1.110   1_554 S
N349   C745    1.447   1_554 S
C361   O423    1.293   .     A
C361   C374    1.457   .     S
C361   O426    1.292   .     A
C362   C364    1.419   .     A
C362   C391    1.414   .     A
C362   N422    1.423   .     S
C363   C392    1.418   .     A
C363   C383    1.408   .     A
C363   C796    1.516   1_554 S
C364   C387    1.409   .     A
C364   C795    1.516   .     S
C365   O430    1.287   .     A
C365   C367    1.433   .     S
C365   O428    1.285   .     A
C366   O429    1.285   .     A
C366   C368    1.433   .     S
C366   O431    1.287   .     A
C368   C223    1.335   1_655 S
C368   H262    1.087   1_655 S
C369   C380    1.402   .     A
C369   H412    1.084   .     S
C369   C371    1.388   .     A
C370   C381    1.402   .     A
C370   H413    1.084   .     S
C370   C373    1.388   .     A
C371   H414    1.083   .     S
C371   C374    1.397   .     A
C372   C375    1.459   .     S
C372   O427    1.292   .     A
C372   O425    1.293   .     A
C373   C375    1.398   .     A
C373   H415    1.083   .     S
C374   C376    1.401   .     A
C375   C377    1.402   .     A
C376   H416    1.084   .     S
C376   C378    1.401   .     A
C377   C379    1.401   .     A
C377   H417    1.084   .     S
C378   C380    1.415   .     A
C378   C382    1.487   .     S
C379   C384    1.487   .     S
C379   C381    1.415   .     A
C381   C164    1.468   1_565 S
C382   O432    1.221   .     D
C383   C388    1.406   .     A
C383   H418    1.083   .     S
C384   O424    1.221   .     D
C384   H186    1.084   1_565 S
C385   H404    1.111   .     S
C385   H405    1.110   .     S
C385   H839    1.112   .     S
C385   N853    1.447   .     S
C386   N422    1.447   .     S
C386   H411    1.112   .     S
C386   H841    1.110   .     S
C386   H842    1.110   .     S
C387   H396    1.082   .     S
C387   C389    1.406   .     A
C388   H397    1.080   .     S
C388   N419    1.365   .     A
C389   H398    1.081   .     S
C389   N420    1.363   .     A
C390   N419    1.366   .     A
C390   C392    1.415   .     A
C390   H399    1.080   .     S
C391   H400    1.081   .     S
C391   N420    1.364   .     A
C392   N421    1.424   .     S
Cu393  O423    1.951   .     S
Cu393  O427    1.952   .     S
Cu393  Cu394   2.676   .     S
Cu393  N420    2.010   .     S
Cu393  O431    1.958   .     S
Cu393  O428    1.956   .     S
Cu394  O430    1.958   .     S
Cu394  O426    1.952   .     S
Cu394  O429    1.956   .     S
Cu394  N419    2.010   .     S
Cu394  O425    1.951   .     S
H395   C223    1.087   1_655 S
H401   C166    1.084   1_565 S
H403   N421    1.032   .     S
H407   C817    1.112   1_554 S
H408   N422    1.032   .     S
H409   C818    1.110   1_554 S
H410   C818    1.110   1_554 S
N421   C817    1.447   1_554 S
C433   O495    1.293   .     A
C433   C446    1.457   .     S
C433   O498    1.292   .     A
C434   C436    1.419   .     A
C434   C463    1.414   .     A
C434   N494    1.423   .     S
C435   C464    1.418   .     A
C435   C455    1.408   .     A
C436   C459    1.409   .     A
C436   C3      1.516   1_556 S
C437   O502    1.287   .     A
C437   C439    1.433   .     S
C437   O500    1.285   .     A
C438   O501    1.285   .     A
C438   C440    1.433   .     S
C438   O503    1.287   .     A
C439   C584    1.335   1_455 S
C439   H611    1.087   1_455 S
C440   C511    1.335   .     S
C440   H550    1.087   .     S
C441   C452    1.402   .     A
C441   H484    1.084   .     S
C441   C443    1.388   .     A
C442   C453    1.402   .     A
C442   H485    1.084   .     S
C442   C445    1.388   .     A
C443   H486    1.083   .     S
C443   C446    1.397   .     A
C444   C447    1.459   .     S
C444   O499    1.292   .     A
C444   O497    1.293   .     A
C445   C447    1.398   .     A
C445   H487    1.083   .     S
C446   C448    1.401   .     A
C447   C449    1.402   .     A
C448   H488    1.084   .     S
C448   C450    1.401   .     A
C449   C451    1.401   .     A
C449   H489    1.084   .     S
C450   C452    1.415   .     A
C450   C454    1.487   .     S
C451   C456    1.487   .     S
C451   C453    1.415   .     A
C452   C669    1.468   1_545 S
C453   C668    1.468   .     S
C454   O504    1.221   .     D
C454   H689    1.084   1_545 S
C455   C460    1.406   .     A
C455   H490    1.083   .     S
C456   O496    1.221   .     D
C456   H690    1.084   .     S
C457   H476    1.111   .     S
C457   H477    1.110   .     S
C457   H47     1.112   1_556 S
C457   N61     1.447   1_556 S
C458   N494    1.447   .     S
C458   H483    1.112   .     S
C458   H49     1.110   1_556 S
C458   H50     1.110   1_556 S
C459   H468    1.082   .     S
C459   C461    1.406   .     A
C460   H469    1.080   .     S
C460   N491    1.365   .     A
C461   H470    1.081   .     S
C461   N492    1.363   .     A
C462   N491    1.366   .     A
C462   C464    1.415   .     A
C462   H471    1.080   .     S
C463   H472    1.081   .     S
C463   N492    1.364   .     A
C464   N493    1.424   .     S
Cu465  O495    1.951   .     S
Cu465  O499    1.952   .     S
Cu465  Cu466   2.676   .     S
Cu465  N492    2.010   .     S
Cu465  O503    1.958   .     S
Cu465  O500    1.956   .     S
Cu466  O502    1.958   .     S
Cu466  O498    1.952   .     S
Cu466  O501    1.956   .     S
Cu466  N491    2.010   .     S
Cu466  O497    1.951   .     S
H467   C511    1.087   .     S
H473   C670    1.084   .     S
H474   C672    1.084   1_545 S
H475   N493    1.032   .     S
H478   C584    1.087   1_455 S
H480   N494    1.032   .     S
C505   O567    1.293   .     A
C505   C518    1.457   .     S
C505   O570    1.292   .     A
C506   C508    1.419   .     A
C506   C535    1.414   .     A
C506   N566    1.423   .     S
C507   C536    1.418   .     A
C507   C527    1.408   .     A
C508   C531    1.409   .     A
C508   C75     1.516   1_556 S
C509   O574    1.287   .     A
C509   C511    1.433   .     S
C509   O572    1.285   .     A
C510   O573    1.285   .     A
C510   C512    1.433   .     S
C510   O575    1.287   .     A
C512   C583    1.335   .     S
C512   H622    1.087   .     S
C513   C524    1.402   .     A
C513   H556    1.084   .     S
C513   C515    1.388   .     A
C514   C525    1.402   .     A
C514   H557    1.084   .     S
C514   C517    1.388   .     A
C515   H558    1.083   .     S
C515   C518    1.397   .     A
C516   C519    1.459   .     S
C516   O571    1.292   .     A
C516   O569    1.293   .     A
C517   C519    1.398   .     A
C517   H559    1.083   .     S
C518   C520    1.401   .     A
C519   C521    1.402   .     A
C520   H560    1.084   .     S
C520   C522    1.401   .     A
C521   C523    1.401   .     A
C521   H561    1.084   .     S
C522   C524    1.415   .     A
C522   C526    1.487   .     S
C523   C528    1.487   .     S
C523   C525    1.415   .     A
C524   C741    1.468   1_545 S
C525   C740    1.468   .     S
C526   O576    1.221   .     D
C526   H761    1.084   1_545 S
C527   C532    1.406   .     A
C527   H562    1.083   .     S
C528   O568    1.221   .     D
C528   H762    1.084   .     S
C529   H548    1.111   .     S
C529   H549    1.110   .     S
C529   H119    1.112   1_556 S
C529   N133    1.447   1_556 S
C530   N566    1.447   .     S
C530   H555    1.112   .     S
C530   H121    1.110   1_556 S
C530   H122    1.110   1_556 S
C531   H540    1.082   .     S
C531   C533    1.406   .     A
C532   H541    1.080   .     S
C532   N563    1.365   .     A
C533   H542    1.081   .     S
C533   N564    1.363   .     A
C534   N563    1.366   .     A
C534   C536    1.415   .     A
C534   H543    1.080   .     S
C535   H544    1.081   .     S
C535   N564    1.364   .     A
C536   N565    1.424   .     S
Cu537  O567    1.951   .     S
Cu537  O571    1.952   .     S
Cu537  Cu538   2.676   .     S
Cu537  N564    2.010   .     S
Cu537  O575    1.958   .     S
Cu537  O572    1.956   .     S
Cu538  O574    1.958   .     S
Cu538  O570    1.952   .     S
Cu538  O573    1.956   .     S
Cu538  N563    2.010   .     S
Cu538  O569    1.951   .     S
H539   C583    1.087   .     S
H545   C742    1.084   .     S
H546   C744    1.084   1_545 S
H547   N565    1.032   .     S
H552   N566    1.032   .     S
C577   O639    1.293   .     A
C577   C590    1.457   .     S
C577   O642    1.292   .     A
C578   C580    1.419   .     A
C578   C607    1.414   .     A
C578   N638    1.423   .     S
C579   C608    1.418   .     A
C579   C599    1.408   .     A
C580   C603    1.409   .     A
C580   C147    1.516   1_556 S
C581   O646    1.287   .     A
C581   C583    1.433   .     S
C581   O644    1.285   .     A
C582   O645    1.285   .     A
C582   C584    1.433   .     S
C582   O647    1.287   .     A
C584   C439    1.335   1_655 S
C584   H478    1.087   1_655 S
C585   C596    1.402   .     A
C585   H628    1.084   .     S
C585   C587    1.388   .     A
C586   C597    1.402   .     A
C586   H629    1.084   .     S
C586   C589    1.388   .     A
C587   H630    1.083   .     S
C587   C590    1.397   .     A
C588   C591    1.459   .     S
C588   O643    1.292   .     A
C588   O641    1.293   .     A
C589   C591    1.398   .     A
C589   H631    1.083   .     S
C590   C592    1.401   .     A
C591   C593    1.402   .     A
C592   H632    1.084   .     S
C592   C594    1.401   .     A
C593   C595    1.401   .     A
C593   H633    1.084   .     S
C594   C596    1.415   .     A
C594   C598    1.487   .     S
C595   C600    1.487   .     S
C595   C597    1.415   .     A
C596   C813    1.468   1_545 S
C597   C812    1.468   .     S
C598   O648    1.221   .     D
C598   H833    1.084   1_545 S
C599   C604    1.406   .     A
C599   H634    1.083   .     S
C600   O640    1.221   .     D
C600   H834    1.084   .     S
C601   H620    1.111   .     S
C601   H621    1.110   .     S
C601   H191    1.112   1_556 S
C601   N205    1.447   1_556 S
C602   N638    1.447   .     S
C602   H627    1.112   .     S
C602   H193    1.110   1_556 S
C602   H194    1.110   1_556 S
C603   H612    1.082   .     S
C603   C605    1.406   .     A
C604   H613    1.080   .     S
C604   N635    1.365   .     A
C605   H614    1.081   .     S
C605   N636    1.363   .     A
C606   N635    1.366   .     A
C606   C608    1.415   .     A
C606   H615    1.080   .     S
C607   H616    1.081   .     S
C607   N636    1.364   .     A
C608   N637    1.424   .     S
Cu609  O639    1.951   .     S
Cu609  O643    1.952   .     S
Cu609  Cu610   2.676   .     S
Cu609  N636    2.010   .     S
Cu609  O647    1.958   .     S
Cu609  O644    1.956   .     S
Cu610  O646    1.958   .     S
Cu610  O642    1.952   .     S
Cu610  O645    1.956   .     S
Cu610  N635    2.010   .     S
Cu610  O641    1.951   .     S
H611   C439    1.087   1_655 S
H617   C814    1.084   .     S
H618   C816    1.084   1_545 S
H619   N637    1.032   .     S
H624   N638    1.032   .     S
C649   O711    1.293   .     A
C649   C662    1.457   .     S
C649   O714    1.292   .     A
C650   C652    1.419   .     A
C650   C679    1.414   .     A
C650   N710    1.423   .     S
C651   C680    1.418   .     A
C651   C671    1.408   .     A
C652   C675    1.409   .     A
C652   C219    1.516   1_556 S
C653   O718    1.287   .     A
C653   C655    1.433   .     S
C653   O716    1.285   .     A
C654   O717    1.285   .     A
C654   C656    1.433   .     S
C654   O719    1.287   .     A
C655   C800    1.335   1_455 S
C655   H827    1.087   1_455 S
C656   C727    1.335   .     S
C656   H766    1.087   .     S
C657   C668    1.402   .     A
C657   H700    1.084   .     S
C657   C659    1.388   .     A
C658   C669    1.402   .     A
C658   H701    1.084   .     S
C658   C661    1.388   .     A
C659   H702    1.083   .     S
C659   C662    1.397   .     A
C660   C663    1.459   .     S
C660   O715    1.292   .     A
C660   O713    1.293   .     A
C661   C663    1.398   .     A
C661   H703    1.083   .     S
C662   C664    1.401   .     A
C663   C665    1.402   .     A
C664   H704    1.084   .     S
C664   C666    1.401   .     A
C665   C667    1.401   .     A
C665   H705    1.084   .     S
C666   C668    1.415   .     A
C666   C670    1.487   .     S
C667   C672    1.487   .     S
C667   C669    1.415   .     A
C669   C452    1.468   1_565 S
C670   O720    1.221   .     D
C671   C676    1.406   .     A
C671   H706    1.083   .     S
C672   O712    1.221   .     D
C672   H474    1.084   1_565 S
C673   H692    1.111   .     S
C673   H693    1.110   .     S
C673   H263    1.112   1_556 S
C673   N277    1.447   1_556 S
C674   N710    1.447   .     S
C674   H699    1.112   .     S
C674   H265    1.110   1_556 S
C674   H266    1.110   1_556 S
C675   H684    1.082   .     S
C675   C677    1.406   .     A
C676   H685    1.080   .     S
C676   N707    1.365   .     A
C677   H686    1.081   .     S
C677   N708    1.363   .     A
C678   N707    1.366   .     A
C678   C680    1.415   .     A
C678   H687    1.080   .     S
C679   H688    1.081   .     S
C679   N708    1.364   .     A
C680   N709    1.424   .     S
Cu681  O711    1.951   .     S
Cu681  O715    1.952   .     S
Cu681  Cu682   2.676   .     S
Cu681  N708    2.010   .     S
Cu681  O719    1.958   .     S
Cu681  O716    1.956   .     S
Cu682  O718    1.958   .     S
Cu682  O714    1.952   .     S
Cu682  O717    1.956   .     S
Cu682  N707    2.010   .     S
Cu682  O713    1.951   .     S
H683   C727    1.087   .     S
H689   C454    1.084   1_565 S
H691   N709    1.032   .     S
H694   C800    1.087   1_455 S
H696   N710    1.032   .     S
C721   O783    1.293   .     A
C721   C734    1.457   .     S
C721   O786    1.292   .     A
C722   C724    1.419   .     A
C722   C751    1.414   .     A
C722   N782    1.423   .     S
C723   C752    1.418   .     A
C723   C743    1.408   .     A
C724   C747    1.409   .     A
C724   C291    1.516   1_556 S
C725   O790    1.287   .     A
C725   C727    1.433   .     S
C725   O788    1.285   .     A
C726   O789    1.285   .     A
C726   C728    1.433   .     S
C726   O791    1.287   .     A
C728   C799    1.335   .     S
C728   H838    1.087   .     S
C729   C740    1.402   .     A
C729   H772    1.084   .     S
C729   C731    1.388   .     A
C730   C741    1.402   .     A
C730   H773    1.084   .     S
C730   C733    1.388   .     A
C731   H774    1.083   .     S
C731   C734    1.397   .     A
C732   C735    1.459   .     S
C732   O787    1.292   .     A
C732   O785    1.293   .     A
C733   C735    1.398   .     A
C733   H775    1.083   .     S
C734   C736    1.401   .     A
C735   C737    1.402   .     A
C736   H776    1.084   .     S
C736   C738    1.401   .     A
C737   C739    1.401   .     A
C737   H777    1.084   .     S
C738   C740    1.415   .     A
C738   C742    1.487   .     S
C739   C744    1.487   .     S
C739   C741    1.415   .     A
C741   C524    1.468   1_565 S
C742   O792    1.221   .     D
C743   C748    1.406   .     A
C743   H778    1.083   .     S
C744   O784    1.221   .     D
C744   H546    1.084   1_565 S
C745   H764    1.111   .     S
C745   H765    1.110   .     S
C745   H335    1.112   1_556 S
C745   N349    1.447   1_556 S
C746   N782    1.447   .     S
C746   H771    1.112   .     S
C746   H337    1.110   1_556 S
C746   H338    1.110   1_556 S
C747   H756    1.082   .     S
C747   C749    1.406   .     A
C748   H757    1.080   .     S
C748   N779    1.365   .     A
C749   H758    1.081   .     S
C749   N780    1.363   .     A
C750   N779    1.366   .     A
C750   C752    1.415   .     A
C750   H759    1.080   .     S
C751   H760    1.081   .     S
C751   N780    1.364   .     A
C752   N781    1.424   .     S
Cu753  O783    1.951   .     S
Cu753  O787    1.952   .     S
Cu753  Cu754   2.676   .     S
Cu753  N780    2.010   .     S
Cu753  O791    1.958   .     S
Cu753  O788    1.956   .     S
Cu754  O790    1.958   .     S
Cu754  O786    1.952   .     S
Cu754  O789    1.956   .     S
Cu754  N779    2.010   .     S
Cu754  O785    1.951   .     S
H755   C799    1.087   .     S
H761   C526    1.084   1_565 S
H763   N781    1.032   .     S
H768   N782    1.032   .     S
C793   O855    1.293   .     A
C793   C806    1.457   .     S
C793   O858    1.292   .     A
C794   C796    1.419   .     A
C794   C823    1.414   .     A
C794   N854    1.423   .     S
C795   C824    1.418   .     A
C795   C815    1.408   .     A
C796   C819    1.409   .     A
C796   C363    1.516   1_556 S
C797   O862    1.287   .     A
C797   C799    1.433   .     S
C797   O860    1.285   .     A
C798   O861    1.285   .     A
C798   C800    1.433   .     S
C798   O863    1.287   .     A
C800   C655    1.335   1_655 S
C800   H694    1.087   1_655 S
C801   C812    1.402   .     A
C801   H844    1.084   .     S
C801   C803    1.388   .     A
C802   C813    1.402   .     A
C802   H845    1.084   .     S
C802   C805    1.388   .     A
C803   H846    1.083   .     S
C803   C806    1.397   .     A
C804   C807    1.459   .     S
C804   O859    1.292   .     A
C804   O857    1.293   .     A
C805   C807    1.398   .     A
C805   H847    1.083   .     S
C806   C808    1.401   .     A
C807   C809    1.402   .     A
C808   H848    1.084   .     S
C808   C810    1.401   .     A
C809   C811    1.401   .     A
C809   H849    1.084   .     S
C810   C812    1.415   .     A
C810   C814    1.487   .     S
C811   C816    1.487   .     S
C811   C813    1.415   .     A
C813   C596    1.468   1_565 S
C814   O864    1.221   .     D
C815   C820    1.406   .     A
C815   H850    1.083   .     S
C816   O856    1.221   .     D
C816   H618    1.084   1_565 S
C817   H836    1.111   .     S
C817   H837    1.110   .     S
C817   H407    1.112   1_556 S
C817   N421    1.447   1_556 S
C818   N854    1.447   .     S
C818   H843    1.112   .     S
C818   H409    1.110   1_556 S
C818   H410    1.110   1_556 S
C819   H828    1.082   .     S
C819   C821    1.406   .     A
C820   H829    1.080   .     S
C820   N851    1.365   .     A
C821   H830    1.081   .     S
C821   N852    1.363   .     A
C822   N851    1.366   .     A
C822   C824    1.415   .     A
C822   H831    1.080   .     S
C823   H832    1.081   .     S
C823   N852    1.364   .     A
C824   N853    1.424   .     S
Cu825  O855    1.951   .     S
Cu825  O859    1.952   .     S
Cu825  Cu826   2.676   .     S
Cu825  N852    2.010   .     S
Cu825  O863    1.958   .     S
Cu825  O860    1.956   .     S
Cu826  O862    1.958   .     S
Cu826  O858    1.952   .     S
Cu826  O861    1.956   .     S
Cu826  N851    2.010   .     S
Cu826  O857    1.951   .     S
H827   C655    1.087   1_655 S
H833   C598    1.084   1_565 S
H835   N853    1.032   .     S
H840   N854    1.032   .     S
