data_str_m2_o1_o16_pcu_sym.46
_audit_creation_date              2020-01-03
_audit_creation_method            'Materials Studio'
_symmetry_space_group_name_H-M    'P1'
_symmetry_Int_Tables_number       1
_symmetry_cell_setting            triclinic
loop_
_symmetry_equiv_pos_as_xyz
  x,y,z
_cell_length_a                    28.5316
_cell_length_b                    32.4982
_cell_length_c                    26.9388
_cell_angle_alpha                 90.1786
_cell_angle_beta                  73.3323
_cell_angle_gamma                 90.0093
loop_
_atom_site_label
_atom_site_type_symbol
_atom_site_fract_x
_atom_site_fract_y
_atom_site_fract_z
_atom_site_U_iso_or_equiv
_atom_site_adp_type
_atom_site_occupancy
C1     C     0.16666   0.24598   0.25006   0.00000  Uiso   1.00
C2     C     0.12635   0.17180   0.40702   0.00000  Uiso   1.00
C3     C     0.20897   0.31205   0.25103   0.00000  Uiso   1.00
C4     C     0.14092   0.16921   0.34993   0.00000  Uiso   1.00
C5     C     0.20898   0.02129   0.25096   0.00000  Uiso   1.00
C6     C     0.16669   0.04273   0.24986   0.00000  Uiso   1.00
C7     C     0.12442   0.02126   0.24873   0.00000  Uiso   1.00
C8     C     0.12441   0.31202   0.24879   0.00000  Uiso   1.00
C9     C     0.16668   0.29059   0.24998   0.00000  Uiso   1.00
C10    C     0.30202   0.19727   0.27430   0.00000  Uiso   1.00
C11    C     0.01820   0.19715   0.27453   0.00000  Uiso   1.00
C12    C     0.14694   0.17743   0.48912   0.00000  Uiso   1.00
C13    C     0.03137   0.13608   0.22562   0.00000  Uiso   1.00
C14    C     0.31514   0.13617   0.22548   0.00000  Uiso   1.00
C15    C     0.16667   0.08735   0.24993   0.00000  Uiso   1.00
C16    C     0.19236   0.17008   0.15040   0.00000  Uiso   1.00
C17    C     0.26831   0.18732   0.01241   0.00000  Uiso   1.00
C18    C     0.20620   0.17823   0.09449   0.00000  Uiso   1.00
C19    C     0.07958   0.15759   0.43429   0.00000  Uiso   1.00
C20    C     0.06720   0.15170   0.48750   0.00000  Uiso   1.00
C21    C     0.10088   0.16032   0.01444   0.00000  Uiso   1.00
C22    C     0.15990   0.18360   0.43485   0.00000  Uiso   1.00
C23    C     0.18217   0.18511   0.01591   0.00000  Uiso   1.00
C24    C     0.23166   0.19057   0.48748   0.00000  Uiso   1.00
C25    C     0.24315   0.20052   0.43516   0.00000  Uiso   1.00
C26    C     0.20661   0.20033   0.41034   0.00000  Uiso   1.00
C27    C     0.16993   0.18817   0.07007   0.00000  Uiso   1.00
C28    C     0.25563   0.17802   0.06510   0.00000  Uiso   1.00
Cu29   Cu    0.11978   0.16666   0.25000   0.00000  Uiso   1.00
Cu30   Cu    0.21355   0.16667   0.25000   0.00000  Uiso   1.00
H31    H     0.28441   0.17271   0.08324   0.00000  Uiso   1.00
H32    H     0.30648   0.19049   0.49084   0.00000  Uiso   1.00
H33    H     0.05336   0.14865   0.41408   0.00000  Uiso   1.00
H34    H     0.09133   0.15174   0.05475   0.00000  Uiso   1.00
H35    H     0.03204   0.13860   0.00767   0.00000  Uiso   1.00
H36    H     0.21611   0.21274   0.37177   0.00000  Uiso   1.00
H37    H     0.24201   0.29605   0.25197   0.00000  Uiso   1.00
H38    H     0.04548   0.21383   0.14985   0.00000  Uiso   1.00
H39    H     0.24204   0.03731   0.25183   0.00000  Uiso   1.00
H40    H     0.09138   0.03726   0.24778   0.00000  Uiso   1.00
H41    H     0.09137   0.29599   0.24787   0.00000  Uiso   1.00
H42    H     0.27832   0.22200   0.29344   0.00000  Uiso   1.00
H43    H     0.03151   0.22154   0.29430   0.00000  Uiso   1.00
H44    H     0.05539   0.11174   0.20570   0.00000  Uiso   1.00
H45    H     0.30187   0.11186   0.20554   0.00000  Uiso   1.00
H46    H     0.28007   0.20924   0.41373   0.00000  Uiso   1.00
N47    N     0.04931   0.16666   0.24999   0.00000  Uiso   1.00
N48    N     0.28402   0.16669   0.24999   0.00000  Uiso   1.00
O49    O     0.12708   0.22678   0.25001   0.00000  Uiso   1.00
O50    O     0.10533   0.24705   0.06267   0.00000  Uiso   1.00
O51    O     0.07144   0.19332   0.13496   0.00000  Uiso   1.00
O52    O     0.20627   0.22679   0.25001   0.00000  Uiso   1.00
O53    O     0.10775   0.16665   0.32549   0.00000  Uiso   1.00
O54    O     0.18694   0.16666   0.32549   0.00000  Uiso   1.00
O55    O     0.12706   0.10654   0.24999   0.00000  Uiso   1.00
O56    O     0.20625   0.10655   0.24999   0.00000  Uiso   1.00
O57    O     0.14640   0.16667   0.17451   0.00000  Uiso   1.00
O58    O     0.22559   0.16668   0.17451   0.00000  Uiso   1.00
O59    O     0.13534   0.24908   0.13892   0.00000  Uiso   1.00
S60    S     0.11998   0.22109   0.10190   0.00000  Uiso   1.00
C61    C     0.50000   0.24598   0.25006   0.00000  Uiso   1.00
C62    C     0.45968   0.17180   0.40702   0.00000  Uiso   1.00
C63    C     0.54230   0.31205   0.25103   0.00000  Uiso   1.00
C64    C     0.47425   0.16921   0.34993   0.00000  Uiso   1.00
C65    C     0.54232   0.02129   0.25096   0.00000  Uiso   1.00
C66    C     0.50003   0.04273   0.24986   0.00000  Uiso   1.00
C67    C     0.45775   0.02126   0.24873   0.00000  Uiso   1.00
C68    C     0.45774   0.31202   0.24879   0.00000  Uiso   1.00
C69    C     0.50001   0.29059   0.24998   0.00000  Uiso   1.00
C70    C     0.63535   0.19727   0.27430   0.00000  Uiso   1.00
C71    C     0.35153   0.19715   0.27453   0.00000  Uiso   1.00
C72    C     0.48027   0.17743   0.48912   0.00000  Uiso   1.00
C73    C     0.36471   0.13608   0.22562   0.00000  Uiso   1.00
C74    C     0.64847   0.13617   0.22548   0.00000  Uiso   1.00
C75    C     0.50001   0.08735   0.24993   0.00000  Uiso   1.00
C76    C     0.52569   0.17008   0.15040   0.00000  Uiso   1.00
C77    C     0.60164   0.18732   0.01241   0.00000  Uiso   1.00
C78    C     0.53953   0.17823   0.09449   0.00000  Uiso   1.00
C79    C     0.41292   0.15759   0.43429   0.00000  Uiso   1.00
C80    C     0.40053   0.15170   0.48750   0.00000  Uiso   1.00
C81    C     0.43421   0.16032   0.01444   0.00000  Uiso   1.00
C82    C     0.49323   0.18360   0.43485   0.00000  Uiso   1.00
C83    C     0.51550   0.18511   0.01591   0.00000  Uiso   1.00
C84    C     0.56500   0.19057   0.48748   0.00000  Uiso   1.00
C85    C     0.57648   0.20052   0.43516   0.00000  Uiso   1.00
C86    C     0.53994   0.20033   0.41034   0.00000  Uiso   1.00
C87    C     0.50326   0.18817   0.07007   0.00000  Uiso   1.00
C88    C     0.58896   0.17802   0.06510   0.00000  Uiso   1.00
Cu89   Cu    0.45311   0.16666   0.25000   0.00000  Uiso   1.00
Cu90   Cu    0.54689   0.16667   0.25000   0.00000  Uiso   1.00
H91    H     0.61774   0.17271   0.08324   0.00000  Uiso   1.00
H92    H     0.63982   0.19049   0.49084   0.00000  Uiso   1.00
H93    H     0.38670   0.14865   0.41408   0.00000  Uiso   1.00
H94    H     0.42466   0.15174   0.05475   0.00000  Uiso   1.00
H95    H     0.36537   0.13860   0.00767   0.00000  Uiso   1.00
H96    H     0.54944   0.21274   0.37177   0.00000  Uiso   1.00
H97    H     0.57534   0.29605   0.25197   0.00000  Uiso   1.00
H98    H     0.37881   0.21383   0.14985   0.00000  Uiso   1.00
H99    H     0.57537   0.03731   0.25183   0.00000  Uiso   1.00
H100   H     0.42472   0.03726   0.24778   0.00000  Uiso   1.00
H101   H     0.42471   0.29599   0.24787   0.00000  Uiso   1.00
H102   H     0.61165   0.22200   0.29344   0.00000  Uiso   1.00
H103   H     0.36484   0.22154   0.29430   0.00000  Uiso   1.00
H104   H     0.38872   0.11174   0.20570   0.00000  Uiso   1.00
H105   H     0.63521   0.11186   0.20554   0.00000  Uiso   1.00
H106   H     0.61340   0.20924   0.41373   0.00000  Uiso   1.00
N107   N     0.38265   0.16666   0.24999   0.00000  Uiso   1.00
N108   N     0.61735   0.16669   0.24999   0.00000  Uiso   1.00
O109   O     0.46042   0.22678   0.25001   0.00000  Uiso   1.00
O110   O     0.43867   0.24705   0.06267   0.00000  Uiso   1.00
O111   O     0.40477   0.19332   0.13496   0.00000  Uiso   1.00
O112   O     0.53961   0.22679   0.25001   0.00000  Uiso   1.00
O113   O     0.44108   0.16665   0.32549   0.00000  Uiso   1.00
O114   O     0.52027   0.16666   0.32549   0.00000  Uiso   1.00
O115   O     0.46039   0.10654   0.24999   0.00000  Uiso   1.00
O116   O     0.53958   0.10655   0.24999   0.00000  Uiso   1.00
O117   O     0.47973   0.16667   0.17451   0.00000  Uiso   1.00
O118   O     0.55892   0.16668   0.17451   0.00000  Uiso   1.00
O119   O     0.46867   0.24908   0.13892   0.00000  Uiso   1.00
S120   S     0.45331   0.22109   0.10190   0.00000  Uiso   1.00
C121   C     0.83333   0.24598   0.25006   0.00000  Uiso   1.00
C122   C     0.79302   0.17180   0.40702   0.00000  Uiso   1.00
C123   C     0.87564   0.31205   0.25103   0.00000  Uiso   1.00
C124   C     0.80758   0.16921   0.34993   0.00000  Uiso   1.00
C125   C     0.87565   0.02129   0.25096   0.00000  Uiso   1.00
C126   C     0.83336   0.04273   0.24986   0.00000  Uiso   1.00
C127   C     0.79109   0.02126   0.24873   0.00000  Uiso   1.00
C128   C     0.79108   0.31202   0.24879   0.00000  Uiso   1.00
C129   C     0.83334   0.29059   0.24998   0.00000  Uiso   1.00
C130   C     0.96868   0.19727   0.27430   0.00000  Uiso   1.00
C131   C     0.68487   0.19715   0.27453   0.00000  Uiso   1.00
C132   C     0.81360   0.17743   0.48912   0.00000  Uiso   1.00
C133   C     0.69804   0.13608   0.22562   0.00000  Uiso   1.00
C134   C     0.98180   0.13617   0.22548   0.00000  Uiso   1.00
C135   C     0.83334   0.08735   0.24993   0.00000  Uiso   1.00
C136   C     0.85903   0.17008   0.15040   0.00000  Uiso   1.00
C137   C     0.93497   0.18732   0.01241   0.00000  Uiso   1.00
C138   C     0.87287   0.17823   0.09449   0.00000  Uiso   1.00
C139   C     0.74625   0.15759   0.43429   0.00000  Uiso   1.00
C140   C     0.73387   0.15170   0.48750   0.00000  Uiso   1.00
C141   C     0.76755   0.16032   0.01444   0.00000  Uiso   1.00
C142   C     0.82657   0.18360   0.43485   0.00000  Uiso   1.00
C143   C     0.84884   0.18511   0.01591   0.00000  Uiso   1.00
C144   C     0.89833   0.19057   0.48748   0.00000  Uiso   1.00
C145   C     0.90982   0.20052   0.43516   0.00000  Uiso   1.00
C146   C     0.87328   0.20033   0.41034   0.00000  Uiso   1.00
C147   C     0.83660   0.18817   0.07007   0.00000  Uiso   1.00
C148   C     0.92230   0.17802   0.06510   0.00000  Uiso   1.00
Cu149  Cu    0.78645   0.16666   0.25000   0.00000  Uiso   1.00
Cu150  Cu    0.88022   0.16667   0.25000   0.00000  Uiso   1.00
H151   H     0.95107   0.17271   0.08324   0.00000  Uiso   1.00
H152   H     0.97315   0.19049   0.49084   0.00000  Uiso   1.00
H153   H     0.72003   0.14865   0.41408   0.00000  Uiso   1.00
H154   H     0.75800   0.15174   0.05475   0.00000  Uiso   1.00
H155   H     0.69871   0.13860   0.00767   0.00000  Uiso   1.00
H156   H     0.88277   0.21274   0.37177   0.00000  Uiso   1.00
H157   H     0.90867   0.29605   0.25197   0.00000  Uiso   1.00
H158   H     0.71215   0.21383   0.14985   0.00000  Uiso   1.00
H159   H     0.90870   0.03731   0.25183   0.00000  Uiso   1.00
H160   H     0.75805   0.03726   0.24778   0.00000  Uiso   1.00
H161   H     0.75804   0.29599   0.24787   0.00000  Uiso   1.00
H162   H     0.94499   0.22200   0.29344   0.00000  Uiso   1.00
H163   H     0.69817   0.22154   0.29430   0.00000  Uiso   1.00
H164   H     0.72206   0.11174   0.20570   0.00000  Uiso   1.00
H165   H     0.96854   0.11186   0.20554   0.00000  Uiso   1.00
H166   H     0.94673   0.20924   0.41373   0.00000  Uiso   1.00
N167   N     0.71598   0.16666   0.24999   0.00000  Uiso   1.00
N168   N     0.95069   0.16669   0.24999   0.00000  Uiso   1.00
O169   O     0.79375   0.22678   0.25001   0.00000  Uiso   1.00
O170   O     0.77200   0.24705   0.06267   0.00000  Uiso   1.00
O171   O     0.73811   0.19332   0.13496   0.00000  Uiso   1.00
O172   O     0.87294   0.22679   0.25001   0.00000  Uiso   1.00
O173   O     0.77441   0.16665   0.32549   0.00000  Uiso   1.00
O174   O     0.85360   0.16666   0.32549   0.00000  Uiso   1.00
O175   O     0.79373   0.10654   0.24999   0.00000  Uiso   1.00
O176   O     0.87292   0.10655   0.24999   0.00000  Uiso   1.00
O177   O     0.81306   0.16667   0.17451   0.00000  Uiso   1.00
O178   O     0.89225   0.16668   0.17451   0.00000  Uiso   1.00
O179   O     0.80201   0.24908   0.13892   0.00000  Uiso   1.00
S180   S     0.78664   0.22109   0.10190   0.00000  Uiso   1.00
C181   C     0.16666   0.57932   0.25006   0.00000  Uiso   1.00
C182   C     0.12635   0.50514   0.40702   0.00000  Uiso   1.00
C183   C     0.20897   0.64539   0.25103   0.00000  Uiso   1.00
C184   C     0.14092   0.50254   0.34993   0.00000  Uiso   1.00
C185   C     0.20898   0.35462   0.25096   0.00000  Uiso   1.00
C186   C     0.16669   0.37606   0.24986   0.00000  Uiso   1.00
C187   C     0.12442   0.35459   0.24873   0.00000  Uiso   1.00
C188   C     0.12441   0.64536   0.24879   0.00000  Uiso   1.00
C189   C     0.16668   0.62392   0.24998   0.00000  Uiso   1.00
C190   C     0.30202   0.53061   0.27430   0.00000  Uiso   1.00
C191   C     0.01820   0.53048   0.27453   0.00000  Uiso   1.00
C192   C     0.14694   0.51076   0.48912   0.00000  Uiso   1.00
C193   C     0.03137   0.46941   0.22562   0.00000  Uiso   1.00
C194   C     0.31514   0.46950   0.22548   0.00000  Uiso   1.00
C195   C     0.16667   0.42068   0.24993   0.00000  Uiso   1.00
C196   C     0.19236   0.50342   0.15040   0.00000  Uiso   1.00
C197   C     0.26831   0.52066   0.01241   0.00000  Uiso   1.00
C198   C     0.20620   0.51156   0.09449   0.00000  Uiso   1.00
C199   C     0.07958   0.49093   0.43429   0.00000  Uiso   1.00
C200   C     0.06720   0.48503   0.48750   0.00000  Uiso   1.00
C201   C     0.10088   0.49365   0.01444   0.00000  Uiso   1.00
C202   C     0.15990   0.51693   0.43485   0.00000  Uiso   1.00
C203   C     0.18217   0.51844   0.01591   0.00000  Uiso   1.00
C204   C     0.23166   0.52391   0.48748   0.00000  Uiso   1.00
C205   C     0.24315   0.53385   0.43516   0.00000  Uiso   1.00
C206   C     0.20661   0.53367   0.41034   0.00000  Uiso   1.00
C207   C     0.16993   0.52151   0.07007   0.00000  Uiso   1.00
C208   C     0.25563   0.51135   0.06510   0.00000  Uiso   1.00
Cu209  Cu    0.11978   0.49999   0.25000   0.00000  Uiso   1.00
Cu210  Cu    0.21355   0.50001   0.25000   0.00000  Uiso   1.00
H211   H     0.28441   0.50605   0.08324   0.00000  Uiso   1.00
H212   H     0.30648   0.52383   0.49084   0.00000  Uiso   1.00
H213   H     0.05336   0.48198   0.41408   0.00000  Uiso   1.00
H214   H     0.09133   0.48507   0.05475   0.00000  Uiso   1.00
H215   H     0.03204   0.47193   0.00767   0.00000  Uiso   1.00
H216   H     0.21611   0.54607   0.37177   0.00000  Uiso   1.00
H217   H     0.24201   0.62938   0.25197   0.00000  Uiso   1.00
H218   H     0.04548   0.54716   0.14985   0.00000  Uiso   1.00
H219   H     0.24204   0.37064   0.25183   0.00000  Uiso   1.00
H220   H     0.09138   0.37059   0.24778   0.00000  Uiso   1.00
H221   H     0.09137   0.62933   0.24787   0.00000  Uiso   1.00
H222   H     0.27832   0.55534   0.29344   0.00000  Uiso   1.00
H223   H     0.03151   0.55488   0.29430   0.00000  Uiso   1.00
H224   H     0.05539   0.44508   0.20570   0.00000  Uiso   1.00
H225   H     0.30187   0.44519   0.20554   0.00000  Uiso   1.00
H226   H     0.28007   0.54257   0.41373   0.00000  Uiso   1.00
N227   N     0.04931   0.49999   0.24999   0.00000  Uiso   1.00
N228   N     0.28402   0.50002   0.24999   0.00000  Uiso   1.00
O229   O     0.12708   0.56011   0.25001   0.00000  Uiso   1.00
O230   O     0.10533   0.58038   0.06267   0.00000  Uiso   1.00
O231   O     0.07144   0.52666   0.13496   0.00000  Uiso   1.00
O232   O     0.20627   0.56012   0.25001   0.00000  Uiso   1.00
O233   O     0.10775   0.49998   0.32549   0.00000  Uiso   1.00
O234   O     0.18694   0.49999   0.32549   0.00000  Uiso   1.00
O235   O     0.12706   0.43988   0.24999   0.00000  Uiso   1.00
O236   O     0.20625   0.43989   0.24999   0.00000  Uiso   1.00
O237   O     0.14640   0.50001   0.17451   0.00000  Uiso   1.00
O238   O     0.22559   0.50002   0.17451   0.00000  Uiso   1.00
O239   O     0.13534   0.58241   0.13892   0.00000  Uiso   1.00
S240   S     0.11998   0.55443   0.10190   0.00000  Uiso   1.00
C241   C     0.50000   0.57932   0.25006   0.00000  Uiso   1.00
C242   C     0.45968   0.50514   0.40702   0.00000  Uiso   1.00
C243   C     0.54230   0.64539   0.25103   0.00000  Uiso   1.00
C244   C     0.47425   0.50254   0.34993   0.00000  Uiso   1.00
C245   C     0.54232   0.35462   0.25096   0.00000  Uiso   1.00
C246   C     0.50003   0.37606   0.24986   0.00000  Uiso   1.00
C247   C     0.45775   0.35459   0.24873   0.00000  Uiso   1.00
C248   C     0.45774   0.64536   0.24879   0.00000  Uiso   1.00
C249   C     0.50001   0.62392   0.24998   0.00000  Uiso   1.00
C250   C     0.63535   0.53061   0.27430   0.00000  Uiso   1.00
C251   C     0.35153   0.53048   0.27453   0.00000  Uiso   1.00
C252   C     0.48027   0.51076   0.48912   0.00000  Uiso   1.00
C253   C     0.36471   0.46941   0.22562   0.00000  Uiso   1.00
C254   C     0.64847   0.46950   0.22548   0.00000  Uiso   1.00
C255   C     0.50001   0.42068   0.24993   0.00000  Uiso   1.00
C256   C     0.52569   0.50342   0.15040   0.00000  Uiso   1.00
C257   C     0.60164   0.52066   0.01241   0.00000  Uiso   1.00
C258   C     0.53953   0.51156   0.09449   0.00000  Uiso   1.00
C259   C     0.41292   0.49093   0.43429   0.00000  Uiso   1.00
C260   C     0.40053   0.48503   0.48750   0.00000  Uiso   1.00
C261   C     0.43421   0.49365   0.01444   0.00000  Uiso   1.00
C262   C     0.49323   0.51693   0.43485   0.00000  Uiso   1.00
C263   C     0.51550   0.51844   0.01591   0.00000  Uiso   1.00
C264   C     0.56500   0.52391   0.48748   0.00000  Uiso   1.00
C265   C     0.57648   0.53385   0.43516   0.00000  Uiso   1.00
C266   C     0.53994   0.53367   0.41034   0.00000  Uiso   1.00
C267   C     0.50326   0.52151   0.07007   0.00000  Uiso   1.00
C268   C     0.58896   0.51135   0.06510   0.00000  Uiso   1.00
Cu269  Cu    0.45311   0.49999   0.25000   0.00000  Uiso   1.00
Cu270  Cu    0.54689   0.50001   0.25000   0.00000  Uiso   1.00
H271   H     0.61774   0.50605   0.08324   0.00000  Uiso   1.00
H272   H     0.63982   0.52383   0.49084   0.00000  Uiso   1.00
H273   H     0.38670   0.48198   0.41408   0.00000  Uiso   1.00
H274   H     0.42466   0.48507   0.05475   0.00000  Uiso   1.00
H275   H     0.36537   0.47193   0.00767   0.00000  Uiso   1.00
H276   H     0.54944   0.54607   0.37177   0.00000  Uiso   1.00
H277   H     0.57534   0.62938   0.25197   0.00000  Uiso   1.00
H278   H     0.37881   0.54716   0.14985   0.00000  Uiso   1.00
H279   H     0.57537   0.37064   0.25183   0.00000  Uiso   1.00
H280   H     0.42472   0.37059   0.24778   0.00000  Uiso   1.00
H281   H     0.42471   0.62933   0.24787   0.00000  Uiso   1.00
H282   H     0.61165   0.55534   0.29344   0.00000  Uiso   1.00
H283   H     0.36484   0.55488   0.29430   0.00000  Uiso   1.00
H284   H     0.38872   0.44508   0.20570   0.00000  Uiso   1.00
H285   H     0.63521   0.44519   0.20554   0.00000  Uiso   1.00
H286   H     0.61340   0.54257   0.41373   0.00000  Uiso   1.00
N287   N     0.38265   0.49999   0.24999   0.00000  Uiso   1.00
N288   N     0.61735   0.50002   0.24999   0.00000  Uiso   1.00
O289   O     0.46042   0.56011   0.25001   0.00000  Uiso   1.00
O290   O     0.43867   0.58038   0.06267   0.00000  Uiso   1.00
O291   O     0.40477   0.52666   0.13496   0.00000  Uiso   1.00
O292   O     0.53961   0.56012   0.25001   0.00000  Uiso   1.00
O293   O     0.44108   0.49998   0.32549   0.00000  Uiso   1.00
O294   O     0.52027   0.49999   0.32549   0.00000  Uiso   1.00
O295   O     0.46039   0.43988   0.24999   0.00000  Uiso   1.00
O296   O     0.53958   0.43989   0.24999   0.00000  Uiso   1.00
O297   O     0.47973   0.50001   0.17451   0.00000  Uiso   1.00
O298   O     0.55892   0.50002   0.17451   0.00000  Uiso   1.00
O299   O     0.46867   0.58241   0.13892   0.00000  Uiso   1.00
S300   S     0.45331   0.55443   0.10190   0.00000  Uiso   1.00
C301   C     0.83333   0.57932   0.25006   0.00000  Uiso   1.00
C302   C     0.79302   0.50514   0.40702   0.00000  Uiso   1.00
C303   C     0.87564   0.64539   0.25103   0.00000  Uiso   1.00
C304   C     0.80758   0.50254   0.34993   0.00000  Uiso   1.00
C305   C     0.87565   0.35462   0.25096   0.00000  Uiso   1.00
C306   C     0.83336   0.37606   0.24986   0.00000  Uiso   1.00
C307   C     0.79109   0.35459   0.24873   0.00000  Uiso   1.00
C308   C     0.79108   0.64536   0.24879   0.00000  Uiso   1.00
C309   C     0.83334   0.62392   0.24998   0.00000  Uiso   1.00
C310   C     0.96868   0.53061   0.27430   0.00000  Uiso   1.00
C311   C     0.68487   0.53048   0.27453   0.00000  Uiso   1.00
C312   C     0.81360   0.51076   0.48912   0.00000  Uiso   1.00
C313   C     0.69804   0.46941   0.22562   0.00000  Uiso   1.00
C314   C     0.98180   0.46950   0.22548   0.00000  Uiso   1.00
C315   C     0.83334   0.42068   0.24993   0.00000  Uiso   1.00
C316   C     0.85903   0.50342   0.15040   0.00000  Uiso   1.00
C317   C     0.93497   0.52066   0.01241   0.00000  Uiso   1.00
C318   C     0.87287   0.51156   0.09449   0.00000  Uiso   1.00
C319   C     0.74625   0.49093   0.43429   0.00000  Uiso   1.00
C320   C     0.73387   0.48503   0.48750   0.00000  Uiso   1.00
C321   C     0.76755   0.49365   0.01444   0.00000  Uiso   1.00
C322   C     0.82657   0.51693   0.43485   0.00000  Uiso   1.00
C323   C     0.84884   0.51844   0.01591   0.00000  Uiso   1.00
C324   C     0.89833   0.52391   0.48748   0.00000  Uiso   1.00
C325   C     0.90982   0.53385   0.43516   0.00000  Uiso   1.00
C326   C     0.87328   0.53367   0.41034   0.00000  Uiso   1.00
C327   C     0.83660   0.52151   0.07007   0.00000  Uiso   1.00
C328   C     0.92230   0.51135   0.06510   0.00000  Uiso   1.00
Cu329  Cu    0.78645   0.49999   0.25000   0.00000  Uiso   1.00
Cu330  Cu    0.88022   0.50001   0.25000   0.00000  Uiso   1.00
H331   H     0.95107   0.50605   0.08324   0.00000  Uiso   1.00
H332   H     0.97315   0.52383   0.49084   0.00000  Uiso   1.00
H333   H     0.72003   0.48198   0.41408   0.00000  Uiso   1.00
H334   H     0.75800   0.48507   0.05475   0.00000  Uiso   1.00
H335   H     0.69871   0.47193   0.00767   0.00000  Uiso   1.00
H336   H     0.88277   0.54607   0.37177   0.00000  Uiso   1.00
H337   H     0.90867   0.62938   0.25197   0.00000  Uiso   1.00
H338   H     0.71215   0.54716   0.14985   0.00000  Uiso   1.00
H339   H     0.90870   0.37064   0.25183   0.00000  Uiso   1.00
H340   H     0.75805   0.37059   0.24778   0.00000  Uiso   1.00
H341   H     0.75804   0.62933   0.24787   0.00000  Uiso   1.00
H342   H     0.94499   0.55534   0.29344   0.00000  Uiso   1.00
H343   H     0.69817   0.55488   0.29430   0.00000  Uiso   1.00
H344   H     0.72206   0.44508   0.20570   0.00000  Uiso   1.00
H345   H     0.96854   0.44519   0.20554   0.00000  Uiso   1.00
H346   H     0.94673   0.54257   0.41373   0.00000  Uiso   1.00
N347   N     0.71598   0.49999   0.24999   0.00000  Uiso   1.00
N348   N     0.95069   0.50002   0.24999   0.00000  Uiso   1.00
O349   O     0.79375   0.56011   0.25001   0.00000  Uiso   1.00
O350   O     0.77200   0.58038   0.06267   0.00000  Uiso   1.00
O351   O     0.73811   0.52666   0.13496   0.00000  Uiso   1.00
O352   O     0.87294   0.56012   0.25001   0.00000  Uiso   1.00
O353   O     0.77441   0.49998   0.32549   0.00000  Uiso   1.00
O354   O     0.85360   0.49999   0.32549   0.00000  Uiso   1.00
O355   O     0.79373   0.43988   0.24999   0.00000  Uiso   1.00
O356   O     0.87292   0.43989   0.24999   0.00000  Uiso   1.00
O357   O     0.81306   0.50001   0.17451   0.00000  Uiso   1.00
O358   O     0.89225   0.50002   0.17451   0.00000  Uiso   1.00
O359   O     0.80201   0.58241   0.13892   0.00000  Uiso   1.00
S360   S     0.78664   0.55443   0.10190   0.00000  Uiso   1.00
C361   C     0.16666   0.91265   0.25006   0.00000  Uiso   1.00
C362   C     0.12635   0.83847   0.40702   0.00000  Uiso   1.00
C363   C     0.20897   0.97872   0.25103   0.00000  Uiso   1.00
C364   C     0.14092   0.83588   0.34993   0.00000  Uiso   1.00
C365   C     0.20898   0.68795   0.25096   0.00000  Uiso   1.00
C366   C     0.16669   0.70940   0.24986   0.00000  Uiso   1.00
C367   C     0.12442   0.68793   0.24873   0.00000  Uiso   1.00
C368   C     0.12441   0.97869   0.24879   0.00000  Uiso   1.00
C369   C     0.16668   0.95725   0.24998   0.00000  Uiso   1.00
C370   C     0.30202   0.86394   0.27430   0.00000  Uiso   1.00
C371   C     0.01820   0.86382   0.27453   0.00000  Uiso   1.00
C372   C     0.14694   0.84409   0.48912   0.00000  Uiso   1.00
C373   C     0.03137   0.80274   0.22562   0.00000  Uiso   1.00
C374   C     0.31514   0.80283   0.22548   0.00000  Uiso   1.00
C375   C     0.16667   0.75402   0.24993   0.00000  Uiso   1.00
C376   C     0.19236   0.83675   0.15040   0.00000  Uiso   1.00
C377   C     0.26831   0.85399   0.01241   0.00000  Uiso   1.00
C378   C     0.20620   0.84489   0.09449   0.00000  Uiso   1.00
C379   C     0.07958   0.82426   0.43429   0.00000  Uiso   1.00
C380   C     0.06720   0.81837   0.48750   0.00000  Uiso   1.00
C381   C     0.10088   0.82698   0.01444   0.00000  Uiso   1.00
C382   C     0.15990   0.85026   0.43485   0.00000  Uiso   1.00
C383   C     0.18217   0.85178   0.01591   0.00000  Uiso   1.00
C384   C     0.23166   0.85724   0.48748   0.00000  Uiso   1.00
C385   C     0.24315   0.86718   0.43516   0.00000  Uiso   1.00
C386   C     0.20661   0.86700   0.41034   0.00000  Uiso   1.00
C387   C     0.16993   0.85484   0.07007   0.00000  Uiso   1.00
C388   C     0.25563   0.84468   0.06510   0.00000  Uiso   1.00
Cu389  Cu    0.11978   0.83333   0.25000   0.00000  Uiso   1.00
Cu390  Cu    0.21355   0.83334   0.25000   0.00000  Uiso   1.00
H391   H     0.28441   0.83938   0.08324   0.00000  Uiso   1.00
H392   H     0.30648   0.85716   0.49084   0.00000  Uiso   1.00
H393   H     0.05336   0.81532   0.41408   0.00000  Uiso   1.00
H394   H     0.09133   0.81841   0.05475   0.00000  Uiso   1.00
H395   H     0.03204   0.80527   0.00767   0.00000  Uiso   1.00
H396   H     0.21611   0.87940   0.37177   0.00000  Uiso   1.00
H397   H     0.24201   0.96272   0.25197   0.00000  Uiso   1.00
H398   H     0.04548   0.88050   0.14985   0.00000  Uiso   1.00
H399   H     0.24204   0.70398   0.25183   0.00000  Uiso   1.00
H400   H     0.09138   0.70392   0.24778   0.00000  Uiso   1.00
H401   H     0.09137   0.96266   0.24787   0.00000  Uiso   1.00
H402   H     0.27832   0.88867   0.29344   0.00000  Uiso   1.00
H403   H     0.03151   0.88821   0.29430   0.00000  Uiso   1.00
H404   H     0.05539   0.77841   0.20570   0.00000  Uiso   1.00
H405   H     0.30187   0.77853   0.20554   0.00000  Uiso   1.00
H406   H     0.28007   0.87591   0.41373   0.00000  Uiso   1.00
N407   N     0.04931   0.83332   0.24999   0.00000  Uiso   1.00
N408   N     0.28402   0.83335   0.24999   0.00000  Uiso   1.00
O409   O     0.12708   0.89345   0.25001   0.00000  Uiso   1.00
O410   O     0.10533   0.91372   0.06267   0.00000  Uiso   1.00
O411   O     0.07144   0.85999   0.13496   0.00000  Uiso   1.00
O412   O     0.20627   0.89346   0.25001   0.00000  Uiso   1.00
O413   O     0.10775   0.83332   0.32549   0.00000  Uiso   1.00
O414   O     0.18694   0.83333   0.32549   0.00000  Uiso   1.00
O415   O     0.12706   0.77321   0.24999   0.00000  Uiso   1.00
O416   O     0.20625   0.77322   0.24999   0.00000  Uiso   1.00
O417   O     0.14640   0.83334   0.17451   0.00000  Uiso   1.00
O418   O     0.22559   0.83335   0.17451   0.00000  Uiso   1.00
O419   O     0.13534   0.91574   0.13892   0.00000  Uiso   1.00
S420   S     0.11998   0.88776   0.10190   0.00000  Uiso   1.00
C421   C     0.50000   0.91265   0.25006   0.00000  Uiso   1.00
C422   C     0.45968   0.83847   0.40702   0.00000  Uiso   1.00
C423   C     0.54230   0.97872   0.25103   0.00000  Uiso   1.00
C424   C     0.47425   0.83588   0.34993   0.00000  Uiso   1.00
C425   C     0.54232   0.68795   0.25096   0.00000  Uiso   1.00
C426   C     0.50003   0.70940   0.24986   0.00000  Uiso   1.00
C427   C     0.45775   0.68793   0.24873   0.00000  Uiso   1.00
C428   C     0.45774   0.97869   0.24879   0.00000  Uiso   1.00
C429   C     0.50001   0.95725   0.24998   0.00000  Uiso   1.00
C430   C     0.63535   0.86394   0.27430   0.00000  Uiso   1.00
C431   C     0.35153   0.86382   0.27453   0.00000  Uiso   1.00
C432   C     0.48027   0.84409   0.48912   0.00000  Uiso   1.00
C433   C     0.36471   0.80274   0.22562   0.00000  Uiso   1.00
C434   C     0.64847   0.80283   0.22548   0.00000  Uiso   1.00
C435   C     0.50001   0.75402   0.24993   0.00000  Uiso   1.00
C436   C     0.52569   0.83675   0.15040   0.00000  Uiso   1.00
C437   C     0.60164   0.85399   0.01241   0.00000  Uiso   1.00
C438   C     0.53953   0.84489   0.09449   0.00000  Uiso   1.00
C439   C     0.41292   0.82426   0.43429   0.00000  Uiso   1.00
C440   C     0.40053   0.81837   0.48750   0.00000  Uiso   1.00
C441   C     0.43421   0.82698   0.01444   0.00000  Uiso   1.00
C442   C     0.49323   0.85026   0.43485   0.00000  Uiso   1.00
C443   C     0.51550   0.85178   0.01591   0.00000  Uiso   1.00
C444   C     0.56500   0.85724   0.48748   0.00000  Uiso   1.00
C445   C     0.57648   0.86718   0.43516   0.00000  Uiso   1.00
C446   C     0.53994   0.86700   0.41034   0.00000  Uiso   1.00
C447   C     0.50326   0.85484   0.07007   0.00000  Uiso   1.00
C448   C     0.58896   0.84468   0.06510   0.00000  Uiso   1.00
Cu449  Cu    0.45311   0.83333   0.25000   0.00000  Uiso   1.00
Cu450  Cu    0.54689   0.83334   0.25000   0.00000  Uiso   1.00
H451   H     0.61774   0.83938   0.08324   0.00000  Uiso   1.00
H452   H     0.63982   0.85716   0.49084   0.00000  Uiso   1.00
H453   H     0.38670   0.81532   0.41408   0.00000  Uiso   1.00
H454   H     0.42466   0.81841   0.05475   0.00000  Uiso   1.00
H455   H     0.36537   0.80527   0.00767   0.00000  Uiso   1.00
H456   H     0.54944   0.87940   0.37177   0.00000  Uiso   1.00
H457   H     0.57534   0.96272   0.25197   0.00000  Uiso   1.00
H458   H     0.37881   0.88050   0.14985   0.00000  Uiso   1.00
H459   H     0.57537   0.70398   0.25183   0.00000  Uiso   1.00
H460   H     0.42472   0.70392   0.24778   0.00000  Uiso   1.00
H461   H     0.42471   0.96266   0.24787   0.00000  Uiso   1.00
H462   H     0.61165   0.88867   0.29344   0.00000  Uiso   1.00
H463   H     0.36484   0.88821   0.29430   0.00000  Uiso   1.00
H464   H     0.38872   0.77841   0.20570   0.00000  Uiso   1.00
H465   H     0.63521   0.77853   0.20554   0.00000  Uiso   1.00
H466   H     0.61340   0.87591   0.41373   0.00000  Uiso   1.00
N467   N     0.38265   0.83332   0.24999   0.00000  Uiso   1.00
N468   N     0.61735   0.83335   0.24999   0.00000  Uiso   1.00
O469   O     0.46042   0.89345   0.25001   0.00000  Uiso   1.00
O470   O     0.43867   0.91372   0.06267   0.00000  Uiso   1.00
O471   O     0.40477   0.85999   0.13496   0.00000  Uiso   1.00
O472   O     0.53961   0.89346   0.25001   0.00000  Uiso   1.00
O473   O     0.44108   0.83332   0.32549   0.00000  Uiso   1.00
O474   O     0.52027   0.83333   0.32549   0.00000  Uiso   1.00
O475   O     0.46039   0.77321   0.24999   0.00000  Uiso   1.00
O476   O     0.53958   0.77322   0.24999   0.00000  Uiso   1.00
O477   O     0.47973   0.83334   0.17451   0.00000  Uiso   1.00
O478   O     0.55892   0.83335   0.17451   0.00000  Uiso   1.00
O479   O     0.46867   0.91574   0.13892   0.00000  Uiso   1.00
S480   S     0.45331   0.88776   0.10190   0.00000  Uiso   1.00
C481   C     0.83333   0.91265   0.25006   0.00000  Uiso   1.00
C482   C     0.79302   0.83847   0.40702   0.00000  Uiso   1.00
C483   C     0.87564   0.97872   0.25103   0.00000  Uiso   1.00
C484   C     0.80758   0.83588   0.34993   0.00000  Uiso   1.00
C485   C     0.87565   0.68795   0.25096   0.00000  Uiso   1.00
C486   C     0.83336   0.70940   0.24986   0.00000  Uiso   1.00
C487   C     0.79109   0.68793   0.24873   0.00000  Uiso   1.00
C488   C     0.79108   0.97869   0.24879   0.00000  Uiso   1.00
C489   C     0.83334   0.95725   0.24998   0.00000  Uiso   1.00
C490   C     0.96868   0.86394   0.27430   0.00000  Uiso   1.00
C491   C     0.68487   0.86382   0.27453   0.00000  Uiso   1.00
C492   C     0.81360   0.84409   0.48912   0.00000  Uiso   1.00
C493   C     0.69804   0.80274   0.22562   0.00000  Uiso   1.00
C494   C     0.98180   0.80283   0.22548   0.00000  Uiso   1.00
C495   C     0.83334   0.75402   0.24993   0.00000  Uiso   1.00
C496   C     0.85903   0.83675   0.15040   0.00000  Uiso   1.00
C497   C     0.93497   0.85399   0.01241   0.00000  Uiso   1.00
C498   C     0.87287   0.84489   0.09449   0.00000  Uiso   1.00
C499   C     0.74625   0.82426   0.43429   0.00000  Uiso   1.00
C500   C     0.73387   0.81837   0.48750   0.00000  Uiso   1.00
C501   C     0.76755   0.82698   0.01444   0.00000  Uiso   1.00
C502   C     0.82657   0.85026   0.43485   0.00000  Uiso   1.00
C503   C     0.84884   0.85178   0.01591   0.00000  Uiso   1.00
C504   C     0.89833   0.85724   0.48748   0.00000  Uiso   1.00
C505   C     0.90982   0.86718   0.43516   0.00000  Uiso   1.00
C506   C     0.87328   0.86700   0.41034   0.00000  Uiso   1.00
C507   C     0.83660   0.85484   0.07007   0.00000  Uiso   1.00
C508   C     0.92230   0.84468   0.06510   0.00000  Uiso   1.00
Cu509  Cu    0.78645   0.83333   0.25000   0.00000  Uiso   1.00
Cu510  Cu    0.88022   0.83334   0.25000   0.00000  Uiso   1.00
H511   H     0.95107   0.83938   0.08324   0.00000  Uiso   1.00
H512   H     0.97315   0.85716   0.49084   0.00000  Uiso   1.00
H513   H     0.72003   0.81532   0.41408   0.00000  Uiso   1.00
H514   H     0.75800   0.81841   0.05475   0.00000  Uiso   1.00
H515   H     0.69871   0.80527   0.00767   0.00000  Uiso   1.00
H516   H     0.88277   0.87940   0.37177   0.00000  Uiso   1.00
H517   H     0.90867   0.96272   0.25197   0.00000  Uiso   1.00
H518   H     0.71215   0.88050   0.14985   0.00000  Uiso   1.00
H519   H     0.90870   0.70398   0.25183   0.00000  Uiso   1.00
H520   H     0.75805   0.70392   0.24778   0.00000  Uiso   1.00
H521   H     0.75804   0.96266   0.24787   0.00000  Uiso   1.00
H522   H     0.94499   0.88867   0.29344   0.00000  Uiso   1.00
H523   H     0.69817   0.88821   0.29430   0.00000  Uiso   1.00
H524   H     0.72206   0.77841   0.20570   0.00000  Uiso   1.00
H525   H     0.96854   0.77853   0.20554   0.00000  Uiso   1.00
H526   H     0.94673   0.87591   0.41373   0.00000  Uiso   1.00
N527   N     0.71598   0.83332   0.24999   0.00000  Uiso   1.00
N528   N     0.95069   0.83335   0.24999   0.00000  Uiso   1.00
O529   O     0.79375   0.89345   0.25001   0.00000  Uiso   1.00
O530   O     0.77200   0.91372   0.06267   0.00000  Uiso   1.00
O531   O     0.73811   0.85999   0.13496   0.00000  Uiso   1.00
O532   O     0.87294   0.89346   0.25001   0.00000  Uiso   1.00
O533   O     0.77441   0.83332   0.32549   0.00000  Uiso   1.00
O534   O     0.85360   0.83333   0.32549   0.00000  Uiso   1.00
O535   O     0.79373   0.77321   0.24999   0.00000  Uiso   1.00
O536   O     0.87292   0.77322   0.24999   0.00000  Uiso   1.00
O537   O     0.81306   0.83334   0.17451   0.00000  Uiso   1.00
O538   O     0.89225   0.83335   0.17451   0.00000  Uiso   1.00
O539   O     0.80201   0.91574   0.13892   0.00000  Uiso   1.00
S540   S     0.78664   0.88776   0.10190   0.00000  Uiso   1.00
C541   C     0.16666   0.24598   0.75006   0.00000  Uiso   1.00
C542   C     0.12635   0.17180   0.90702   0.00000  Uiso   1.00
C543   C     0.20897   0.31205   0.75103   0.00000  Uiso   1.00
C544   C     0.14092   0.16921   0.84993   0.00000  Uiso   1.00
C545   C     0.20898   0.02129   0.75096   0.00000  Uiso   1.00
C546   C     0.16669   0.04273   0.74986   0.00000  Uiso   1.00
C547   C     0.12442   0.02126   0.74873   0.00000  Uiso   1.00
C548   C     0.12441   0.31202   0.74879   0.00000  Uiso   1.00
C549   C     0.16668   0.29059   0.74998   0.00000  Uiso   1.00
C550   C     0.30202   0.19727   0.77430   0.00000  Uiso   1.00
C551   C     0.01820   0.19715   0.77453   0.00000  Uiso   1.00
C552   C     0.14694   0.17743   0.98912   0.00000  Uiso   1.00
C553   C     0.03137   0.13608   0.72562   0.00000  Uiso   1.00
C554   C     0.31514   0.13617   0.72548   0.00000  Uiso   1.00
C555   C     0.16667   0.08735   0.74993   0.00000  Uiso   1.00
C556   C     0.19236   0.17008   0.65040   0.00000  Uiso   1.00
C557   C     0.26831   0.18732   0.51241   0.00000  Uiso   1.00
C558   C     0.20620   0.17823   0.59449   0.00000  Uiso   1.00
C559   C     0.07958   0.15759   0.93429   0.00000  Uiso   1.00
C560   C     0.06720   0.15170   0.98750   0.00000  Uiso   1.00
C561   C     0.10088   0.16032   0.51444   0.00000  Uiso   1.00
C562   C     0.15990   0.18360   0.93485   0.00000  Uiso   1.00
C563   C     0.18217   0.18511   0.51591   0.00000  Uiso   1.00
C564   C     0.23166   0.19057   0.98748   0.00000  Uiso   1.00
C565   C     0.24315   0.20052   0.93516   0.00000  Uiso   1.00
C566   C     0.20661   0.20033   0.91034   0.00000  Uiso   1.00
C567   C     0.16993   0.18817   0.57007   0.00000  Uiso   1.00
C568   C     0.25563   0.17802   0.56510   0.00000  Uiso   1.00
Cu569  Cu    0.11978   0.16666   0.75000   0.00000  Uiso   1.00
Cu570  Cu    0.21355   0.16667   0.75000   0.00000  Uiso   1.00
H571   H     0.28441   0.17271   0.58324   0.00000  Uiso   1.00
H572   H     0.30648   0.19049   0.99084   0.00000  Uiso   1.00
H573   H     0.05336   0.14865   0.91408   0.00000  Uiso   1.00
H574   H     0.09133   0.15174   0.55475   0.00000  Uiso   1.00
H575   H     0.03204   0.13860   0.50767   0.00000  Uiso   1.00
H576   H     0.21611   0.21274   0.87177   0.00000  Uiso   1.00
H577   H     0.24201   0.29605   0.75197   0.00000  Uiso   1.00
H578   H     0.04548   0.21383   0.64985   0.00000  Uiso   1.00
H579   H     0.24204   0.03731   0.75183   0.00000  Uiso   1.00
H580   H     0.09138   0.03726   0.74778   0.00000  Uiso   1.00
H581   H     0.09137   0.29599   0.74787   0.00000  Uiso   1.00
H582   H     0.27832   0.22200   0.79344   0.00000  Uiso   1.00
H583   H     0.03151   0.22154   0.79430   0.00000  Uiso   1.00
H584   H     0.05539   0.11174   0.70570   0.00000  Uiso   1.00
H585   H     0.30187   0.11186   0.70554   0.00000  Uiso   1.00
H586   H     0.28007   0.20924   0.91373   0.00000  Uiso   1.00
N587   N     0.04931   0.16666   0.74999   0.00000  Uiso   1.00
N588   N     0.28402   0.16669   0.74999   0.00000  Uiso   1.00
O589   O     0.12708   0.22678   0.75001   0.00000  Uiso   1.00
O590   O     0.10533   0.24705   0.56267   0.00000  Uiso   1.00
O591   O     0.07144   0.19332   0.63496   0.00000  Uiso   1.00
O592   O     0.20627   0.22679   0.75001   0.00000  Uiso   1.00
O593   O     0.10775   0.16665   0.82549   0.00000  Uiso   1.00
O594   O     0.18694   0.16666   0.82549   0.00000  Uiso   1.00
O595   O     0.12706   0.10654   0.74999   0.00000  Uiso   1.00
O596   O     0.20625   0.10655   0.74999   0.00000  Uiso   1.00
O597   O     0.14640   0.16667   0.67451   0.00000  Uiso   1.00
O598   O     0.22559   0.16668   0.67451   0.00000  Uiso   1.00
O599   O     0.13534   0.24908   0.63892   0.00000  Uiso   1.00
S600   S     0.11998   0.22109   0.60190   0.00000  Uiso   1.00
C601   C     0.50000   0.24598   0.75006   0.00000  Uiso   1.00
C602   C     0.45968   0.17180   0.90702   0.00000  Uiso   1.00
C603   C     0.54230   0.31205   0.75103   0.00000  Uiso   1.00
C604   C     0.47425   0.16921   0.84993   0.00000  Uiso   1.00
C605   C     0.54232   0.02129   0.75096   0.00000  Uiso   1.00
C606   C     0.50003   0.04273   0.74986   0.00000  Uiso   1.00
C607   C     0.45775   0.02126   0.74873   0.00000  Uiso   1.00
C608   C     0.45774   0.31202   0.74879   0.00000  Uiso   1.00
C609   C     0.50001   0.29059   0.74998   0.00000  Uiso   1.00
C610   C     0.63535   0.19727   0.77430   0.00000  Uiso   1.00
C611   C     0.35153   0.19715   0.77453   0.00000  Uiso   1.00
C612   C     0.48027   0.17743   0.98912   0.00000  Uiso   1.00
C613   C     0.36471   0.13608   0.72562   0.00000  Uiso   1.00
C614   C     0.64847   0.13617   0.72548   0.00000  Uiso   1.00
C615   C     0.50001   0.08735   0.74993   0.00000  Uiso   1.00
C616   C     0.52569   0.17008   0.65040   0.00000  Uiso   1.00
C617   C     0.60164   0.18732   0.51241   0.00000  Uiso   1.00
C618   C     0.53953   0.17823   0.59449   0.00000  Uiso   1.00
C619   C     0.41292   0.15759   0.93429   0.00000  Uiso   1.00
C620   C     0.40053   0.15170   0.98750   0.00000  Uiso   1.00
C621   C     0.43421   0.16032   0.51444   0.00000  Uiso   1.00
C622   C     0.49323   0.18360   0.93485   0.00000  Uiso   1.00
C623   C     0.51550   0.18511   0.51591   0.00000  Uiso   1.00
C624   C     0.56500   0.19057   0.98748   0.00000  Uiso   1.00
C625   C     0.57648   0.20052   0.93516   0.00000  Uiso   1.00
C626   C     0.53994   0.20033   0.91034   0.00000  Uiso   1.00
C627   C     0.50326   0.18817   0.57007   0.00000  Uiso   1.00
C628   C     0.58896   0.17802   0.56510   0.00000  Uiso   1.00
Cu629  Cu    0.45311   0.16666   0.75000   0.00000  Uiso   1.00
Cu630  Cu    0.54689   0.16667   0.75000   0.00000  Uiso   1.00
H631   H     0.61774   0.17271   0.58324   0.00000  Uiso   1.00
H632   H     0.63982   0.19049   0.99084   0.00000  Uiso   1.00
H633   H     0.38670   0.14865   0.91408   0.00000  Uiso   1.00
H634   H     0.42466   0.15174   0.55475   0.00000  Uiso   1.00
H635   H     0.36537   0.13860   0.50767   0.00000  Uiso   1.00
H636   H     0.54944   0.21274   0.87177   0.00000  Uiso   1.00
H637   H     0.57534   0.29605   0.75197   0.00000  Uiso   1.00
H638   H     0.37881   0.21383   0.64985   0.00000  Uiso   1.00
H639   H     0.57537   0.03731   0.75183   0.00000  Uiso   1.00
H640   H     0.42472   0.03726   0.74778   0.00000  Uiso   1.00
H641   H     0.42471   0.29599   0.74787   0.00000  Uiso   1.00
H642   H     0.61165   0.22200   0.79344   0.00000  Uiso   1.00
H643   H     0.36484   0.22154   0.79430   0.00000  Uiso   1.00
H644   H     0.38872   0.11174   0.70570   0.00000  Uiso   1.00
H645   H     0.63521   0.11186   0.70554   0.00000  Uiso   1.00
H646   H     0.61340   0.20924   0.91373   0.00000  Uiso   1.00
N647   N     0.38265   0.16666   0.74999   0.00000  Uiso   1.00
N648   N     0.61735   0.16669   0.74999   0.00000  Uiso   1.00
O649   O     0.46042   0.22678   0.75001   0.00000  Uiso   1.00
O650   O     0.43867   0.24705   0.56267   0.00000  Uiso   1.00
O651   O     0.40477   0.19332   0.63496   0.00000  Uiso   1.00
O652   O     0.53961   0.22679   0.75001   0.00000  Uiso   1.00
O653   O     0.44108   0.16665   0.82549   0.00000  Uiso   1.00
O654   O     0.52027   0.16666   0.82549   0.00000  Uiso   1.00
O655   O     0.46039   0.10654   0.74999   0.00000  Uiso   1.00
O656   O     0.53958   0.10655   0.74999   0.00000  Uiso   1.00
O657   O     0.47973   0.16667   0.67451   0.00000  Uiso   1.00
O658   O     0.55892   0.16668   0.67451   0.00000  Uiso   1.00
O659   O     0.46867   0.24908   0.63892   0.00000  Uiso   1.00
S660   S     0.45331   0.22109   0.60190   0.00000  Uiso   1.00
C661   C     0.83333   0.24598   0.75006   0.00000  Uiso   1.00
C662   C     0.79302   0.17180   0.90702   0.00000  Uiso   1.00
C663   C     0.87564   0.31205   0.75103   0.00000  Uiso   1.00
C664   C     0.80758   0.16921   0.84993   0.00000  Uiso   1.00
C665   C     0.87565   0.02129   0.75096   0.00000  Uiso   1.00
C666   C     0.83336   0.04273   0.74986   0.00000  Uiso   1.00
C667   C     0.79109   0.02126   0.74873   0.00000  Uiso   1.00
C668   C     0.79108   0.31202   0.74879   0.00000  Uiso   1.00
C669   C     0.83334   0.29059   0.74998   0.00000  Uiso   1.00
C670   C     0.96868   0.19727   0.77430   0.00000  Uiso   1.00
C671   C     0.68487   0.19715   0.77453   0.00000  Uiso   1.00
C672   C     0.81360   0.17743   0.98912   0.00000  Uiso   1.00
C673   C     0.69804   0.13608   0.72562   0.00000  Uiso   1.00
C674   C     0.98180   0.13617   0.72548   0.00000  Uiso   1.00
C675   C     0.83334   0.08735   0.74993   0.00000  Uiso   1.00
C676   C     0.85903   0.17008   0.65040   0.00000  Uiso   1.00
C677   C     0.93497   0.18732   0.51241   0.00000  Uiso   1.00
C678   C     0.87287   0.17823   0.59449   0.00000  Uiso   1.00
C679   C     0.74625   0.15759   0.93429   0.00000  Uiso   1.00
C680   C     0.73387   0.15170   0.98750   0.00000  Uiso   1.00
C681   C     0.76755   0.16032   0.51444   0.00000  Uiso   1.00
C682   C     0.82657   0.18360   0.93485   0.00000  Uiso   1.00
C683   C     0.84884   0.18511   0.51591   0.00000  Uiso   1.00
C684   C     0.89833   0.19057   0.98748   0.00000  Uiso   1.00
C685   C     0.90982   0.20052   0.93516   0.00000  Uiso   1.00
C686   C     0.87328   0.20033   0.91034   0.00000  Uiso   1.00
C687   C     0.83660   0.18817   0.57007   0.00000  Uiso   1.00
C688   C     0.92230   0.17802   0.56510   0.00000  Uiso   1.00
Cu689  Cu    0.78645   0.16666   0.75000   0.00000  Uiso   1.00
Cu690  Cu    0.88022   0.16667   0.75000   0.00000  Uiso   1.00
H691   H     0.95107   0.17271   0.58324   0.00000  Uiso   1.00
H692   H     0.97315   0.19049   0.99084   0.00000  Uiso   1.00
H693   H     0.72003   0.14865   0.91408   0.00000  Uiso   1.00
H694   H     0.75800   0.15174   0.55475   0.00000  Uiso   1.00
H695   H     0.69871   0.13860   0.50767   0.00000  Uiso   1.00
H696   H     0.88277   0.21274   0.87177   0.00000  Uiso   1.00
H697   H     0.90867   0.29605   0.75197   0.00000  Uiso   1.00
H698   H     0.71215   0.21383   0.64985   0.00000  Uiso   1.00
H699   H     0.90870   0.03731   0.75183   0.00000  Uiso   1.00
H700   H     0.75805   0.03726   0.74778   0.00000  Uiso   1.00
H701   H     0.75804   0.29599   0.74787   0.00000  Uiso   1.00
H702   H     0.94499   0.22200   0.79344   0.00000  Uiso   1.00
H703   H     0.69817   0.22154   0.79430   0.00000  Uiso   1.00
H704   H     0.72206   0.11174   0.70570   0.00000  Uiso   1.00
H705   H     0.96854   0.11186   0.70554   0.00000  Uiso   1.00
H706   H     0.94673   0.20924   0.91373   0.00000  Uiso   1.00
N707   N     0.71598   0.16666   0.74999   0.00000  Uiso   1.00
N708   N     0.95069   0.16669   0.74999   0.00000  Uiso   1.00
O709   O     0.79375   0.22678   0.75001   0.00000  Uiso   1.00
O710   O     0.77200   0.24705   0.56267   0.00000  Uiso   1.00
O711   O     0.73811   0.19332   0.63496   0.00000  Uiso   1.00
O712   O     0.87294   0.22679   0.75001   0.00000  Uiso   1.00
O713   O     0.77441   0.16665   0.82549   0.00000  Uiso   1.00
O714   O     0.85360   0.16666   0.82549   0.00000  Uiso   1.00
O715   O     0.79373   0.10654   0.74999   0.00000  Uiso   1.00
O716   O     0.87292   0.10655   0.74999   0.00000  Uiso   1.00
O717   O     0.81306   0.16667   0.67451   0.00000  Uiso   1.00
O718   O     0.89225   0.16668   0.67451   0.00000  Uiso   1.00
O719   O     0.80201   0.24908   0.63892   0.00000  Uiso   1.00
S720   S     0.78664   0.22109   0.60190   0.00000  Uiso   1.00
C721   C     0.16666   0.57932   0.75006   0.00000  Uiso   1.00
C722   C     0.12635   0.50514   0.90702   0.00000  Uiso   1.00
C723   C     0.20897   0.64539   0.75103   0.00000  Uiso   1.00
C724   C     0.14092   0.50254   0.84993   0.00000  Uiso   1.00
C725   C     0.20898   0.35462   0.75096   0.00000  Uiso   1.00
C726   C     0.16669   0.37606   0.74986   0.00000  Uiso   1.00
C727   C     0.12442   0.35459   0.74873   0.00000  Uiso   1.00
C728   C     0.12441   0.64536   0.74879   0.00000  Uiso   1.00
C729   C     0.16668   0.62392   0.74998   0.00000  Uiso   1.00
C730   C     0.30202   0.53061   0.77430   0.00000  Uiso   1.00
C731   C     0.01820   0.53048   0.77453   0.00000  Uiso   1.00
C732   C     0.14694   0.51076   0.98912   0.00000  Uiso   1.00
C733   C     0.03137   0.46941   0.72562   0.00000  Uiso   1.00
C734   C     0.31514   0.46950   0.72548   0.00000  Uiso   1.00
C735   C     0.16667   0.42068   0.74993   0.00000  Uiso   1.00
C736   C     0.19236   0.50342   0.65040   0.00000  Uiso   1.00
C737   C     0.26831   0.52066   0.51241   0.00000  Uiso   1.00
C738   C     0.20620   0.51156   0.59449   0.00000  Uiso   1.00
C739   C     0.07958   0.49093   0.93429   0.00000  Uiso   1.00
C740   C     0.06720   0.48503   0.98750   0.00000  Uiso   1.00
C741   C     0.10088   0.49365   0.51444   0.00000  Uiso   1.00
C742   C     0.15990   0.51693   0.93485   0.00000  Uiso   1.00
C743   C     0.18217   0.51844   0.51591   0.00000  Uiso   1.00
C744   C     0.23166   0.52391   0.98748   0.00000  Uiso   1.00
C745   C     0.24315   0.53385   0.93516   0.00000  Uiso   1.00
C746   C     0.20661   0.53367   0.91034   0.00000  Uiso   1.00
C747   C     0.16993   0.52151   0.57007   0.00000  Uiso   1.00
C748   C     0.25563   0.51135   0.56510   0.00000  Uiso   1.00
Cu749  Cu    0.11978   0.49999   0.75000   0.00000  Uiso   1.00
Cu750  Cu    0.21355   0.50001   0.75000   0.00000  Uiso   1.00
H751   H     0.28441   0.50605   0.58324   0.00000  Uiso   1.00
H752   H     0.30648   0.52383   0.99084   0.00000  Uiso   1.00
H753   H     0.05336   0.48198   0.91408   0.00000  Uiso   1.00
H754   H     0.09133   0.48507   0.55475   0.00000  Uiso   1.00
H755   H     0.03204   0.47193   0.50767   0.00000  Uiso   1.00
H756   H     0.21611   0.54607   0.87177   0.00000  Uiso   1.00
H757   H     0.24201   0.62938   0.75197   0.00000  Uiso   1.00
H758   H     0.04548   0.54716   0.64985   0.00000  Uiso   1.00
H759   H     0.24204   0.37064   0.75183   0.00000  Uiso   1.00
H760   H     0.09138   0.37059   0.74778   0.00000  Uiso   1.00
H761   H     0.09137   0.62933   0.74787   0.00000  Uiso   1.00
H762   H     0.27832   0.55534   0.79344   0.00000  Uiso   1.00
H763   H     0.03151   0.55488   0.79430   0.00000  Uiso   1.00
H764   H     0.05539   0.44508   0.70570   0.00000  Uiso   1.00
H765   H     0.30187   0.44519   0.70554   0.00000  Uiso   1.00
H766   H     0.28007   0.54257   0.91373   0.00000  Uiso   1.00
N767   N     0.04931   0.49999   0.74999   0.00000  Uiso   1.00
N768   N     0.28402   0.50002   0.74999   0.00000  Uiso   1.00
O769   O     0.12708   0.56011   0.75001   0.00000  Uiso   1.00
O770   O     0.10533   0.58038   0.56267   0.00000  Uiso   1.00
O771   O     0.07144   0.52666   0.63496   0.00000  Uiso   1.00
O772   O     0.20627   0.56012   0.75001   0.00000  Uiso   1.00
O773   O     0.10775   0.49998   0.82549   0.00000  Uiso   1.00
O774   O     0.18694   0.49999   0.82549   0.00000  Uiso   1.00
O775   O     0.12706   0.43988   0.74999   0.00000  Uiso   1.00
O776   O     0.20625   0.43989   0.74999   0.00000  Uiso   1.00
O777   O     0.14640   0.50001   0.67451   0.00000  Uiso   1.00
O778   O     0.22559   0.50002   0.67451   0.00000  Uiso   1.00
O779   O     0.13534   0.58241   0.63892   0.00000  Uiso   1.00
S780   S     0.11998   0.55443   0.60190   0.00000  Uiso   1.00
C781   C     0.50000   0.57932   0.75006   0.00000  Uiso   1.00
C782   C     0.45968   0.50514   0.90702   0.00000  Uiso   1.00
C783   C     0.54230   0.64539   0.75103   0.00000  Uiso   1.00
C784   C     0.47425   0.50254   0.84993   0.00000  Uiso   1.00
C785   C     0.54232   0.35462   0.75096   0.00000  Uiso   1.00
C786   C     0.50003   0.37606   0.74986   0.00000  Uiso   1.00
C787   C     0.45775   0.35459   0.74873   0.00000  Uiso   1.00
C788   C     0.45774   0.64536   0.74879   0.00000  Uiso   1.00
C789   C     0.50001   0.62392   0.74998   0.00000  Uiso   1.00
C790   C     0.63535   0.53061   0.77430   0.00000  Uiso   1.00
C791   C     0.35153   0.53048   0.77453   0.00000  Uiso   1.00
C792   C     0.48027   0.51076   0.98912   0.00000  Uiso   1.00
C793   C     0.36471   0.46941   0.72562   0.00000  Uiso   1.00
C794   C     0.64847   0.46950   0.72548   0.00000  Uiso   1.00
C795   C     0.50001   0.42068   0.74993   0.00000  Uiso   1.00
C796   C     0.52569   0.50342   0.65040   0.00000  Uiso   1.00
C797   C     0.60164   0.52066   0.51241   0.00000  Uiso   1.00
C798   C     0.53953   0.51156   0.59449   0.00000  Uiso   1.00
C799   C     0.41292   0.49093   0.93429   0.00000  Uiso   1.00
C800   C     0.40053   0.48503   0.98750   0.00000  Uiso   1.00
C801   C     0.43421   0.49365   0.51444   0.00000  Uiso   1.00
C802   C     0.49323   0.51693   0.93485   0.00000  Uiso   1.00
C803   C     0.51550   0.51844   0.51591   0.00000  Uiso   1.00
C804   C     0.56500   0.52391   0.98748   0.00000  Uiso   1.00
C805   C     0.57648   0.53385   0.93516   0.00000  Uiso   1.00
C806   C     0.53994   0.53367   0.91034   0.00000  Uiso   1.00
C807   C     0.50326   0.52151   0.57007   0.00000  Uiso   1.00
C808   C     0.58896   0.51135   0.56510   0.00000  Uiso   1.00
Cu809  Cu    0.45311   0.49999   0.75000   0.00000  Uiso   1.00
Cu810  Cu    0.54689   0.50001   0.75000   0.00000  Uiso   1.00
H811   H     0.61774   0.50605   0.58324   0.00000  Uiso   1.00
H812   H     0.63982   0.52383   0.99084   0.00000  Uiso   1.00
H813   H     0.38670   0.48198   0.91408   0.00000  Uiso   1.00
H814   H     0.42466   0.48507   0.55475   0.00000  Uiso   1.00
H815   H     0.36537   0.47193   0.50767   0.00000  Uiso   1.00
H816   H     0.54944   0.54607   0.87177   0.00000  Uiso   1.00
H817   H     0.57534   0.62938   0.75197   0.00000  Uiso   1.00
H818   H     0.37881   0.54716   0.64985   0.00000  Uiso   1.00
H819   H     0.57537   0.37064   0.75183   0.00000  Uiso   1.00
H820   H     0.42472   0.37059   0.74778   0.00000  Uiso   1.00
H821   H     0.42471   0.62933   0.74787   0.00000  Uiso   1.00
H822   H     0.61165   0.55534   0.79344   0.00000  Uiso   1.00
H823   H     0.36484   0.55488   0.79430   0.00000  Uiso   1.00
H824   H     0.38872   0.44508   0.70570   0.00000  Uiso   1.00
H825   H     0.63521   0.44519   0.70554   0.00000  Uiso   1.00
H826   H     0.61340   0.54257   0.91373   0.00000  Uiso   1.00
N827   N     0.38265   0.49999   0.74999   0.00000  Uiso   1.00
N828   N     0.61735   0.50002   0.74999   0.00000  Uiso   1.00
O829   O     0.46042   0.56011   0.75001   0.00000  Uiso   1.00
O830   O     0.43867   0.58038   0.56267   0.00000  Uiso   1.00
O831   O     0.40477   0.52666   0.63496   0.00000  Uiso   1.00
O832   O     0.53961   0.56012   0.75001   0.00000  Uiso   1.00
O833   O     0.44108   0.49998   0.82549   0.00000  Uiso   1.00
O834   O     0.52027   0.49999   0.82549   0.00000  Uiso   1.00
O835   O     0.46039   0.43988   0.74999   0.00000  Uiso   1.00
O836   O     0.53958   0.43989   0.74999   0.00000  Uiso   1.00
O837   O     0.47973   0.50001   0.67451   0.00000  Uiso   1.00
O838   O     0.55892   0.50002   0.67451   0.00000  Uiso   1.00
O839   O     0.46867   0.58241   0.63892   0.00000  Uiso   1.00
S840   S     0.45331   0.55443   0.60190   0.00000  Uiso   1.00
C841   C     0.83333   0.57932   0.75006   0.00000  Uiso   1.00
C842   C     0.79302   0.50514   0.90702   0.00000  Uiso   1.00
C843   C     0.87564   0.64539   0.75103   0.00000  Uiso   1.00
C844   C     0.80758   0.50254   0.84993   0.00000  Uiso   1.00
C845   C     0.87565   0.35462   0.75096   0.00000  Uiso   1.00
C846   C     0.83336   0.37606   0.74986   0.00000  Uiso   1.00
C847   C     0.79109   0.35459   0.74873   0.00000  Uiso   1.00
C848   C     0.79108   0.64536   0.74879   0.00000  Uiso   1.00
C849   C     0.83334   0.62392   0.74998   0.00000  Uiso   1.00
C850   C     0.96868   0.53061   0.77430   0.00000  Uiso   1.00
C851   C     0.68487   0.53048   0.77453   0.00000  Uiso   1.00
C852   C     0.81360   0.51076   0.98912   0.00000  Uiso   1.00
C853   C     0.69804   0.46941   0.72562   0.00000  Uiso   1.00
C854   C     0.98180   0.46950   0.72548   0.00000  Uiso   1.00
C855   C     0.83334   0.42068   0.74993   0.00000  Uiso   1.00
C856   C     0.85903   0.50342   0.65040   0.00000  Uiso   1.00
C857   C     0.93497   0.52066   0.51241   0.00000  Uiso   1.00
C858   C     0.87287   0.51156   0.59449   0.00000  Uiso   1.00
C859   C     0.74625   0.49093   0.93429   0.00000  Uiso   1.00
C860   C     0.73387   0.48503   0.98750   0.00000  Uiso   1.00
C861   C     0.76755   0.49365   0.51444   0.00000  Uiso   1.00
C862   C     0.82657   0.51693   0.93485   0.00000  Uiso   1.00
C863   C     0.84884   0.51844   0.51591   0.00000  Uiso   1.00
C864   C     0.89833   0.52391   0.98748   0.00000  Uiso   1.00
C865   C     0.90982   0.53385   0.93516   0.00000  Uiso   1.00
C866   C     0.87328   0.53367   0.91034   0.00000  Uiso   1.00
C867   C     0.83660   0.52151   0.57007   0.00000  Uiso   1.00
C868   C     0.92230   0.51135   0.56510   0.00000  Uiso   1.00
Cu869  Cu    0.78645   0.49999   0.75000   0.00000  Uiso   1.00
Cu870  Cu    0.88022   0.50001   0.75000   0.00000  Uiso   1.00
H871   H     0.95107   0.50605   0.58324   0.00000  Uiso   1.00
H872   H     0.97315   0.52383   0.99084   0.00000  Uiso   1.00
H873   H     0.72003   0.48198   0.91408   0.00000  Uiso   1.00
H874   H     0.75800   0.48507   0.55475   0.00000  Uiso   1.00
H875   H     0.69871   0.47193   0.50767   0.00000  Uiso   1.00
H876   H     0.88277   0.54607   0.87177   0.00000  Uiso   1.00
H877   H     0.90867   0.62938   0.75197   0.00000  Uiso   1.00
H878   H     0.71215   0.54716   0.64985   0.00000  Uiso   1.00
H879   H     0.90870   0.37064   0.75183   0.00000  Uiso   1.00
H880   H     0.75805   0.37059   0.74778   0.00000  Uiso   1.00
H881   H     0.75804   0.62933   0.74787   0.00000  Uiso   1.00
H882   H     0.94499   0.55534   0.79344   0.00000  Uiso   1.00
H883   H     0.69817   0.55488   0.79430   0.00000  Uiso   1.00
H884   H     0.72206   0.44508   0.70570   0.00000  Uiso   1.00
H885   H     0.96854   0.44519   0.70554   0.00000  Uiso   1.00
H886   H     0.94673   0.54257   0.91373   0.00000  Uiso   1.00
N887   N     0.71598   0.49999   0.74999   0.00000  Uiso   1.00
N888   N     0.95069   0.50002   0.74999   0.00000  Uiso   1.00
O889   O     0.79375   0.56011   0.75001   0.00000  Uiso   1.00
O890   O     0.77200   0.58038   0.56267   0.00000  Uiso   1.00
O891   O     0.73811   0.52666   0.63496   0.00000  Uiso   1.00
O892   O     0.87294   0.56012   0.75001   0.00000  Uiso   1.00
O893   O     0.77441   0.49998   0.82549   0.00000  Uiso   1.00
O894   O     0.85360   0.49999   0.82549   0.00000  Uiso   1.00
O895   O     0.79373   0.43988   0.74999   0.00000  Uiso   1.00
O896   O     0.87292   0.43989   0.74999   0.00000  Uiso   1.00
O897   O     0.81306   0.50001   0.67451   0.00000  Uiso   1.00
O898   O     0.89225   0.50002   0.67451   0.00000  Uiso   1.00
O899   O     0.80201   0.58241   0.63892   0.00000  Uiso   1.00
S900   S     0.78664   0.55443   0.60190   0.00000  Uiso   1.00
C901   C     0.16666   0.91265   0.75006   0.00000  Uiso   1.00
C902   C     0.12635   0.83847   0.90702   0.00000  Uiso   1.00
C903   C     0.20897   0.97872   0.75103   0.00000  Uiso   1.00
C904   C     0.14092   0.83588   0.84993   0.00000  Uiso   1.00
C905   C     0.20898   0.68795   0.75096   0.00000  Uiso   1.00
C906   C     0.16669   0.70940   0.74986   0.00000  Uiso   1.00
C907   C     0.12442   0.68793   0.74873   0.00000  Uiso   1.00
C908   C     0.12441   0.97869   0.74879   0.00000  Uiso   1.00
C909   C     0.16668   0.95725   0.74998   0.00000  Uiso   1.00
C910   C     0.30202   0.86394   0.77430   0.00000  Uiso   1.00
C911   C     0.01820   0.86382   0.77453   0.00000  Uiso   1.00
C912   C     0.14694   0.84409   0.98912   0.00000  Uiso   1.00
C913   C     0.03137   0.80274   0.72562   0.00000  Uiso   1.00
C914   C     0.31514   0.80283   0.72548   0.00000  Uiso   1.00
C915   C     0.16667   0.75402   0.74993   0.00000  Uiso   1.00
C916   C     0.19236   0.83675   0.65040   0.00000  Uiso   1.00
C917   C     0.26831   0.85399   0.51241   0.00000  Uiso   1.00
C918   C     0.20620   0.84489   0.59449   0.00000  Uiso   1.00
C919   C     0.07958   0.82426   0.93429   0.00000  Uiso   1.00
C920   C     0.06720   0.81837   0.98750   0.00000  Uiso   1.00
C921   C     0.10088   0.82698   0.51444   0.00000  Uiso   1.00
C922   C     0.15990   0.85026   0.93485   0.00000  Uiso   1.00
C923   C     0.18217   0.85178   0.51591   0.00000  Uiso   1.00
C924   C     0.23166   0.85724   0.98748   0.00000  Uiso   1.00
C925   C     0.24315   0.86718   0.93516   0.00000  Uiso   1.00
C926   C     0.20661   0.86700   0.91034   0.00000  Uiso   1.00
C927   C     0.16993   0.85484   0.57007   0.00000  Uiso   1.00
C928   C     0.25563   0.84468   0.56510   0.00000  Uiso   1.00
Cu929  Cu    0.11978   0.83333   0.75000   0.00000  Uiso   1.00
Cu930  Cu    0.21355   0.83334   0.75000   0.00000  Uiso   1.00
H931   H     0.28441   0.83938   0.58324   0.00000  Uiso   1.00
H932   H     0.30648   0.85716   0.99084   0.00000  Uiso   1.00
H933   H     0.05336   0.81532   0.91408   0.00000  Uiso   1.00
H934   H     0.09133   0.81841   0.55475   0.00000  Uiso   1.00
H935   H     0.03204   0.80527   0.50767   0.00000  Uiso   1.00
H936   H     0.21611   0.87940   0.87177   0.00000  Uiso   1.00
H937   H     0.24201   0.96272   0.75197   0.00000  Uiso   1.00
H938   H     0.04548   0.88050   0.64985   0.00000  Uiso   1.00
H939   H     0.24204   0.70398   0.75183   0.00000  Uiso   1.00
H940   H     0.09138   0.70392   0.74778   0.00000  Uiso   1.00
H941   H     0.09137   0.96266   0.74787   0.00000  Uiso   1.00
H942   H     0.27832   0.88867   0.79344   0.00000  Uiso   1.00
H943   H     0.03151   0.88821   0.79430   0.00000  Uiso   1.00
H944   H     0.05539   0.77841   0.70570   0.00000  Uiso   1.00
H945   H     0.30187   0.77853   0.70554   0.00000  Uiso   1.00
H946   H     0.28007   0.87591   0.91373   0.00000  Uiso   1.00
N947   N     0.04931   0.83332   0.74999   0.00000  Uiso   1.00
N948   N     0.28402   0.83335   0.74999   0.00000  Uiso   1.00
O949   O     0.12708   0.89345   0.75001   0.00000  Uiso   1.00
O950   O     0.10533   0.91372   0.56267   0.00000  Uiso   1.00
O951   O     0.07144   0.85999   0.63496   0.00000  Uiso   1.00
O952   O     0.20627   0.89346   0.75001   0.00000  Uiso   1.00
O953   O     0.10775   0.83332   0.82549   0.00000  Uiso   1.00
O954   O     0.18694   0.83333   0.82549   0.00000  Uiso   1.00
O955   O     0.12706   0.77321   0.74999   0.00000  Uiso   1.00
O956   O     0.20625   0.77322   0.74999   0.00000  Uiso   1.00
O957   O     0.14640   0.83334   0.67451   0.00000  Uiso   1.00
O958   O     0.22559   0.83335   0.67451   0.00000  Uiso   1.00
O959   O     0.13534   0.91574   0.63892   0.00000  Uiso   1.00
S960   S     0.11998   0.88776   0.60190   0.00000  Uiso   1.00
C961   C     0.50000   0.91265   0.75006   0.00000  Uiso   1.00
C962   C     0.45968   0.83847   0.90702   0.00000  Uiso   1.00
C963   C     0.54230   0.97872   0.75103   0.00000  Uiso   1.00
C964   C     0.47425   0.83588   0.84993   0.00000  Uiso   1.00
C965   C     0.54232   0.68795   0.75096   0.00000  Uiso   1.00
C966   C     0.50003   0.70940   0.74986   0.00000  Uiso   1.00
C967   C     0.45775   0.68793   0.74873   0.00000  Uiso   1.00
C968   C     0.45774   0.97869   0.74879   0.00000  Uiso   1.00
C969   C     0.50001   0.95725   0.74998   0.00000  Uiso   1.00
C970   C     0.63535   0.86394   0.77430   0.00000  Uiso   1.00
C971   C     0.35153   0.86382   0.77453   0.00000  Uiso   1.00
C972   C     0.48027   0.84409   0.98912   0.00000  Uiso   1.00
C973   C     0.36471   0.80274   0.72562   0.00000  Uiso   1.00
C974   C     0.64847   0.80283   0.72548   0.00000  Uiso   1.00
C975   C     0.50001   0.75402   0.74993   0.00000  Uiso   1.00
C976   C     0.52569   0.83675   0.65040   0.00000  Uiso   1.00
C977   C     0.60164   0.85399   0.51241   0.00000  Uiso   1.00
C978   C     0.53953   0.84489   0.59449   0.00000  Uiso   1.00
C979   C     0.41292   0.82426   0.93429   0.00000  Uiso   1.00
C980   C     0.40053   0.81837   0.98750   0.00000  Uiso   1.00
C981   C     0.43421   0.82698   0.51444   0.00000  Uiso   1.00
C982   C     0.49323   0.85026   0.93485   0.00000  Uiso   1.00
C983   C     0.51550   0.85178   0.51591   0.00000  Uiso   1.00
C984   C     0.56500   0.85724   0.98748   0.00000  Uiso   1.00
C985   C     0.57648   0.86718   0.93516   0.00000  Uiso   1.00
C986   C     0.53994   0.86700   0.91034   0.00000  Uiso   1.00
C987   C     0.50326   0.85484   0.57007   0.00000  Uiso   1.00
C988   C     0.58896   0.84468   0.56510   0.00000  Uiso   1.00
Cu989  Cu    0.45311   0.83333   0.75000   0.00000  Uiso   1.00
Cu990  Cu    0.54689   0.83334   0.75000   0.00000  Uiso   1.00
H991   H     0.61774   0.83938   0.58324   0.00000  Uiso   1.00
H992   H     0.63982   0.85716   0.99084   0.00000  Uiso   1.00
H993   H     0.38670   0.81532   0.91408   0.00000  Uiso   1.00
H994   H     0.42466   0.81841   0.55475   0.00000  Uiso   1.00
H995   H     0.36537   0.80527   0.50767   0.00000  Uiso   1.00
H996   H     0.54944   0.87940   0.87177   0.00000  Uiso   1.00
H997   H     0.57534   0.96272   0.75197   0.00000  Uiso   1.00
H998   H     0.37881   0.88050   0.64985   0.00000  Uiso   1.00
H999   H     0.57537   0.70398   0.75183   0.00000  Uiso   1.00
H1000  H     0.42472   0.70392   0.74778   0.00000  Uiso   1.00
H1001  H     0.42471   0.96266   0.74787   0.00000  Uiso   1.00
H1002  H     0.61165   0.88867   0.79344   0.00000  Uiso   1.00
H1003  H     0.36484   0.88821   0.79430   0.00000  Uiso   1.00
H1004  H     0.38872   0.77841   0.70570   0.00000  Uiso   1.00
H1005  H     0.63521   0.77853   0.70554   0.00000  Uiso   1.00
H1006  H     0.61340   0.87591   0.91373   0.00000  Uiso   1.00
N1007  N     0.38265   0.83332   0.74999   0.00000  Uiso   1.00
N1008  N     0.61735   0.83335   0.74999   0.00000  Uiso   1.00
O1009  O     0.46042   0.89345   0.75001   0.00000  Uiso   1.00
O1010  O     0.43867   0.91372   0.56267   0.00000  Uiso   1.00
O1011  O     0.40477   0.85999   0.63496   0.00000  Uiso   1.00
O1012  O     0.53961   0.89346   0.75001   0.00000  Uiso   1.00
O1013  O     0.44108   0.83332   0.82549   0.00000  Uiso   1.00
O1014  O     0.52027   0.83333   0.82549   0.00000  Uiso   1.00
O1015  O     0.46039   0.77321   0.74999   0.00000  Uiso   1.00
O1016  O     0.53958   0.77322   0.74999   0.00000  Uiso   1.00
O1017  O     0.47973   0.83334   0.67451   0.00000  Uiso   1.00
O1018  O     0.55892   0.83335   0.67451   0.00000  Uiso   1.00
O1019  O     0.46867   0.91574   0.63892   0.00000  Uiso   1.00
S1020  S     0.45331   0.88776   0.60190   0.00000  Uiso   1.00
C1021  C     0.83333   0.91265   0.75006   0.00000  Uiso   1.00
C1022  C     0.79302   0.83847   0.90702   0.00000  Uiso   1.00
C1023  C     0.87564   0.97872   0.75103   0.00000  Uiso   1.00
C1024  C     0.80758   0.83588   0.84993   0.00000  Uiso   1.00
C1025  C     0.87565   0.68795   0.75096   0.00000  Uiso   1.00
C1026  C     0.83336   0.70940   0.74986   0.00000  Uiso   1.00
C1027  C     0.79109   0.68793   0.74873   0.00000  Uiso   1.00
C1028  C     0.79108   0.97869   0.74879   0.00000  Uiso   1.00
C1029  C     0.83334   0.95725   0.74998   0.00000  Uiso   1.00
C1030  C     0.96868   0.86394   0.77430   0.00000  Uiso   1.00
C1031  C     0.68487   0.86382   0.77453   0.00000  Uiso   1.00
C1032  C     0.81360   0.84409   0.98912   0.00000  Uiso   1.00
C1033  C     0.69804   0.80274   0.72562   0.00000  Uiso   1.00
C1034  C     0.98180   0.80283   0.72548   0.00000  Uiso   1.00
C1035  C     0.83334   0.75402   0.74993   0.00000  Uiso   1.00
C1036  C     0.85903   0.83675   0.65040   0.00000  Uiso   1.00
C1037  C     0.93497   0.85399   0.51241   0.00000  Uiso   1.00
C1038  C     0.87287   0.84489   0.59449   0.00000  Uiso   1.00
C1039  C     0.74625   0.82426   0.93429   0.00000  Uiso   1.00
C1040  C     0.73387   0.81837   0.98750   0.00000  Uiso   1.00
C1041  C     0.76755   0.82698   0.51444   0.00000  Uiso   1.00
C1042  C     0.82657   0.85026   0.93485   0.00000  Uiso   1.00
C1043  C     0.84884   0.85178   0.51591   0.00000  Uiso   1.00
C1044  C     0.89833   0.85724   0.98748   0.00000  Uiso   1.00
C1045  C     0.90982   0.86718   0.93516   0.00000  Uiso   1.00
C1046  C     0.87328   0.86700   0.91034   0.00000  Uiso   1.00
C1047  C     0.83660   0.85484   0.57007   0.00000  Uiso   1.00
C1048  C     0.92230   0.84468   0.56510   0.00000  Uiso   1.00
Cu1049 Cu    0.78645   0.83333   0.75000   0.00000  Uiso   1.00
Cu1050 Cu    0.88022   0.83334   0.75000   0.00000  Uiso   1.00
H1051  H     0.95107   0.83938   0.58324   0.00000  Uiso   1.00
H1052  H     0.97315   0.85716   0.99084   0.00000  Uiso   1.00
H1053  H     0.72003   0.81532   0.91408   0.00000  Uiso   1.00
H1054  H     0.75800   0.81841   0.55475   0.00000  Uiso   1.00
H1055  H     0.69871   0.80527   0.50767   0.00000  Uiso   1.00
H1056  H     0.88277   0.87940   0.87177   0.00000  Uiso   1.00
H1057  H     0.90867   0.96272   0.75197   0.00000  Uiso   1.00
H1058  H     0.71215   0.88050   0.64985   0.00000  Uiso   1.00
H1059  H     0.90870   0.70398   0.75183   0.00000  Uiso   1.00
H1060  H     0.75805   0.70392   0.74778   0.00000  Uiso   1.00
H1061  H     0.75804   0.96266   0.74787   0.00000  Uiso   1.00
H1062  H     0.94499   0.88867   0.79344   0.00000  Uiso   1.00
H1063  H     0.69817   0.88821   0.79430   0.00000  Uiso   1.00
H1064  H     0.72206   0.77841   0.70570   0.00000  Uiso   1.00
H1065  H     0.96854   0.77853   0.70554   0.00000  Uiso   1.00
H1066  H     0.94673   0.87591   0.91373   0.00000  Uiso   1.00
N1067  N     0.71598   0.83332   0.74999   0.00000  Uiso   1.00
N1068  N     0.95069   0.83335   0.74999   0.00000  Uiso   1.00
O1069  O     0.79375   0.89345   0.75001   0.00000  Uiso   1.00
O1070  O     0.77200   0.91372   0.56267   0.00000  Uiso   1.00
O1071  O     0.73811   0.85999   0.63496   0.00000  Uiso   1.00
O1072  O     0.87294   0.89346   0.75001   0.00000  Uiso   1.00
O1073  O     0.77441   0.83332   0.82549   0.00000  Uiso   1.00
O1074  O     0.85360   0.83333   0.82549   0.00000  Uiso   1.00
O1075  O     0.79373   0.77321   0.74999   0.00000  Uiso   1.00
O1076  O     0.87292   0.77322   0.74999   0.00000  Uiso   1.00
O1077  O     0.81306   0.83334   0.67451   0.00000  Uiso   1.00
O1078  O     0.89225   0.83335   0.67451   0.00000  Uiso   1.00
O1079  O     0.80201   0.91574   0.63892   0.00000  Uiso   1.00
S1080  S     0.78664   0.88776   0.60190   0.00000  Uiso   1.00
loop_
_geom_bond_atom_site_label_1
_geom_bond_atom_site_label_2
_geom_bond_distance
_geom_bond_site_symmetry_2
_ccdc_geom_bond_type
C1     C9      1.450   .     S
C1     O52     1.291   .     A
C1     O49     1.291   .     A
C2     C22     1.427   .     A
C2     C4      1.476   .     S
C2     C19     1.405   .     A
C3     C9      1.401   .     A
C3     H37     1.083   .     S
C3     C185    1.383   .     S
C4     O53     1.301   .     A
C4     O54     1.292   .     A
C5     H39     1.083   .     S
C5     C6      1.401   .     A
C5     C363    1.383   1_545 S
C6     C7      1.401   .     A
C6     C15     1.450   .     S
C7     H40     1.083   .     S
C7     C368    1.383   1_545 S
C8     H41     1.083   .     S
C8     C9      1.401   .     A
C8     C187    1.383   .     S
C10    H42     1.080   .     S
C10    N48     1.367   .     A
C10    C71     1.415   .     S
C11    H43     1.081   .     S
C11    N47     1.366   .     A
C11    C130    1.415   1_455 S
C12    C22     1.416   .     A
C12    C561    1.410   .     S
C12    C563    1.417   .     S
C13    H44     1.081   .     S
C13    N47     1.367   .     A
C13    C134    1.415   1_455 S
C14    H45     1.081   .     S
C14    N48     1.367   .     A
C14    C73     1.415   .     S
C15    O56     1.291   .     A
C15    O55     1.291   .     A
C16    O58     1.299   .     A
C16    O57     1.291   .     A
C16    C18     1.468   .     S
C17    C28     1.395   .     A
C17    C564    1.400   1_554 S
C17    H572    1.083   1_554 S
C18    C28     1.405   .     A
C18    C27     1.414   .     A
C19    C20     1.388   .     A
C19    H33     1.083   .     S
C20    C561    1.388   .     S
C20    H575    1.082   .     S
C21    H34     1.079   .     S
C21    C560    1.388   1_554 S
C21    C552    1.410   1_554 S
C22    C26     1.416   .     A
C23    C27     1.403   .     A
C23    C552    1.417   1_554 S
C23    C564    1.412   1_554 S
C24    C25     1.391   .     A
C24    C557    1.400   .     S
C24    C563    1.412   .     S
C25    H46     1.084   .     S
C25    C26     1.391   .     A
C26    H36     1.076   .     S
C27    S60     1.790   .     S
C28    H31     1.083   .     S
Cu29   O49     1.965   .     S
Cu29   Cu30    2.676   .     S
Cu29   O53     1.963   .     S
Cu29   N47     2.011   .     S
Cu29   O57     1.956   .     S
Cu29   O55     1.965   .     S
Cu30   O54     1.956   .     S
Cu30   O58     1.963   .     S
Cu30   N48     2.010   .     S
Cu30   O56     1.965   .     S
Cu30   O52     1.965   .     S
H32    C557    1.083   .     S
H35    C560    1.082   1_554 S
H38    O51     0.991   .     S
O50    S60     1.504   .     D
O51    S60     1.680   .     S
O59    S60     1.503   .     D
C61    C69     1.450   .     S
C61    O112    1.291   .     A
C61    O109    1.291   .     A
C62    C82     1.427   .     A
C62    C64     1.476   .     S
C62    C79     1.405   .     A
C63    C69     1.401   .     A
C63    H97     1.083   .     S
C63    C245    1.383   .     S
C64    O113    1.301   .     A
C64    O114    1.292   .     A
C65    H99     1.083   .     S
C65    C66     1.401   .     A
C65    C423    1.383   1_545 S
C66    C67     1.401   .     A
C66    C75     1.450   .     S
C67    H100    1.083   .     S
C67    C428    1.383   1_545 S
C68    H101    1.083   .     S
C68    C69     1.401   .     A
C68    C247    1.383   .     S
C70    H102    1.080   .     S
C70    N108    1.367   .     A
C70    C131    1.415   .     S
C71    H103    1.081   .     S
C71    N107    1.366   .     A
C72    C82     1.416   .     A
C72    C621    1.410   .     S
C72    C623    1.417   .     S
C73    H104    1.081   .     S
C73    N107    1.367   .     A
C74    H105    1.081   .     S
C74    N108    1.367   .     A
C74    C133    1.415   .     S
C75    O116    1.291   .     A
C75    O115    1.291   .     A
C76    O118    1.299   .     A
C76    O117    1.291   .     A
C76    C78     1.468   .     S
C77    C88     1.395   .     A
C77    C624    1.400   1_554 S
C77    H632    1.083   1_554 S
C78    C88     1.405   .     A
C78    C87     1.414   .     A
C79    C80     1.388   .     A
C79    H93     1.083   .     S
C80    C621    1.388   .     S
C80    H635    1.082   .     S
C81    H94     1.079   .     S
C81    C620    1.388   1_554 S
C81    C612    1.410   1_554 S
C82    C86     1.416   .     A
C83    C87     1.403   .     A
C83    C612    1.417   1_554 S
C83    C624    1.412   1_554 S
C84    C85     1.391   .     A
C84    C617    1.400   .     S
C84    C623    1.412   .     S
C85    H106    1.084   .     S
C85    C86     1.391   .     A
C86    H96     1.076   .     S
C87    S120    1.790   .     S
C88    H91     1.083   .     S
Cu89   O109    1.965   .     S
Cu89   Cu90    2.676   .     S
Cu89   O113    1.963   .     S
Cu89   N107    2.011   .     S
Cu89   O117    1.956   .     S
Cu89   O115    1.965   .     S
Cu90   O114    1.956   .     S
Cu90   O118    1.963   .     S
Cu90   N108    2.010   .     S
Cu90   O116    1.965   .     S
Cu90   O112    1.965   .     S
H92    C617    1.083   .     S
H95    C620    1.082   1_554 S
H98    O111    0.991   .     S
O110   S120    1.504   .     D
O111   S120    1.680   .     S
O119   S120    1.503   .     D
C121   C129    1.450   .     S
C121   O172    1.291   .     A
C121   O169    1.291   .     A
C122   C142    1.427   .     A
C122   C124    1.476   .     S
C122   C139    1.405   .     A
C123   C129    1.401   .     A
C123   H157    1.083   .     S
C123   C305    1.383   .     S
C124   O173    1.301   .     A
C124   O174    1.292   .     A
C125   H159    1.083   .     S
C125   C126    1.401   .     A
C125   C483    1.383   1_545 S
C126   C127    1.401   .     A
C126   C135    1.450   .     S
C127   H160    1.083   .     S
C127   C488    1.383   1_545 S
C128   H161    1.083   .     S
C128   C129    1.401   .     A
C128   C307    1.383   .     S
C130   H162    1.080   .     S
C130   N168    1.367   .     A
C130   C11     1.415   1_655 S
C131   H163    1.081   .     S
C131   N167    1.366   .     A
C132   C142    1.416   .     A
C132   C681    1.410   .     S
C132   C683    1.417   .     S
C133   H164    1.081   .     S
C133   N167    1.367   .     A
C134   H165    1.081   .     S
C134   N168    1.367   .     A
C134   C13     1.415   1_655 S
C135   O176    1.291   .     A
C135   O175    1.291   .     A
C136   O178    1.299   .     A
C136   O177    1.291   .     A
C136   C138    1.468   .     S
C137   C148    1.395   .     A
C137   C684    1.400   1_554 S
C137   H692    1.083   1_554 S
C138   C148    1.405   .     A
C138   C147    1.414   .     A
C139   C140    1.388   .     A
C139   H153    1.083   .     S
C140   C681    1.388   .     S
C140   H695    1.082   .     S
C141   H154    1.079   .     S
C141   C680    1.388   1_554 S
C141   C672    1.410   1_554 S
C142   C146    1.416   .     A
C143   C147    1.403   .     A
C143   C672    1.417   1_554 S
C143   C684    1.412   1_554 S
C144   C145    1.391   .     A
C144   C677    1.400   .     S
C144   C683    1.412   .     S
C145   H166    1.084   .     S
C145   C146    1.391   .     A
C146   H156    1.076   .     S
C147   S180    1.790   .     S
C148   H151    1.083   .     S
Cu149  O169    1.965   .     S
Cu149  Cu150   2.676   .     S
Cu149  O173    1.963   .     S
Cu149  N167    2.011   .     S
Cu149  O177    1.956   .     S
Cu149  O175    1.965   .     S
Cu150  O174    1.956   .     S
Cu150  O178    1.963   .     S
Cu150  N168    2.010   .     S
Cu150  O176    1.965   .     S
Cu150  O172    1.965   .     S
H152   C677    1.083   .     S
H155   C680    1.082   1_554 S
H158   O171    0.991   .     S
O170   S180    1.504   .     D
O171   S180    1.680   .     S
O179   S180    1.503   .     D
C181   C189    1.450   .     S
C181   O232    1.291   .     A
C181   O229    1.291   .     A
C182   C202    1.427   .     A
C182   C184    1.476   .     S
C182   C199    1.405   .     A
C183   C189    1.401   .     A
C183   H217    1.083   .     S
C183   C365    1.383   .     S
C184   O233    1.301   .     A
C184   O234    1.292   .     A
C185   H219    1.083   .     S
C185   C186    1.401   .     A
C186   C187    1.401   .     A
C186   C195    1.450   .     S
C187   H220    1.083   .     S
C188   H221    1.083   .     S
C188   C189    1.401   .     A
C188   C367    1.383   .     S
C190   H222    1.080   .     S
C190   N228    1.367   .     A
C190   C251    1.415   .     S
C191   H223    1.081   .     S
C191   N227    1.366   .     A
C191   C310    1.415   1_455 S
C192   C202    1.416   .     A
C192   C741    1.410   .     S
C192   C743    1.417   .     S
C193   H224    1.081   .     S
C193   N227    1.367   .     A
C193   C314    1.415   1_455 S
C194   H225    1.081   .     S
C194   N228    1.367   .     A
C194   C253    1.415   .     S
C195   O236    1.291   .     A
C195   O235    1.291   .     A
C196   O238    1.299   .     A
C196   O237    1.291   .     A
C196   C198    1.468   .     S
C197   C208    1.395   .     A
C197   C744    1.400   1_554 S
C197   H752    1.083   1_554 S
C198   C208    1.405   .     A
C198   C207    1.414   .     A
C199   C200    1.388   .     A
C199   H213    1.083   .     S
C200   C741    1.388   .     S
C200   H755    1.082   .     S
C201   H214    1.079   .     S
C201   C740    1.388   1_554 S
C201   C732    1.410   1_554 S
C202   C206    1.416   .     A
C203   C207    1.403   .     A
C203   C732    1.417   1_554 S
C203   C744    1.412   1_554 S
C204   C205    1.391   .     A
C204   C737    1.400   .     S
C204   C743    1.412   .     S
C205   H226    1.084   .     S
C205   C206    1.391   .     A
C206   H216    1.076   .     S
C207   S240    1.790   .     S
C208   H211    1.083   .     S
Cu209  O229    1.965   .     S
Cu209  Cu210   2.676   .     S
Cu209  O233    1.963   .     S
Cu209  N227    2.011   .     S
Cu209  O237    1.956   .     S
Cu209  O235    1.965   .     S
Cu210  O234    1.956   .     S
Cu210  O238    1.963   .     S
Cu210  N228    2.010   .     S
Cu210  O236    1.965   .     S
Cu210  O232    1.965   .     S
H212   C737    1.083   .     S
H215   C740    1.082   1_554 S
H218   O231    0.991   .     S
O230   S240    1.504   .     D
O231   S240    1.680   .     S
O239   S240    1.503   .     D
C241   C249    1.450   .     S
C241   O292    1.291   .     A
C241   O289    1.291   .     A
C242   C262    1.427   .     A
C242   C244    1.476   .     S
C242   C259    1.405   .     A
C243   C249    1.401   .     A
C243   H277    1.083   .     S
C243   C425    1.383   .     S
C244   O293    1.301   .     A
C244   O294    1.292   .     A
C245   H279    1.083   .     S
C245   C246    1.401   .     A
C246   C247    1.401   .     A
C246   C255    1.450   .     S
C247   H280    1.083   .     S
C248   H281    1.083   .     S
C248   C249    1.401   .     A
C248   C427    1.383   .     S
C250   H282    1.080   .     S
C250   N288    1.367   .     A
C250   C311    1.415   .     S
C251   H283    1.081   .     S
C251   N287    1.366   .     A
C252   C262    1.416   .     A
C252   C801    1.410   .     S
C252   C803    1.417   .     S
C253   H284    1.081   .     S
C253   N287    1.367   .     A
C254   H285    1.081   .     S
C254   N288    1.367   .     A
C254   C313    1.415   .     S
C255   O296    1.291   .     A
C255   O295    1.291   .     A
C256   O298    1.299   .     A
C256   O297    1.291   .     A
C256   C258    1.468   .     S
C257   C268    1.395   .     A
C257   C804    1.400   1_554 S
C257   H812    1.083   1_554 S
C258   C268    1.405   .     A
C258   C267    1.414   .     A
C259   C260    1.388   .     A
C259   H273    1.083   .     S
C260   C801    1.388   .     S
C260   H815    1.082   .     S
C261   H274    1.079   .     S
C261   C800    1.388   1_554 S
C261   C792    1.410   1_554 S
C262   C266    1.416   .     A
C263   C267    1.403   .     A
C263   C792    1.417   1_554 S
C263   C804    1.412   1_554 S
C264   C265    1.391   .     A
C264   C797    1.400   .     S
C264   C803    1.412   .     S
C265   H286    1.084   .     S
C265   C266    1.391   .     A
C266   H276    1.076   .     S
C267   S300    1.790   .     S
C268   H271    1.083   .     S
Cu269  O289    1.965   .     S
Cu269  Cu270   2.676   .     S
Cu269  O293    1.963   .     S
Cu269  N287    2.011   .     S
Cu269  O297    1.956   .     S
Cu269  O295    1.965   .     S
Cu270  O294    1.956   .     S
Cu270  O298    1.963   .     S
Cu270  N288    2.010   .     S
Cu270  O296    1.965   .     S
Cu270  O292    1.965   .     S
H272   C797    1.083   .     S
H275   C800    1.082   1_554 S
H278   O291    0.991   .     S
O290   S300    1.504   .     D
O291   S300    1.680   .     S
O299   S300    1.503   .     D
C301   C309    1.450   .     S
C301   O352    1.291   .     A
C301   O349    1.291   .     A
C302   C322    1.427   .     A
C302   C304    1.476   .     S
C302   C319    1.405   .     A
C303   C309    1.401   .     A
C303   H337    1.083   .     S
C303   C485    1.383   .     S
C304   O353    1.301   .     A
C304   O354    1.292   .     A
C305   H339    1.083   .     S
C305   C306    1.401   .     A
C306   C307    1.401   .     A
C306   C315    1.450   .     S
C307   H340    1.083   .     S
C308   H341    1.083   .     S
C308   C309    1.401   .     A
C308   C487    1.383   .     S
C310   H342    1.080   .     S
C310   N348    1.367   .     A
C310   C191    1.415   1_655 S
C311   H343    1.081   .     S
C311   N347    1.366   .     A
C312   C322    1.416   .     A
C312   C861    1.410   .     S
C312   C863    1.417   .     S
C313   H344    1.081   .     S
C313   N347    1.367   .     A
C314   H345    1.081   .     S
C314   N348    1.367   .     A
C314   C193    1.415   1_655 S
C315   O356    1.291   .     A
C315   O355    1.291   .     A
C316   O358    1.299   .     A
C316   O357    1.291   .     A
C316   C318    1.468   .     S
C317   C328    1.395   .     A
C317   C864    1.400   1_554 S
C317   H872    1.083   1_554 S
C318   C328    1.405   .     A
C318   C327    1.414   .     A
C319   C320    1.388   .     A
C319   H333    1.083   .     S
C320   C861    1.388   .     S
C320   H875    1.082   .     S
C321   H334    1.079   .     S
C321   C860    1.388   1_554 S
C321   C852    1.410   1_554 S
C322   C326    1.416   .     A
C323   C327    1.403   .     A
C323   C852    1.417   1_554 S
C323   C864    1.412   1_554 S
C324   C325    1.391   .     A
C324   C857    1.400   .     S
C324   C863    1.412   .     S
C325   H346    1.084   .     S
C325   C326    1.391   .     A
C326   H336    1.076   .     S
C327   S360    1.790   .     S
C328   H331    1.083   .     S
Cu329  O349    1.965   .     S
Cu329  Cu330   2.676   .     S
Cu329  O353    1.963   .     S
Cu329  N347    2.011   .     S
Cu329  O357    1.956   .     S
Cu329  O355    1.965   .     S
Cu330  O354    1.956   .     S
Cu330  O358    1.963   .     S
Cu330  N348    2.010   .     S
Cu330  O356    1.965   .     S
Cu330  O352    1.965   .     S
H332   C857    1.083   .     S
H335   C860    1.082   1_554 S
H338   O351    0.991   .     S
O350   S360    1.504   .     D
O351   S360    1.680   .     S
O359   S360    1.503   .     D
C361   C369    1.450   .     S
C361   O412    1.291   .     A
C361   O409    1.291   .     A
C362   C382    1.427   .     A
C362   C364    1.476   .     S
C362   C379    1.405   .     A
C363   C369    1.401   .     A
C363   H397    1.083   .     S
C363   C5      1.383   1_565 S
C364   O413    1.301   .     A
C364   O414    1.292   .     A
C365   H399    1.083   .     S
C365   C366    1.401   .     A
C366   C367    1.401   .     A
C366   C375    1.450   .     S
C367   H400    1.083   .     S
C368   H401    1.083   .     S
C368   C369    1.401   .     A
C368   C7      1.383   1_565 S
C370   H402    1.080   .     S
C370   N408    1.367   .     A
C370   C431    1.415   .     S
C371   H403    1.081   .     S
C371   N407    1.366   .     A
C371   C490    1.415   1_455 S
C372   C382    1.416   .     A
C372   C921    1.410   .     S
C372   C923    1.417   .     S
C373   H404    1.081   .     S
C373   N407    1.367   .     A
C373   C494    1.415   1_455 S
C374   H405    1.081   .     S
C374   N408    1.367   .     A
C374   C433    1.415   .     S
C375   O416    1.291   .     A
C375   O415    1.291   .     A
C376   O418    1.299   .     A
C376   O417    1.291   .     A
C376   C378    1.468   .     S
C377   C388    1.395   .     A
C377   C924    1.400   1_554 S
C377   H932    1.083   1_554 S
C378   C388    1.405   .     A
C378   C387    1.414   .     A
C379   C380    1.388   .     A
C379   H393    1.083   .     S
C380   C921    1.388   .     S
C380   H935    1.082   .     S
C381   H394    1.079   .     S
C381   C920    1.388   1_554 S
C381   C912    1.410   1_554 S
C382   C386    1.416   .     A
C383   C387    1.403   .     A
C383   C912    1.417   1_554 S
C383   C924    1.412   1_554 S
C384   C385    1.391   .     A
C384   C917    1.400   .     S
C384   C923    1.412   .     S
C385   H406    1.084   .     S
C385   C386    1.391   .     A
C386   H396    1.076   .     S
C387   S420    1.790   .     S
C388   H391    1.083   .     S
Cu389  O409    1.965   .     S
Cu389  Cu390   2.676   .     S
Cu389  O413    1.963   .     S
Cu389  N407    2.011   .     S
Cu389  O417    1.956   .     S
Cu389  O415    1.965   .     S
Cu390  O414    1.956   .     S
Cu390  O418    1.963   .     S
Cu390  N408    2.010   .     S
Cu390  O416    1.965   .     S
Cu390  O412    1.965   .     S
H392   C917    1.083   .     S
H395   C920    1.082   1_554 S
H398   O411    0.991   .     S
O410   S420    1.504   .     D
O411   S420    1.680   .     S
O419   S420    1.503   .     D
C421   C429    1.450   .     S
C421   O472    1.291   .     A
C421   O469    1.291   .     A
C422   C442    1.427   .     A
C422   C424    1.476   .     S
C422   C439    1.405   .     A
C423   C429    1.401   .     A
C423   H457    1.083   .     S
C423   C65     1.383   1_565 S
C424   O473    1.301   .     A
C424   O474    1.292   .     A
C425   H459    1.083   .     S
C425   C426    1.401   .     A
C426   C427    1.401   .     A
C426   C435    1.450   .     S
C427   H460    1.083   .     S
C428   H461    1.083   .     S
C428   C429    1.401   .     A
C428   C67     1.383   1_565 S
C430   H462    1.080   .     S
C430   N468    1.367   .     A
C430   C491    1.415   .     S
C431   H463    1.081   .     S
C431   N467    1.366   .     A
C432   C442    1.416   .     A
C432   C981    1.410   .     S
C432   C983    1.417   .     S
C433   H464    1.081   .     S
C433   N467    1.367   .     A
C434   H465    1.081   .     S
C434   N468    1.367   .     A
C434   C493    1.415   .     S
C435   O476    1.291   .     A
C435   O475    1.291   .     A
C436   O478    1.299   .     A
C436   O477    1.291   .     A
C436   C438    1.468   .     S
C437   C448    1.395   .     A
C437   C984    1.400   1_554 S
C437   H992    1.083   1_554 S
C438   C448    1.405   .     A
C438   C447    1.414   .     A
C439   C440    1.388   .     A
C439   H453    1.083   .     S
C440   C981    1.388   .     S
C440   H995    1.082   .     S
C441   H454    1.079   .     S
C441   C980    1.388   1_554 S
C441   C972    1.410   1_554 S
C442   C446    1.416   .     A
C443   C447    1.403   .     A
C443   C972    1.417   1_554 S
C443   C984    1.412   1_554 S
C444   C445    1.391   .     A
C444   C977    1.400   .     S
C444   C983    1.412   .     S
C445   H466    1.084   .     S
C445   C446    1.391   .     A
C446   H456    1.076   .     S
C447   S480    1.790   .     S
C448   H451    1.083   .     S
Cu449  O469    1.965   .     S
Cu449  Cu450   2.676   .     S
Cu449  O473    1.963   .     S
Cu449  N467    2.011   .     S
Cu449  O477    1.956   .     S
Cu449  O475    1.965   .     S
Cu450  O474    1.956   .     S
Cu450  O478    1.963   .     S
Cu450  N468    2.010   .     S
Cu450  O476    1.965   .     S
Cu450  O472    1.965   .     S
H452   C977    1.083   .     S
H455   C980    1.082   1_554 S
H458   O471    0.991   .     S
O470   S480    1.504   .     D
O471   S480    1.680   .     S
O479   S480    1.503   .     D
C481   C489    1.450   .     S
C481   O532    1.291   .     A
C481   O529    1.291   .     A
C482   C502    1.427   .     A
C482   C484    1.476   .     S
C482   C499    1.405   .     A
C483   C489    1.401   .     A
C483   H517    1.083   .     S
C483   C125    1.383   1_565 S
C484   O533    1.301   .     A
C484   O534    1.292   .     A
C485   H519    1.083   .     S
C485   C486    1.401   .     A
C486   C487    1.401   .     A
C486   C495    1.450   .     S
C487   H520    1.083   .     S
C488   H521    1.083   .     S
C488   C489    1.401   .     A
C488   C127    1.383   1_565 S
C490   H522    1.080   .     S
C490   N528    1.367   .     A
C490   C371    1.415   1_655 S
C491   H523    1.081   .     S
C491   N527    1.366   .     A
C492   C502    1.416   .     A
C492   C1041   1.410   .     S
C492   C1043   1.417   .     S
C493   H524    1.081   .     S
C493   N527    1.367   .     A
C494   H525    1.081   .     S
C494   N528    1.367   .     A
C494   C373    1.415   1_655 S
C495   O536    1.291   .     A
C495   O535    1.291   .     A
C496   O538    1.299   .     A
C496   O537    1.291   .     A
C496   C498    1.468   .     S
C497   C508    1.395   .     A
C497   C1044   1.400   1_554 S
C497   H1052   1.083   1_554 S
C498   C508    1.405   .     A
C498   C507    1.414   .     A
C499   C500    1.388   .     A
C499   H513    1.083   .     S
C500   C1041   1.388   .     S
C500   H1055   1.082   .     S
C501   H514    1.079   .     S
C501   C1040   1.388   1_554 S
C501   C1032   1.410   1_554 S
C502   C506    1.416   .     A
C503   C507    1.403   .     A
C503   C1032   1.417   1_554 S
C503   C1044   1.412   1_554 S
C504   C505    1.391   .     A
C504   C1037   1.400   .     S
C504   C1043   1.412   .     S
C505   H526    1.084   .     S
C505   C506    1.391   .     A
C506   H516    1.076   .     S
C507   S540    1.790   .     S
C508   H511    1.083   .     S
Cu509  O529    1.965   .     S
Cu509  Cu510   2.676   .     S
Cu509  O533    1.963   .     S
Cu509  N527    2.011   .     S
Cu509  O537    1.956   .     S
Cu509  O535    1.965   .     S
Cu510  O534    1.956   .     S
Cu510  O538    1.963   .     S
Cu510  N528    2.010   .     S
Cu510  O536    1.965   .     S
Cu510  O532    1.965   .     S
H512   C1037   1.083   .     S
H515   C1040   1.082   1_554 S
H518   O531    0.991   .     S
O530   S540    1.504   .     D
O531   S540    1.680   .     S
O539   S540    1.503   .     D
C541   C549    1.450   .     S
C541   O592    1.291   .     A
C541   O589    1.291   .     A
C542   C562    1.427   .     A
C542   C544    1.476   .     S
C542   C559    1.405   .     A
C543   C549    1.401   .     A
C543   H577    1.083   .     S
C543   C725    1.383   .     S
C544   O593    1.301   .     A
C544   O594    1.292   .     A
C545   H579    1.083   .     S
C545   C546    1.401   .     A
C545   C903    1.383   1_545 S
C546   C547    1.401   .     A
C546   C555    1.450   .     S
C547   H580    1.083   .     S
C547   C908    1.383   1_545 S
C548   H581    1.083   .     S
C548   C549    1.401   .     A
C548   C727    1.383   .     S
C550   H582    1.080   .     S
C550   N588    1.367   .     A
C550   C611    1.415   .     S
C551   H583    1.081   .     S
C551   N587    1.366   .     A
C551   C670    1.415   1_455 S
C552   C562    1.416   .     A
C552   C21     1.410   1_556 S
C552   C23     1.417   1_556 S
C553   H584    1.081   .     S
C553   N587    1.367   .     A
C553   C674    1.415   1_455 S
C554   H585    1.081   .     S
C554   N588    1.367   .     A
C554   C613    1.415   .     S
C555   O596    1.291   .     A
C555   O595    1.291   .     A
C556   O598    1.299   .     A
C556   O597    1.291   .     A
C556   C558    1.468   .     S
C557   C568    1.395   .     A
C558   C568    1.405   .     A
C558   C567    1.414   .     A
C559   C560    1.388   .     A
C559   H573    1.083   .     S
C560   C21     1.388   1_556 S
C560   H35     1.082   1_556 S
C561   H574    1.079   .     S
C562   C566    1.416   .     A
C563   C567    1.403   .     A
C564   C565    1.391   .     A
C564   C17     1.400   1_556 S
C564   C23     1.412   1_556 S
C565   H586    1.084   .     S
C565   C566    1.391   .     A
C566   H576    1.076   .     S
C567   S600    1.790   .     S
C568   H571    1.083   .     S
Cu569  O589    1.965   .     S
Cu569  Cu570   2.676   .     S
Cu569  O593    1.963   .     S
Cu569  N587    2.011   .     S
Cu569  O597    1.956   .     S
Cu569  O595    1.965   .     S
Cu570  O594    1.956   .     S
Cu570  O598    1.963   .     S
Cu570  N588    2.010   .     S
Cu570  O596    1.965   .     S
Cu570  O592    1.965   .     S
H572   C17     1.083   1_556 S
H578   O591    0.991   .     S
O590   S600    1.504   .     D
O591   S600    1.680   .     S
O599   S600    1.503   .     D
C601   C609    1.450   .     S
C601   O652    1.291   .     A
C601   O649    1.291   .     A
C602   C622    1.427   .     A
C602   C604    1.476   .     S
C602   C619    1.405   .     A
C603   C609    1.401   .     A
C603   H637    1.083   .     S
C603   C785    1.383   .     S
C604   O653    1.301   .     A
C604   O654    1.292   .     A
C605   H639    1.083   .     S
C605   C606    1.401   .     A
C605   C963    1.383   1_545 S
C606   C607    1.401   .     A
C606   C615    1.450   .     S
C607   H640    1.083   .     S
C607   C968    1.383   1_545 S
C608   H641    1.083   .     S
C608   C609    1.401   .     A
C608   C787    1.383   .     S
C610   H642    1.080   .     S
C610   N648    1.367   .     A
C610   C671    1.415   .     S
C611   H643    1.081   .     S
C611   N647    1.366   .     A
C612   C622    1.416   .     A
C612   C81     1.410   1_556 S
C612   C83     1.417   1_556 S
C613   H644    1.081   .     S
C613   N647    1.367   .     A
C614   H645    1.081   .     S
C614   N648    1.367   .     A
C614   C673    1.415   .     S
C615   O656    1.291   .     A
C615   O655    1.291   .     A
C616   O658    1.299   .     A
C616   O657    1.291   .     A
C616   C618    1.468   .     S
C617   C628    1.395   .     A
C618   C628    1.405   .     A
C618   C627    1.414   .     A
C619   C620    1.388   .     A
C619   H633    1.083   .     S
C620   C81     1.388   1_556 S
C620   H95     1.082   1_556 S
C621   H634    1.079   .     S
C622   C626    1.416   .     A
C623   C627    1.403   .     A
C624   C625    1.391   .     A
C624   C77     1.400   1_556 S
C624   C83     1.412   1_556 S
C625   H646    1.084   .     S
C625   C626    1.391   .     A
C626   H636    1.076   .     S
C627   S660    1.790   .     S
C628   H631    1.083   .     S
Cu629  O649    1.965   .     S
Cu629  Cu630   2.676   .     S
Cu629  O653    1.963   .     S
Cu629  N647    2.011   .     S
Cu629  O657    1.956   .     S
Cu629  O655    1.965   .     S
Cu630  O654    1.956   .     S
Cu630  O658    1.963   .     S
Cu630  N648    2.010   .     S
Cu630  O656    1.965   .     S
Cu630  O652    1.965   .     S
H632   C77     1.083   1_556 S
H638   O651    0.991   .     S
O650   S660    1.504   .     D
O651   S660    1.680   .     S
O659   S660    1.503   .     D
C661   C669    1.450   .     S
C661   O712    1.291   .     A
C661   O709    1.291   .     A
C662   C682    1.427   .     A
C662   C664    1.476   .     S
C662   C679    1.405   .     A
C663   C669    1.401   .     A
C663   H697    1.083   .     S
C663   C845    1.383   .     S
C664   O713    1.301   .     A
C664   O714    1.292   .     A
C665   H699    1.083   .     S
C665   C666    1.401   .     A
C665   C1023   1.383   1_545 S
C666   C667    1.401   .     A
C666   C675    1.450   .     S
C667   H700    1.083   .     S
C667   C1028   1.383   1_545 S
C668   H701    1.083   .     S
C668   C669    1.401   .     A
C668   C847    1.383   .     S
C670   H702    1.080   .     S
C670   N708    1.367   .     A
C670   C551    1.415   1_655 S
C671   H703    1.081   .     S
C671   N707    1.366   .     A
C672   C682    1.416   .     A
C672   C141    1.410   1_556 S
C672   C143    1.417   1_556 S
C673   H704    1.081   .     S
C673   N707    1.367   .     A
C674   H705    1.081   .     S
C674   N708    1.367   .     A
C674   C553    1.415   1_655 S
C675   O716    1.291   .     A
C675   O715    1.291   .     A
C676   O718    1.299   .     A
C676   O717    1.291   .     A
C676   C678    1.468   .     S
C677   C688    1.395   .     A
C678   C688    1.405   .     A
C678   C687    1.414   .     A
C679   C680    1.388   .     A
C679   H693    1.083   .     S
C680   C141    1.388   1_556 S
C680   H155    1.082   1_556 S
C681   H694    1.079   .     S
C682   C686    1.416   .     A
C683   C687    1.403   .     A
C684   C685    1.391   .     A
C684   C137    1.400   1_556 S
C684   C143    1.412   1_556 S
C685   H706    1.084   .     S
C685   C686    1.391   .     A
C686   H696    1.076   .     S
C687   S720    1.790   .     S
C688   H691    1.083   .     S
Cu689  O709    1.965   .     S
Cu689  Cu690   2.676   .     S
Cu689  O713    1.963   .     S
Cu689  N707    2.011   .     S
Cu689  O717    1.956   .     S
Cu689  O715    1.965   .     S
Cu690  O714    1.956   .     S
Cu690  O718    1.963   .     S
Cu690  N708    2.010   .     S
Cu690  O716    1.965   .     S
Cu690  O712    1.965   .     S
H692   C137    1.083   1_556 S
H698   O711    0.991   .     S
O710   S720    1.504   .     D
O711   S720    1.680   .     S
O719   S720    1.503   .     D
C721   C729    1.450   .     S
C721   O772    1.291   .     A
C721   O769    1.291   .     A
C722   C742    1.427   .     A
C722   C724    1.476   .     S
C722   C739    1.405   .     A
C723   C729    1.401   .     A
C723   H757    1.083   .     S
C723   C905    1.383   .     S
C724   O773    1.301   .     A
C724   O774    1.292   .     A
C725   H759    1.083   .     S
C725   C726    1.401   .     A
C726   C727    1.401   .     A
C726   C735    1.450   .     S
C727   H760    1.083   .     S
C728   H761    1.083   .     S
C728   C729    1.401   .     A
C728   C907    1.383   .     S
C730   H762    1.080   .     S
C730   N768    1.367   .     A
C730   C791    1.415   .     S
C731   H763    1.081   .     S
C731   N767    1.366   .     A
C731   C850    1.415   1_455 S
C732   C742    1.416   .     A
C732   C201    1.410   1_556 S
C732   C203    1.417   1_556 S
C733   H764    1.081   .     S
C733   N767    1.367   .     A
C733   C854    1.415   1_455 S
C734   H765    1.081   .     S
C734   N768    1.367   .     A
C734   C793    1.415   .     S
C735   O776    1.291   .     A
C735   O775    1.291   .     A
C736   O778    1.299   .     A
C736   O777    1.291   .     A
C736   C738    1.468   .     S
C737   C748    1.395   .     A
C738   C748    1.405   .     A
C738   C747    1.414   .     A
C739   C740    1.388   .     A
C739   H753    1.083   .     S
C740   C201    1.388   1_556 S
C740   H215    1.082   1_556 S
C741   H754    1.079   .     S
C742   C746    1.416   .     A
C743   C747    1.403   .     A
C744   C745    1.391   .     A
C744   C197    1.400   1_556 S
C744   C203    1.412   1_556 S
C745   H766    1.084   .     S
C745   C746    1.391   .     A
C746   H756    1.076   .     S
C747   S780    1.790   .     S
C748   H751    1.083   .     S
Cu749  O769    1.965   .     S
Cu749  Cu750   2.676   .     S
Cu749  O773    1.963   .     S
Cu749  N767    2.011   .     S
Cu749  O777    1.956   .     S
Cu749  O775    1.965   .     S
Cu750  O774    1.956   .     S
Cu750  O778    1.963   .     S
Cu750  N768    2.010   .     S
Cu750  O776    1.965   .     S
Cu750  O772    1.965   .     S
H752   C197    1.083   1_556 S
H758   O771    0.991   .     S
O770   S780    1.504   .     D
O771   S780    1.680   .     S
O779   S780    1.503   .     D
C781   C789    1.450   .     S
C781   O832    1.291   .     A
C781   O829    1.291   .     A
C782   C802    1.427   .     A
C782   C784    1.476   .     S
C782   C799    1.405   .     A
C783   C789    1.401   .     A
C783   H817    1.083   .     S
C783   C965    1.383   .     S
C784   O833    1.301   .     A
C784   O834    1.292   .     A
C785   H819    1.083   .     S
C785   C786    1.401   .     A
C786   C787    1.401   .     A
C786   C795    1.450   .     S
C787   H820    1.083   .     S
C788   H821    1.083   .     S
C788   C789    1.401   .     A
C788   C967    1.383   .     S
C790   H822    1.080   .     S
C790   N828    1.367   .     A
C790   C851    1.415   .     S
C791   H823    1.081   .     S
C791   N827    1.366   .     A
C792   C802    1.416   .     A
C792   C261    1.410   1_556 S
C792   C263    1.417   1_556 S
C793   H824    1.081   .     S
C793   N827    1.367   .     A
C794   H825    1.081   .     S
C794   N828    1.367   .     A
C794   C853    1.415   .     S
C795   O836    1.291   .     A
C795   O835    1.291   .     A
C796   O838    1.299   .     A
C796   O837    1.291   .     A
C796   C798    1.468   .     S
C797   C808    1.395   .     A
C798   C808    1.405   .     A
C798   C807    1.414   .     A
C799   C800    1.388   .     A
C799   H813    1.083   .     S
C800   C261    1.388   1_556 S
C800   H275    1.082   1_556 S
C801   H814    1.079   .     S
C802   C806    1.416   .     A
C803   C807    1.403   .     A
C804   C805    1.391   .     A
C804   C257    1.400   1_556 S
C804   C263    1.412   1_556 S
C805   H826    1.084   .     S
C805   C806    1.391   .     A
C806   H816    1.076   .     S
C807   S840    1.790   .     S
C808   H811    1.083   .     S
Cu809  O829    1.965   .     S
Cu809  Cu810   2.676   .     S
Cu809  O833    1.963   .     S
Cu809  N827    2.011   .     S
Cu809  O837    1.956   .     S
Cu809  O835    1.965   .     S
Cu810  O834    1.956   .     S
Cu810  O838    1.963   .     S
Cu810  N828    2.010   .     S
Cu810  O836    1.965   .     S
Cu810  O832    1.965   .     S
H812   C257    1.083   1_556 S
H818   O831    0.991   .     S
O830   S840    1.504   .     D
O831   S840    1.680   .     S
O839   S840    1.503   .     D
C841   C849    1.450   .     S
C841   O892    1.291   .     A
C841   O889    1.291   .     A
C842   C862    1.427   .     A
C842   C844    1.476   .     S
C842   C859    1.405   .     A
C843   C849    1.401   .     A
C843   H877    1.083   .     S
C843   C1025   1.383   .     S
C844   O893    1.301   .     A
C844   O894    1.292   .     A
C845   H879    1.083   .     S
C845   C846    1.401   .     A
C846   C847    1.401   .     A
C846   C855    1.450   .     S
C847   H880    1.083   .     S
C848   H881    1.083   .     S
C848   C849    1.401   .     A
C848   C1027   1.383   .     S
C850   H882    1.080   .     S
C850   N888    1.367   .     A
C850   C731    1.415   1_655 S
C851   H883    1.081   .     S
C851   N887    1.366   .     A
C852   C862    1.416   .     A
C852   C321    1.410   1_556 S
C852   C323    1.417   1_556 S
C853   H884    1.081   .     S
C853   N887    1.367   .     A
C854   H885    1.081   .     S
C854   N888    1.367   .     A
C854   C733    1.415   1_655 S
C855   O896    1.291   .     A
C855   O895    1.291   .     A
C856   O898    1.299   .     A
C856   O897    1.291   .     A
C856   C858    1.468   .     S
C857   C868    1.395   .     A
C858   C868    1.405   .     A
C858   C867    1.414   .     A
C859   C860    1.388   .     A
C859   H873    1.083   .     S
C860   C321    1.388   1_556 S
C860   H335    1.082   1_556 S
C861   H874    1.079   .     S
C862   C866    1.416   .     A
C863   C867    1.403   .     A
C864   C865    1.391   .     A
C864   C317    1.400   1_556 S
C864   C323    1.412   1_556 S
C865   H886    1.084   .     S
C865   C866    1.391   .     A
C866   H876    1.076   .     S
C867   S900    1.790   .     S
C868   H871    1.083   .     S
Cu869  O889    1.965   .     S
Cu869  Cu870   2.676   .     S
Cu869  O893    1.963   .     S
Cu869  N887    2.011   .     S
Cu869  O897    1.956   .     S
Cu869  O895    1.965   .     S
Cu870  O894    1.956   .     S
Cu870  O898    1.963   .     S
Cu870  N888    2.010   .     S
Cu870  O896    1.965   .     S
Cu870  O892    1.965   .     S
H872   C317    1.083   1_556 S
H878   O891    0.991   .     S
O890   S900    1.504   .     D
O891   S900    1.680   .     S
O899   S900    1.503   .     D
C901   C909    1.450   .     S
C901   O952    1.291   .     A
C901   O949    1.291   .     A
C902   C922    1.427   .     A
C902   C904    1.476   .     S
C902   C919    1.405   .     A
C903   C909    1.401   .     A
C903   H937    1.083   .     S
C903   C545    1.383   1_565 S
C904   O953    1.301   .     A
C904   O954    1.292   .     A
C905   H939    1.083   .     S
C905   C906    1.401   .     A
C906   C907    1.401   .     A
C906   C915    1.450   .     S
C907   H940    1.083   .     S
C908   H941    1.083   .     S
C908   C909    1.401   .     A
C908   C547    1.383   1_565 S
C910   H942    1.080   .     S
C910   N948    1.367   .     A
C910   C971    1.415   .     S
C911   H943    1.081   .     S
C911   N947    1.366   .     A
C911   C1030   1.415   1_455 S
C912   C922    1.416   .     A
C912   C381    1.410   1_556 S
C912   C383    1.417   1_556 S
C913   H944    1.081   .     S
C913   N947    1.367   .     A
C913   C1034   1.415   1_455 S
C914   H945    1.081   .     S
C914   N948    1.367   .     A
C914   C973    1.415   .     S
C915   O956    1.291   .     A
C915   O955    1.291   .     A
C916   O958    1.299   .     A
C916   O957    1.291   .     A
C916   C918    1.468   .     S
C917   C928    1.395   .     A
C918   C928    1.405   .     A
C918   C927    1.414   .     A
C919   C920    1.388   .     A
C919   H933    1.083   .     S
C920   C381    1.388   1_556 S
C920   H395    1.082   1_556 S
C921   H934    1.079   .     S
C922   C926    1.416   .     A
C923   C927    1.403   .     A
C924   C925    1.391   .     A
C924   C377    1.400   1_556 S
C924   C383    1.412   1_556 S
C925   H946    1.084   .     S
C925   C926    1.391   .     A
C926   H936    1.076   .     S
C927   S960    1.790   .     S
C928   H931    1.083   .     S
Cu929  O949    1.965   .     S
Cu929  Cu930   2.676   .     S
Cu929  O953    1.963   .     S
Cu929  N947    2.011   .     S
Cu929  O957    1.956   .     S
Cu929  O955    1.965   .     S
Cu930  O954    1.956   .     S
Cu930  O958    1.963   .     S
Cu930  N948    2.010   .     S
Cu930  O956    1.965   .     S
Cu930  O952    1.965   .     S
H932   C377    1.083   1_556 S
H938   O951    0.991   .     S
O950   S960    1.504   .     D
O951   S960    1.680   .     S
O959   S960    1.503   .     D
C961   C969    1.450   .     S
C961   O1012   1.291   .     A
C961   O1009   1.291   .     A
C962   C982    1.427   .     A
C962   C964    1.476   .     S
C962   C979    1.405   .     A
C963   C969    1.401   .     A
C963   H997    1.083   .     S
C963   C605    1.383   1_565 S
C964   O1013   1.301   .     A
C964   O1014   1.292   .     A
C965   H999    1.083   .     S
C965   C966    1.401   .     A
C966   C967    1.401   .     A
C966   C975    1.450   .     S
C967   H1000   1.083   .     S
C968   H1001   1.083   .     S
C968   C969    1.401   .     A
C968   C607    1.383   1_565 S
C970   H1002   1.080   .     S
C970   N1008   1.367   .     A
C970   C1031   1.415   .     S
C971   H1003   1.081   .     S
C971   N1007   1.366   .     A
C972   C982    1.416   .     A
C972   C441    1.410   1_556 S
C972   C443    1.417   1_556 S
C973   H1004   1.081   .     S
C973   N1007   1.367   .     A
C974   H1005   1.081   .     S
C974   N1008   1.367   .     A
C974   C1033   1.415   .     S
C975   O1016   1.291   .     A
C975   O1015   1.291   .     A
C976   O1018   1.299   .     A
C976   O1017   1.291   .     A
C976   C978    1.468   .     S
C977   C988    1.395   .     A
C978   C988    1.405   .     A
C978   C987    1.414   .     A
C979   C980    1.388   .     A
C979   H993    1.083   .     S
C980   C441    1.388   1_556 S
C980   H455    1.082   1_556 S
C981   H994    1.079   .     S
C982   C986    1.416   .     A
C983   C987    1.403   .     A
C984   C985    1.391   .     A
C984   C437    1.400   1_556 S
C984   C443    1.412   1_556 S
C985   H1006   1.084   .     S
C985   C986    1.391   .     A
C986   H996    1.076   .     S
C987   S1020   1.790   .     S
C988   H991    1.083   .     S
Cu989  O1009   1.965   .     S
Cu989  Cu990   2.676   .     S
Cu989  O1013   1.963   .     S
Cu989  N1007   2.011   .     S
Cu989  O1017   1.956   .     S
Cu989  O1015   1.965   .     S
Cu990  O1014   1.956   .     S
Cu990  O1018   1.963   .     S
Cu990  N1008   2.010   .     S
Cu990  O1016   1.965   .     S
Cu990  O1012   1.965   .     S
H992   C437    1.083   1_556 S
H998   O1011   0.991   .     S
O1010  S1020   1.504   .     D
O1011  S1020   1.680   .     S
O1019  S1020   1.503   .     D
C1021  C1029   1.450   .     S
C1021  O1072   1.291   .     A
C1021  O1069   1.291   .     A
C1022  C1042   1.427   .     A
C1022  C1024   1.476   .     S
C1022  C1039   1.405   .     A
C1023  C1029   1.401   .     A
C1023  H1057   1.083   .     S
C1023  C665    1.383   1_565 S
C1024  O1073   1.301   .     A
C1024  O1074   1.292   .     A
C1025  H1059   1.083   .     S
C1025  C1026   1.401   .     A
C1026  C1027   1.401   .     A
C1026  C1035   1.450   .     S
C1027  H1060   1.083   .     S
C1028  H1061   1.083   .     S
C1028  C1029   1.401   .     A
C1028  C667    1.383   1_565 S
C1030  H1062   1.080   .     S
C1030  N1068   1.367   .     A
C1030  C911    1.415   1_655 S
C1031  H1063   1.081   .     S
C1031  N1067   1.366   .     A
C1032  C1042   1.416   .     A
C1032  C501    1.410   1_556 S
C1032  C503    1.417   1_556 S
C1033  H1064   1.081   .     S
C1033  N1067   1.367   .     A
C1034  H1065   1.081   .     S
C1034  N1068   1.367   .     A
C1034  C913    1.415   1_655 S
C1035  O1076   1.291   .     A
C1035  O1075   1.291   .     A
C1036  O1078   1.299   .     A
C1036  O1077   1.291   .     A
C1036  C1038   1.468   .     S
C1037  C1048   1.395   .     A
C1038  C1048   1.405   .     A
C1038  C1047   1.414   .     A
C1039  C1040   1.388   .     A
C1039  H1053   1.083   .     S
C1040  C501    1.388   1_556 S
C1040  H515    1.082   1_556 S
C1041  H1054   1.079   .     S
C1042  C1046   1.416   .     A
C1043  C1047   1.403   .     A
C1044  C1045   1.391   .     A
C1044  C497    1.400   1_556 S
C1044  C503    1.412   1_556 S
C1045  H1066   1.084   .     S
C1045  C1046   1.391   .     A
C1046  H1056   1.076   .     S
C1047  S1080   1.790   .     S
C1048  H1051   1.083   .     S
Cu1049 O1069   1.965   .     S
Cu1049 Cu1050  2.676   .     S
Cu1049 O1073   1.963   .     S
Cu1049 N1067   2.011   .     S
Cu1049 O1077   1.956   .     S
Cu1049 O1075   1.965   .     S
Cu1050 O1074   1.956   .     S
Cu1050 O1078   1.963   .     S
Cu1050 N1068   2.010   .     S
Cu1050 O1076   1.965   .     S
Cu1050 O1072   1.965   .     S
H1052  C497    1.083   1_556 S
H1058  O1071   0.991   .     S
O1070  S1080   1.504   .     D
O1071  S1080   1.680   .     S
O1079  S1080   1.503   .     D
