data_str_m2_o10_o16_pcu_sym.128
_audit_creation_date              2020-01-03
_audit_creation_method            'Materials Studio'
_symmetry_space_group_name_H-M    'P1'
_symmetry_Int_Tables_number       1
_symmetry_cell_setting            triclinic
loop_
_symmetry_equiv_pos_as_xyz
  x,y,z
_cell_length_a                    22.6457
_cell_length_b                    26.0865
_cell_length_c                    26.9865
_cell_angle_alpha                 96.3803
_cell_angle_beta                  79.7814
_cell_angle_gamma                 102.5199
loop_
_atom_site_label
_atom_site_type_symbol
_atom_site_fract_x
_atom_site_fract_y
_atom_site_fract_z
_atom_site_U_iso_or_equiv
_atom_site_adp_type
_atom_site_occupancy
C1     C     0.18158   0.26660   0.25174   0.00000  Uiso   1.00
C2     C     0.14267   0.13507   0.48171   0.00000  Uiso   1.00
C3     C     0.16238   0.13955   0.42914   0.00000  Uiso   1.00
C4     C     0.18685   0.15144   0.01513   0.00000  Uiso   1.00
C5     C     0.24946   0.16866   0.49486   0.00000  Uiso   1.00
C6     C     0.26802   0.16480   0.44331   0.00000  Uiso   1.00
C7     C     0.22573   0.14628   0.41129   0.00000  Uiso   1.00
C8     C     0.17120   0.15280   0.06786   0.00000  Uiso   1.00
C9     C     0.27742   0.18739   0.07802   0.00000  Uiso   1.00
C10    C     0.11806   0.13594   0.39652   0.00000  Uiso   1.00
C11    C     0.18960   0.32267   0.25368   0.00000  Uiso   1.00
C12    C     0.13436   0.15589   0.34513   0.00000  Uiso   1.00
C13    C     0.14492   0.01086   0.24462   0.00000  Uiso   1.00
C14    C     0.15209   0.06678   0.24762   0.00000  Uiso   1.00
C15    C     0.19890   0.16947   0.15361   0.00000  Uiso   1.00
C16    C     0.29380   0.18724   0.02618   0.00000  Uiso   1.00
C17    C     0.21628   0.16996   0.09903   0.00000  Uiso   1.00
C18    C     0.05746   0.11197   0.41356   0.00000  Uiso   1.00
C19    C     0.03923   0.09939   0.46355   0.00000  Uiso   1.00
C20    C     0.08028   0.11330   0.49802   0.00000  Uiso   1.00
Cu21   Cu    0.10710   0.16105   0.24436   0.00000  Uiso   1.00
Cu22   Cu    0.22623   0.17228   0.25564   0.00000  Uiso   1.00
H23    H     0.31256   0.20125   0.10162   0.00000  Uiso   1.00
H24    H     0.10275   0.32073   0.23416   0.00000  Uiso   1.00
H25    H     0.32802   0.12104   0.21564   0.00000  Uiso   1.00
H26    H     0.31584   0.17596   0.42758   0.00000  Uiso   1.00
H27    H     0.00814   0.20077   0.01047   0.00000  Uiso   1.00
H28    H     0.12433   0.14091   0.08550   0.00000  Uiso   1.00
H29    H     0.02386   0.10333   0.38822   0.00000  Uiso   1.00
H30    H     0.06234   0.10488   0.03665   0.00000  Uiso   1.00
H31    H     0.32544   0.08094   0.47626   0.00000  Uiso   1.00
H32    H     0.24456   0.13609   0.37288   0.00000  Uiso   1.00
H33    H     0.23251   0.01304   0.26307   0.00000  Uiso   1.00
N34    N     0.31574   0.18074   0.26416   0.00000  Uiso   1.00
N35    N     0.01759   0.15259   0.23584   0.00000  Uiso   1.00
O36    O     0.12797   0.23807   0.24633   0.00000  Uiso   1.00
O37    O     0.22858   0.24755   0.25587   0.00000  Uiso   1.00
O38    O     0.09181   0.15960   0.31840   0.00000  Uiso   1.00
O39    O     0.19242   0.16908   0.32793   0.00000  Uiso   1.00
O40    O     0.10476   0.08578   0.24413   0.00000  Uiso   1.00
O41    O     0.20536   0.09526   0.25367   0.00000  Uiso   1.00
O42    O     0.14092   0.16425   0.17207   0.00000  Uiso   1.00
O43    O     0.24152   0.17373   0.18161   0.00000  Uiso   1.00
C44    C     0.01039   0.23047   0.28893   0.00000  Uiso   1.00
C45    C     0.30484   0.25127   0.33647   0.00000  Uiso   1.00
C46    C     0.00319   0.30612   0.35524   0.00000  Uiso   1.00
H47    H     0.04938   0.30532   0.36338   0.00000  Uiso   1.00
H48    H     0.00782   0.00131   0.32644   0.00000  Uiso   1.00
H49    H     0.30887   0.31973   0.39050   0.00000  Uiso   1.00
H50    H     0.25867   0.25419   0.33175   0.00000  Uiso   1.00
H51    H     0.30007   0.22494   0.36658   0.00000  Uiso   1.00
H52    H     0.04912   0.22556   0.30517   0.00000  Uiso   1.00
H53    H     0.02280   0.26056   0.26101   0.00000  Uiso   1.00
C54    C     0.51491   0.26660   0.25174   0.00000  Uiso   1.00
C55    C     0.47600   0.13507   0.48171   0.00000  Uiso   1.00
C56    C     0.49571   0.13955   0.42914   0.00000  Uiso   1.00
C57    C     0.52018   0.15144   0.01513   0.00000  Uiso   1.00
C58    C     0.58280   0.16866   0.49486   0.00000  Uiso   1.00
C59    C     0.60136   0.16480   0.44331   0.00000  Uiso   1.00
C60    C     0.55906   0.14628   0.41129   0.00000  Uiso   1.00
C61    C     0.50453   0.15280   0.06786   0.00000  Uiso   1.00
C62    C     0.61075   0.18739   0.07802   0.00000  Uiso   1.00
C63    C     0.45140   0.13594   0.39652   0.00000  Uiso   1.00
C64    C     0.52293   0.32267   0.25368   0.00000  Uiso   1.00
C65    C     0.46769   0.15589   0.34513   0.00000  Uiso   1.00
C66    C     0.47826   0.01086   0.24462   0.00000  Uiso   1.00
C67    C     0.48542   0.06678   0.24762   0.00000  Uiso   1.00
C68    C     0.53223   0.16947   0.15361   0.00000  Uiso   1.00
C69    C     0.62714   0.18724   0.02618   0.00000  Uiso   1.00
C70    C     0.54961   0.16996   0.09903   0.00000  Uiso   1.00
C71    C     0.39079   0.11197   0.41356   0.00000  Uiso   1.00
C72    C     0.37256   0.09939   0.46355   0.00000  Uiso   1.00
C73    C     0.41361   0.11330   0.49802   0.00000  Uiso   1.00
Cu74   Cu    0.44043   0.16105   0.24436   0.00000  Uiso   1.00
Cu75   Cu    0.55957   0.17228   0.25564   0.00000  Uiso   1.00
H76    H     0.64590   0.20125   0.10162   0.00000  Uiso   1.00
H77    H     0.43608   0.32073   0.23416   0.00000  Uiso   1.00
H78    H     0.66135   0.12104   0.21564   0.00000  Uiso   1.00
H79    H     0.64918   0.17596   0.42758   0.00000  Uiso   1.00
H80    H     0.34148   0.20077   0.01047   0.00000  Uiso   1.00
H81    H     0.45766   0.14091   0.08550   0.00000  Uiso   1.00
H82    H     0.35720   0.10333   0.38822   0.00000  Uiso   1.00
H83    H     0.39567   0.10488   0.03665   0.00000  Uiso   1.00
H84    H     0.65877   0.08094   0.47626   0.00000  Uiso   1.00
H85    H     0.57789   0.13609   0.37288   0.00000  Uiso   1.00
H86    H     0.56585   0.01304   0.26307   0.00000  Uiso   1.00
N87    N     0.64908   0.18074   0.26416   0.00000  Uiso   1.00
N88    N     0.35092   0.15259   0.23584   0.00000  Uiso   1.00
O89    O     0.46131   0.23807   0.24633   0.00000  Uiso   1.00
O90    O     0.56191   0.24755   0.25587   0.00000  Uiso   1.00
O91    O     0.42515   0.15960   0.31840   0.00000  Uiso   1.00
O92    O     0.52575   0.16908   0.32793   0.00000  Uiso   1.00
O93    O     0.43809   0.08578   0.24413   0.00000  Uiso   1.00
O94    O     0.53869   0.09526   0.25367   0.00000  Uiso   1.00
O95    O     0.47425   0.16425   0.17207   0.00000  Uiso   1.00
O96    O     0.57485   0.17373   0.18161   0.00000  Uiso   1.00
C97    C     0.34372   0.23047   0.28893   0.00000  Uiso   1.00
C98    C     0.63817   0.25127   0.33647   0.00000  Uiso   1.00
C99    C     0.33652   0.30612   0.35524   0.00000  Uiso   1.00
H100   H     0.38272   0.30532   0.36338   0.00000  Uiso   1.00
H101   H     0.34115   0.00131   0.32644   0.00000  Uiso   1.00
H102   H     0.64220   0.31973   0.39050   0.00000  Uiso   1.00
H103   H     0.59201   0.25419   0.33175   0.00000  Uiso   1.00
H104   H     0.63340   0.22494   0.36658   0.00000  Uiso   1.00
H105   H     0.38246   0.22556   0.30517   0.00000  Uiso   1.00
H106   H     0.35613   0.26056   0.26101   0.00000  Uiso   1.00
C107   C     0.84824   0.26660   0.25174   0.00000  Uiso   1.00
C108   C     0.80933   0.13507   0.48171   0.00000  Uiso   1.00
C109   C     0.82904   0.13955   0.42914   0.00000  Uiso   1.00
C110   C     0.85351   0.15144   0.01513   0.00000  Uiso   1.00
C111   C     0.91613   0.16866   0.49486   0.00000  Uiso   1.00
C112   C     0.93469   0.16480   0.44331   0.00000  Uiso   1.00
C113   C     0.89239   0.14628   0.41129   0.00000  Uiso   1.00
C114   C     0.83786   0.15280   0.06786   0.00000  Uiso   1.00
C115   C     0.94408   0.18739   0.07802   0.00000  Uiso   1.00
C116   C     0.78473   0.13594   0.39652   0.00000  Uiso   1.00
C117   C     0.85627   0.32267   0.25368   0.00000  Uiso   1.00
C118   C     0.80103   0.15589   0.34513   0.00000  Uiso   1.00
C119   C     0.81159   0.01086   0.24462   0.00000  Uiso   1.00
C120   C     0.81876   0.06678   0.24762   0.00000  Uiso   1.00
C121   C     0.86557   0.16947   0.15361   0.00000  Uiso   1.00
C122   C     0.96047   0.18724   0.02618   0.00000  Uiso   1.00
C123   C     0.88294   0.16996   0.09903   0.00000  Uiso   1.00
C124   C     0.72413   0.11197   0.41356   0.00000  Uiso   1.00
C125   C     0.70590   0.09939   0.46355   0.00000  Uiso   1.00
C126   C     0.74694   0.11330   0.49802   0.00000  Uiso   1.00
Cu127  Cu    0.77377   0.16105   0.24436   0.00000  Uiso   1.00
Cu128  Cu    0.89290   0.17228   0.25564   0.00000  Uiso   1.00
H129   H     0.97923   0.20125   0.10162   0.00000  Uiso   1.00
H130   H     0.76942   0.32073   0.23416   0.00000  Uiso   1.00
H131   H     0.99469   0.12104   0.21564   0.00000  Uiso   1.00
H132   H     0.98251   0.17596   0.42758   0.00000  Uiso   1.00
H133   H     0.67481   0.20077   0.01047   0.00000  Uiso   1.00
H134   H     0.79099   0.14091   0.08550   0.00000  Uiso   1.00
H135   H     0.69053   0.10333   0.38822   0.00000  Uiso   1.00
H136   H     0.72900   0.10488   0.03665   0.00000  Uiso   1.00
H137   H     0.99211   0.08094   0.47626   0.00000  Uiso   1.00
H138   H     0.91123   0.13609   0.37288   0.00000  Uiso   1.00
H139   H     0.89918   0.01304   0.26307   0.00000  Uiso   1.00
N140   N     0.98241   0.18074   0.26416   0.00000  Uiso   1.00
N141   N     0.68426   0.15259   0.23584   0.00000  Uiso   1.00
O142   O     0.79464   0.23807   0.24633   0.00000  Uiso   1.00
O143   O     0.89524   0.24755   0.25587   0.00000  Uiso   1.00
O144   O     0.75848   0.15960   0.31840   0.00000  Uiso   1.00
O145   O     0.85908   0.16908   0.32793   0.00000  Uiso   1.00
O146   O     0.77142   0.08578   0.24413   0.00000  Uiso   1.00
O147   O     0.87203   0.09526   0.25367   0.00000  Uiso   1.00
O148   O     0.80758   0.16425   0.17207   0.00000  Uiso   1.00
O149   O     0.90819   0.17373   0.18161   0.00000  Uiso   1.00
C150   C     0.67705   0.23047   0.28893   0.00000  Uiso   1.00
C151   C     0.97151   0.25127   0.33647   0.00000  Uiso   1.00
C152   C     0.66986   0.30612   0.35524   0.00000  Uiso   1.00
H153   H     0.71605   0.30532   0.36338   0.00000  Uiso   1.00
H154   H     0.67448   0.00131   0.32644   0.00000  Uiso   1.00
H155   H     0.97553   0.31973   0.39050   0.00000  Uiso   1.00
H156   H     0.92534   0.25419   0.33175   0.00000  Uiso   1.00
H157   H     0.96674   0.22494   0.36658   0.00000  Uiso   1.00
H158   H     0.71579   0.22556   0.30517   0.00000  Uiso   1.00
H159   H     0.68947   0.26056   0.26101   0.00000  Uiso   1.00
C160   C     0.18158   0.59993   0.25174   0.00000  Uiso   1.00
C161   C     0.14267   0.46840   0.48171   0.00000  Uiso   1.00
C162   C     0.16238   0.47288   0.42914   0.00000  Uiso   1.00
C163   C     0.18685   0.48477   0.01513   0.00000  Uiso   1.00
C164   C     0.24946   0.50199   0.49486   0.00000  Uiso   1.00
C165   C     0.26802   0.49813   0.44331   0.00000  Uiso   1.00
C166   C     0.22573   0.47962   0.41129   0.00000  Uiso   1.00
C167   C     0.17120   0.48614   0.06786   0.00000  Uiso   1.00
C168   C     0.27742   0.52073   0.07802   0.00000  Uiso   1.00
C169   C     0.11806   0.46927   0.39652   0.00000  Uiso   1.00
C170   C     0.18960   0.65600   0.25368   0.00000  Uiso   1.00
C171   C     0.13436   0.48923   0.34513   0.00000  Uiso   1.00
C172   C     0.14492   0.34420   0.24462   0.00000  Uiso   1.00
C173   C     0.15209   0.40012   0.24762   0.00000  Uiso   1.00
C174   C     0.19890   0.50280   0.15361   0.00000  Uiso   1.00
C175   C     0.29380   0.52058   0.02618   0.00000  Uiso   1.00
C176   C     0.21628   0.50329   0.09903   0.00000  Uiso   1.00
C177   C     0.05746   0.44530   0.41356   0.00000  Uiso   1.00
C178   C     0.03923   0.43272   0.46355   0.00000  Uiso   1.00
C179   C     0.08028   0.44664   0.49802   0.00000  Uiso   1.00
Cu180  Cu    0.10710   0.49439   0.24436   0.00000  Uiso   1.00
Cu181  Cu    0.22623   0.50561   0.25564   0.00000  Uiso   1.00
H182   H     0.31256   0.53458   0.10162   0.00000  Uiso   1.00
H183   H     0.10275   0.65406   0.23416   0.00000  Uiso   1.00
H184   H     0.32802   0.45437   0.21564   0.00000  Uiso   1.00
H185   H     0.31584   0.50929   0.42758   0.00000  Uiso   1.00
H186   H     0.00814   0.53410   0.01047   0.00000  Uiso   1.00
H187   H     0.12433   0.47425   0.08550   0.00000  Uiso   1.00
H188   H     0.02386   0.43667   0.38822   0.00000  Uiso   1.00
H189   H     0.06234   0.43822   0.03665   0.00000  Uiso   1.00
H190   H     0.32544   0.41427   0.47626   0.00000  Uiso   1.00
H191   H     0.24456   0.46942   0.37288   0.00000  Uiso   1.00
H192   H     0.23251   0.34637   0.26307   0.00000  Uiso   1.00
N193   N     0.31574   0.51407   0.26416   0.00000  Uiso   1.00
N194   N     0.01759   0.48593   0.23584   0.00000  Uiso   1.00
O195   O     0.12797   0.57141   0.24633   0.00000  Uiso   1.00
O196   O     0.22858   0.58089   0.25587   0.00000  Uiso   1.00
O197   O     0.09181   0.49293   0.31840   0.00000  Uiso   1.00
O198   O     0.19242   0.50241   0.32793   0.00000  Uiso   1.00
O199   O     0.10476   0.41911   0.24413   0.00000  Uiso   1.00
O200   O     0.20536   0.42859   0.25367   0.00000  Uiso   1.00
O201   O     0.14092   0.49759   0.17207   0.00000  Uiso   1.00
O202   O     0.24152   0.50707   0.18161   0.00000  Uiso   1.00
C203   C     0.01039   0.56381   0.28893   0.00000  Uiso   1.00
C204   C     0.30484   0.58460   0.33647   0.00000  Uiso   1.00
C205   C     0.00319   0.63945   0.35524   0.00000  Uiso   1.00
H206   H     0.04938   0.63865   0.36338   0.00000  Uiso   1.00
H207   H     0.00782   0.33464   0.32644   0.00000  Uiso   1.00
H208   H     0.30887   0.65306   0.39050   0.00000  Uiso   1.00
H209   H     0.25867   0.58752   0.33175   0.00000  Uiso   1.00
H210   H     0.30007   0.55827   0.36658   0.00000  Uiso   1.00
H211   H     0.04912   0.55889   0.30517   0.00000  Uiso   1.00
H212   H     0.02280   0.59389   0.26101   0.00000  Uiso   1.00
C213   C     0.51491   0.59993   0.25174   0.00000  Uiso   1.00
C214   C     0.47600   0.46840   0.48171   0.00000  Uiso   1.00
C215   C     0.49571   0.47288   0.42914   0.00000  Uiso   1.00
C216   C     0.52018   0.48477   0.01513   0.00000  Uiso   1.00
C217   C     0.58280   0.50199   0.49486   0.00000  Uiso   1.00
C218   C     0.60136   0.49813   0.44331   0.00000  Uiso   1.00
C219   C     0.55906   0.47962   0.41129   0.00000  Uiso   1.00
C220   C     0.50453   0.48614   0.06786   0.00000  Uiso   1.00
C221   C     0.61075   0.52073   0.07802   0.00000  Uiso   1.00
C222   C     0.45140   0.46927   0.39652   0.00000  Uiso   1.00
C223   C     0.52293   0.65600   0.25368   0.00000  Uiso   1.00
C224   C     0.46769   0.48923   0.34513   0.00000  Uiso   1.00
C225   C     0.47826   0.34420   0.24462   0.00000  Uiso   1.00
C226   C     0.48542   0.40012   0.24762   0.00000  Uiso   1.00
C227   C     0.53223   0.50280   0.15361   0.00000  Uiso   1.00
C228   C     0.62714   0.52058   0.02618   0.00000  Uiso   1.00
C229   C     0.54961   0.50329   0.09903   0.00000  Uiso   1.00
C230   C     0.39079   0.44530   0.41356   0.00000  Uiso   1.00
C231   C     0.37256   0.43272   0.46355   0.00000  Uiso   1.00
C232   C     0.41361   0.44664   0.49802   0.00000  Uiso   1.00
Cu233  Cu    0.44043   0.49439   0.24436   0.00000  Uiso   1.00
Cu234  Cu    0.55957   0.50561   0.25564   0.00000  Uiso   1.00
H235   H     0.64590   0.53458   0.10162   0.00000  Uiso   1.00
H236   H     0.43608   0.65406   0.23416   0.00000  Uiso   1.00
H237   H     0.66135   0.45437   0.21564   0.00000  Uiso   1.00
H238   H     0.64918   0.50929   0.42758   0.00000  Uiso   1.00
H239   H     0.34148   0.53410   0.01047   0.00000  Uiso   1.00
H240   H     0.45766   0.47425   0.08550   0.00000  Uiso   1.00
H241   H     0.35720   0.43667   0.38822   0.00000  Uiso   1.00
H242   H     0.39567   0.43822   0.03665   0.00000  Uiso   1.00
H243   H     0.65877   0.41427   0.47626   0.00000  Uiso   1.00
H244   H     0.57789   0.46942   0.37288   0.00000  Uiso   1.00
H245   H     0.56585   0.34637   0.26307   0.00000  Uiso   1.00
N246   N     0.64908   0.51407   0.26416   0.00000  Uiso   1.00
N247   N     0.35092   0.48593   0.23584   0.00000  Uiso   1.00
O248   O     0.46131   0.57141   0.24633   0.00000  Uiso   1.00
O249   O     0.56191   0.58089   0.25587   0.00000  Uiso   1.00
O250   O     0.42515   0.49293   0.31840   0.00000  Uiso   1.00
O251   O     0.52575   0.50241   0.32793   0.00000  Uiso   1.00
O252   O     0.43809   0.41911   0.24413   0.00000  Uiso   1.00
O253   O     0.53869   0.42859   0.25367   0.00000  Uiso   1.00
O254   O     0.47425   0.49759   0.17207   0.00000  Uiso   1.00
O255   O     0.57485   0.50707   0.18161   0.00000  Uiso   1.00
C256   C     0.34372   0.56381   0.28893   0.00000  Uiso   1.00
C257   C     0.63817   0.58460   0.33647   0.00000  Uiso   1.00
C258   C     0.33652   0.63945   0.35524   0.00000  Uiso   1.00
H259   H     0.38272   0.63865   0.36338   0.00000  Uiso   1.00
H260   H     0.34115   0.33464   0.32644   0.00000  Uiso   1.00
H261   H     0.64220   0.65306   0.39050   0.00000  Uiso   1.00
H262   H     0.59201   0.58752   0.33175   0.00000  Uiso   1.00
H263   H     0.63340   0.55827   0.36658   0.00000  Uiso   1.00
H264   H     0.38246   0.55889   0.30517   0.00000  Uiso   1.00
H265   H     0.35613   0.59389   0.26101   0.00000  Uiso   1.00
C266   C     0.84824   0.59993   0.25174   0.00000  Uiso   1.00
C267   C     0.80933   0.46840   0.48171   0.00000  Uiso   1.00
C268   C     0.82904   0.47288   0.42914   0.00000  Uiso   1.00
C269   C     0.85351   0.48477   0.01513   0.00000  Uiso   1.00
C270   C     0.91613   0.50199   0.49486   0.00000  Uiso   1.00
C271   C     0.93469   0.49813   0.44331   0.00000  Uiso   1.00
C272   C     0.89239   0.47962   0.41129   0.00000  Uiso   1.00
C273   C     0.83786   0.48614   0.06786   0.00000  Uiso   1.00
C274   C     0.94408   0.52073   0.07802   0.00000  Uiso   1.00
C275   C     0.78473   0.46927   0.39652   0.00000  Uiso   1.00
C276   C     0.85627   0.65600   0.25368   0.00000  Uiso   1.00
C277   C     0.80103   0.48923   0.34513   0.00000  Uiso   1.00
C278   C     0.81159   0.34420   0.24462   0.00000  Uiso   1.00
C279   C     0.81876   0.40012   0.24762   0.00000  Uiso   1.00
C280   C     0.86557   0.50280   0.15361   0.00000  Uiso   1.00
C281   C     0.96047   0.52058   0.02618   0.00000  Uiso   1.00
C282   C     0.88294   0.50329   0.09903   0.00000  Uiso   1.00
C283   C     0.72413   0.44530   0.41356   0.00000  Uiso   1.00
C284   C     0.70590   0.43272   0.46355   0.00000  Uiso   1.00
C285   C     0.74694   0.44664   0.49802   0.00000  Uiso   1.00
Cu286  Cu    0.77377   0.49439   0.24436   0.00000  Uiso   1.00
Cu287  Cu    0.89290   0.50561   0.25564   0.00000  Uiso   1.00
H288   H     0.97923   0.53458   0.10162   0.00000  Uiso   1.00
H289   H     0.76942   0.65406   0.23416   0.00000  Uiso   1.00
H290   H     0.99469   0.45437   0.21564   0.00000  Uiso   1.00
H291   H     0.98251   0.50929   0.42758   0.00000  Uiso   1.00
H292   H     0.67481   0.53410   0.01047   0.00000  Uiso   1.00
H293   H     0.79099   0.47425   0.08550   0.00000  Uiso   1.00
H294   H     0.69053   0.43667   0.38822   0.00000  Uiso   1.00
H295   H     0.72900   0.43822   0.03665   0.00000  Uiso   1.00
H296   H     0.99211   0.41427   0.47626   0.00000  Uiso   1.00
H297   H     0.91123   0.46942   0.37288   0.00000  Uiso   1.00
H298   H     0.89918   0.34637   0.26307   0.00000  Uiso   1.00
N299   N     0.98241   0.51407   0.26416   0.00000  Uiso   1.00
N300   N     0.68426   0.48593   0.23584   0.00000  Uiso   1.00
O301   O     0.79464   0.57141   0.24633   0.00000  Uiso   1.00
O302   O     0.89524   0.58089   0.25587   0.00000  Uiso   1.00
O303   O     0.75848   0.49293   0.31840   0.00000  Uiso   1.00
O304   O     0.85908   0.50241   0.32793   0.00000  Uiso   1.00
O305   O     0.77142   0.41911   0.24413   0.00000  Uiso   1.00
O306   O     0.87203   0.42859   0.25367   0.00000  Uiso   1.00
O307   O     0.80758   0.49759   0.17207   0.00000  Uiso   1.00
O308   O     0.90819   0.50707   0.18161   0.00000  Uiso   1.00
C309   C     0.67705   0.56381   0.28893   0.00000  Uiso   1.00
C310   C     0.97151   0.58460   0.33647   0.00000  Uiso   1.00
C311   C     0.66986   0.63945   0.35524   0.00000  Uiso   1.00
H312   H     0.71605   0.63865   0.36338   0.00000  Uiso   1.00
H313   H     0.67448   0.33464   0.32644   0.00000  Uiso   1.00
H314   H     0.97553   0.65306   0.39050   0.00000  Uiso   1.00
H315   H     0.92534   0.58752   0.33175   0.00000  Uiso   1.00
H316   H     0.96674   0.55827   0.36658   0.00000  Uiso   1.00
H317   H     0.71579   0.55889   0.30517   0.00000  Uiso   1.00
H318   H     0.68947   0.59389   0.26101   0.00000  Uiso   1.00
C319   C     0.18158   0.93326   0.25174   0.00000  Uiso   1.00
C320   C     0.14267   0.80173   0.48171   0.00000  Uiso   1.00
C321   C     0.16238   0.80622   0.42914   0.00000  Uiso   1.00
C322   C     0.18685   0.81811   0.01513   0.00000  Uiso   1.00
C323   C     0.24946   0.83532   0.49486   0.00000  Uiso   1.00
C324   C     0.26802   0.83146   0.44331   0.00000  Uiso   1.00
C325   C     0.22573   0.81295   0.41129   0.00000  Uiso   1.00
C326   C     0.17120   0.81947   0.06786   0.00000  Uiso   1.00
C327   C     0.27742   0.85406   0.07802   0.00000  Uiso   1.00
C328   C     0.11806   0.80261   0.39652   0.00000  Uiso   1.00
C329   C     0.18960   0.98933   0.25368   0.00000  Uiso   1.00
C330   C     0.13436   0.82256   0.34513   0.00000  Uiso   1.00
C331   C     0.14492   0.67753   0.24462   0.00000  Uiso   1.00
C332   C     0.15209   0.73345   0.24762   0.00000  Uiso   1.00
C333   C     0.19890   0.83614   0.15361   0.00000  Uiso   1.00
C334   C     0.29380   0.85391   0.02618   0.00000  Uiso   1.00
C335   C     0.21628   0.83662   0.09903   0.00000  Uiso   1.00
C336   C     0.05746   0.77864   0.41356   0.00000  Uiso   1.00
C337   C     0.03923   0.76605   0.46355   0.00000  Uiso   1.00
C338   C     0.08028   0.77997   0.49802   0.00000  Uiso   1.00
Cu339  Cu    0.10710   0.82772   0.24436   0.00000  Uiso   1.00
Cu340  Cu    0.22623   0.83895   0.25564   0.00000  Uiso   1.00
H341   H     0.31256   0.86792   0.10162   0.00000  Uiso   1.00
H342   H     0.10275   0.98739   0.23416   0.00000  Uiso   1.00
H343   H     0.32802   0.78770   0.21564   0.00000  Uiso   1.00
H344   H     0.31584   0.84262   0.42758   0.00000  Uiso   1.00
H345   H     0.00814   0.86743   0.01047   0.00000  Uiso   1.00
H346   H     0.12433   0.80758   0.08550   0.00000  Uiso   1.00
H347   H     0.02386   0.77000   0.38822   0.00000  Uiso   1.00
H348   H     0.06234   0.77155   0.03665   0.00000  Uiso   1.00
H349   H     0.32544   0.74761   0.47626   0.00000  Uiso   1.00
H350   H     0.24456   0.80275   0.37288   0.00000  Uiso   1.00
H351   H     0.23251   0.67971   0.26307   0.00000  Uiso   1.00
N352   N     0.31574   0.84741   0.26416   0.00000  Uiso   1.00
N353   N     0.01759   0.81926   0.23584   0.00000  Uiso   1.00
O354   O     0.12797   0.90474   0.24633   0.00000  Uiso   1.00
O355   O     0.22858   0.91422   0.25587   0.00000  Uiso   1.00
O356   O     0.09181   0.82627   0.31840   0.00000  Uiso   1.00
O357   O     0.19242   0.83575   0.32793   0.00000  Uiso   1.00
O358   O     0.10476   0.75245   0.24413   0.00000  Uiso   1.00
O359   O     0.20536   0.76193   0.25367   0.00000  Uiso   1.00
O360   O     0.14092   0.83092   0.17207   0.00000  Uiso   1.00
O361   O     0.24152   0.84040   0.18161   0.00000  Uiso   1.00
C362   C     0.01039   0.89714   0.28893   0.00000  Uiso   1.00
C363   C     0.30484   0.91793   0.33647   0.00000  Uiso   1.00
C364   C     0.00319   0.97278   0.35524   0.00000  Uiso   1.00
H365   H     0.04938   0.97199   0.36338   0.00000  Uiso   1.00
H366   H     0.00782   0.66798   0.32644   0.00000  Uiso   1.00
H367   H     0.30887   0.98640   0.39050   0.00000  Uiso   1.00
H368   H     0.25867   0.92086   0.33175   0.00000  Uiso   1.00
H369   H     0.30007   0.89160   0.36658   0.00000  Uiso   1.00
H370   H     0.04912   0.89223   0.30517   0.00000  Uiso   1.00
H371   H     0.02280   0.92722   0.26101   0.00000  Uiso   1.00
C372   C     0.51491   0.93326   0.25174   0.00000  Uiso   1.00
C373   C     0.47600   0.80173   0.48171   0.00000  Uiso   1.00
C374   C     0.49571   0.80622   0.42914   0.00000  Uiso   1.00
C375   C     0.52018   0.81811   0.01513   0.00000  Uiso   1.00
C376   C     0.58280   0.83532   0.49486   0.00000  Uiso   1.00
C377   C     0.60136   0.83146   0.44331   0.00000  Uiso   1.00
C378   C     0.55906   0.81295   0.41129   0.00000  Uiso   1.00
C379   C     0.50453   0.81947   0.06786   0.00000  Uiso   1.00
C380   C     0.61075   0.85406   0.07802   0.00000  Uiso   1.00
C381   C     0.45140   0.80261   0.39652   0.00000  Uiso   1.00
C382   C     0.52293   0.98933   0.25368   0.00000  Uiso   1.00
C383   C     0.46769   0.82256   0.34513   0.00000  Uiso   1.00
C384   C     0.47826   0.67753   0.24462   0.00000  Uiso   1.00
C385   C     0.48542   0.73345   0.24762   0.00000  Uiso   1.00
C386   C     0.53223   0.83614   0.15361   0.00000  Uiso   1.00
C387   C     0.62714   0.85391   0.02618   0.00000  Uiso   1.00
C388   C     0.54961   0.83662   0.09903   0.00000  Uiso   1.00
C389   C     0.39079   0.77864   0.41356   0.00000  Uiso   1.00
C390   C     0.37256   0.76605   0.46355   0.00000  Uiso   1.00
C391   C     0.41361   0.77997   0.49802   0.00000  Uiso   1.00
Cu392  Cu    0.44043   0.82772   0.24436   0.00000  Uiso   1.00
Cu393  Cu    0.55957   0.83895   0.25564   0.00000  Uiso   1.00
H394   H     0.64590   0.86792   0.10162   0.00000  Uiso   1.00
H395   H     0.43608   0.98739   0.23416   0.00000  Uiso   1.00
H396   H     0.66135   0.78770   0.21564   0.00000  Uiso   1.00
H397   H     0.64918   0.84262   0.42758   0.00000  Uiso   1.00
H398   H     0.34148   0.86743   0.01047   0.00000  Uiso   1.00
H399   H     0.45766   0.80758   0.08550   0.00000  Uiso   1.00
H400   H     0.35720   0.77000   0.38822   0.00000  Uiso   1.00
H401   H     0.39567   0.77155   0.03665   0.00000  Uiso   1.00
H402   H     0.65877   0.74761   0.47626   0.00000  Uiso   1.00
H403   H     0.57789   0.80275   0.37288   0.00000  Uiso   1.00
H404   H     0.56585   0.67971   0.26307   0.00000  Uiso   1.00
N405   N     0.64908   0.84741   0.26416   0.00000  Uiso   1.00
N406   N     0.35092   0.81926   0.23584   0.00000  Uiso   1.00
O407   O     0.46131   0.90474   0.24633   0.00000  Uiso   1.00
O408   O     0.56191   0.91422   0.25587   0.00000  Uiso   1.00
O409   O     0.42515   0.82627   0.31840   0.00000  Uiso   1.00
O410   O     0.52575   0.83575   0.32793   0.00000  Uiso   1.00
O411   O     0.43809   0.75245   0.24413   0.00000  Uiso   1.00
O412   O     0.53869   0.76193   0.25367   0.00000  Uiso   1.00
O413   O     0.47425   0.83092   0.17207   0.00000  Uiso   1.00
O414   O     0.57485   0.84040   0.18161   0.00000  Uiso   1.00
C415   C     0.34372   0.89714   0.28893   0.00000  Uiso   1.00
C416   C     0.63817   0.91793   0.33647   0.00000  Uiso   1.00
C417   C     0.33652   0.97278   0.35524   0.00000  Uiso   1.00
H418   H     0.38272   0.97199   0.36338   0.00000  Uiso   1.00
H419   H     0.34115   0.66798   0.32644   0.00000  Uiso   1.00
H420   H     0.64220   0.98640   0.39050   0.00000  Uiso   1.00
H421   H     0.59201   0.92086   0.33175   0.00000  Uiso   1.00
H422   H     0.63340   0.89160   0.36658   0.00000  Uiso   1.00
H423   H     0.38246   0.89223   0.30517   0.00000  Uiso   1.00
H424   H     0.35613   0.92722   0.26101   0.00000  Uiso   1.00
C425   C     0.84824   0.93326   0.25174   0.00000  Uiso   1.00
C426   C     0.80933   0.80173   0.48171   0.00000  Uiso   1.00
C427   C     0.82904   0.80622   0.42914   0.00000  Uiso   1.00
C428   C     0.85351   0.81811   0.01513   0.00000  Uiso   1.00
C429   C     0.91613   0.83532   0.49486   0.00000  Uiso   1.00
C430   C     0.93469   0.83146   0.44331   0.00000  Uiso   1.00
C431   C     0.89239   0.81295   0.41129   0.00000  Uiso   1.00
C432   C     0.83786   0.81947   0.06786   0.00000  Uiso   1.00
C433   C     0.94408   0.85406   0.07802   0.00000  Uiso   1.00
C434   C     0.78473   0.80261   0.39652   0.00000  Uiso   1.00
C435   C     0.85627   0.98933   0.25368   0.00000  Uiso   1.00
C436   C     0.80103   0.82256   0.34513   0.00000  Uiso   1.00
C437   C     0.81159   0.67753   0.24462   0.00000  Uiso   1.00
C438   C     0.81876   0.73345   0.24762   0.00000  Uiso   1.00
C439   C     0.86557   0.83614   0.15361   0.00000  Uiso   1.00
C440   C     0.96047   0.85391   0.02618   0.00000  Uiso   1.00
C441   C     0.88294   0.83662   0.09903   0.00000  Uiso   1.00
C442   C     0.72413   0.77864   0.41356   0.00000  Uiso   1.00
C443   C     0.70590   0.76605   0.46355   0.00000  Uiso   1.00
C444   C     0.74694   0.77997   0.49802   0.00000  Uiso   1.00
Cu445  Cu    0.77377   0.82772   0.24436   0.00000  Uiso   1.00
Cu446  Cu    0.89290   0.83895   0.25564   0.00000  Uiso   1.00
H447   H     0.97923   0.86792   0.10162   0.00000  Uiso   1.00
H448   H     0.76942   0.98739   0.23416   0.00000  Uiso   1.00
H449   H     0.99469   0.78770   0.21564   0.00000  Uiso   1.00
H450   H     0.98251   0.84262   0.42758   0.00000  Uiso   1.00
H451   H     0.67481   0.86743   0.01047   0.00000  Uiso   1.00
H452   H     0.79099   0.80758   0.08550   0.00000  Uiso   1.00
H453   H     0.69053   0.77000   0.38822   0.00000  Uiso   1.00
H454   H     0.72900   0.77155   0.03665   0.00000  Uiso   1.00
H455   H     0.99211   0.74761   0.47626   0.00000  Uiso   1.00
H456   H     0.91123   0.80275   0.37288   0.00000  Uiso   1.00
H457   H     0.89918   0.67971   0.26307   0.00000  Uiso   1.00
N458   N     0.98241   0.84741   0.26416   0.00000  Uiso   1.00
N459   N     0.68426   0.81926   0.23584   0.00000  Uiso   1.00
O460   O     0.79464   0.90474   0.24633   0.00000  Uiso   1.00
O461   O     0.89524   0.91422   0.25587   0.00000  Uiso   1.00
O462   O     0.75848   0.82627   0.31840   0.00000  Uiso   1.00
O463   O     0.85908   0.83575   0.32793   0.00000  Uiso   1.00
O464   O     0.77142   0.75245   0.24413   0.00000  Uiso   1.00
O465   O     0.87203   0.76193   0.25367   0.00000  Uiso   1.00
O466   O     0.80758   0.83092   0.17207   0.00000  Uiso   1.00
O467   O     0.90819   0.84040   0.18161   0.00000  Uiso   1.00
C468   C     0.67705   0.89714   0.28893   0.00000  Uiso   1.00
C469   C     0.97151   0.91793   0.33647   0.00000  Uiso   1.00
C470   C     0.66986   0.97278   0.35524   0.00000  Uiso   1.00
H471   H     0.71605   0.97199   0.36338   0.00000  Uiso   1.00
H472   H     0.67448   0.66798   0.32644   0.00000  Uiso   1.00
H473   H     0.97553   0.98640   0.39050   0.00000  Uiso   1.00
H474   H     0.92534   0.92086   0.33175   0.00000  Uiso   1.00
H475   H     0.96674   0.89160   0.36658   0.00000  Uiso   1.00
H476   H     0.71579   0.89223   0.30517   0.00000  Uiso   1.00
H477   H     0.68947   0.92722   0.26101   0.00000  Uiso   1.00
C478   C     0.18158   0.26660   0.75174   0.00000  Uiso   1.00
C479   C     0.14267   0.13507   0.98171   0.00000  Uiso   1.00
C480   C     0.16238   0.13955   0.92914   0.00000  Uiso   1.00
C481   C     0.18685   0.15144   0.51513   0.00000  Uiso   1.00
C482   C     0.24946   0.16866   0.99486   0.00000  Uiso   1.00
C483   C     0.26802   0.16480   0.94331   0.00000  Uiso   1.00
C484   C     0.22573   0.14628   0.91129   0.00000  Uiso   1.00
C485   C     0.17120   0.15280   0.56786   0.00000  Uiso   1.00
C486   C     0.27742   0.18739   0.57802   0.00000  Uiso   1.00
C487   C     0.11806   0.13594   0.89652   0.00000  Uiso   1.00
C488   C     0.18960   0.32267   0.75368   0.00000  Uiso   1.00
C489   C     0.13436   0.15589   0.84513   0.00000  Uiso   1.00
C490   C     0.14492   0.01086   0.74462   0.00000  Uiso   1.00
C491   C     0.15209   0.06678   0.74762   0.00000  Uiso   1.00
C492   C     0.19890   0.16947   0.65361   0.00000  Uiso   1.00
C493   C     0.29380   0.18724   0.52618   0.00000  Uiso   1.00
C494   C     0.21628   0.16996   0.59903   0.00000  Uiso   1.00
C495   C     0.05746   0.11197   0.91356   0.00000  Uiso   1.00
C496   C     0.03923   0.09939   0.96355   0.00000  Uiso   1.00
C497   C     0.08028   0.11330   0.99802   0.00000  Uiso   1.00
Cu498  Cu    0.10710   0.16105   0.74436   0.00000  Uiso   1.00
Cu499  Cu    0.22623   0.17228   0.75564   0.00000  Uiso   1.00
H500   H     0.31256   0.20125   0.60162   0.00000  Uiso   1.00
H501   H     0.10275   0.32073   0.73416   0.00000  Uiso   1.00
H502   H     0.32802   0.12104   0.71564   0.00000  Uiso   1.00
H503   H     0.31584   0.17596   0.92758   0.00000  Uiso   1.00
H504   H     0.00814   0.20077   0.51047   0.00000  Uiso   1.00
H505   H     0.12433   0.14091   0.58550   0.00000  Uiso   1.00
H506   H     0.02386   0.10333   0.88822   0.00000  Uiso   1.00
H507   H     0.06234   0.10488   0.53665   0.00000  Uiso   1.00
H508   H     0.32544   0.08094   0.97626   0.00000  Uiso   1.00
H509   H     0.24456   0.13609   0.87288   0.00000  Uiso   1.00
H510   H     0.23251   0.01304   0.76307   0.00000  Uiso   1.00
N511   N     0.31574   0.18074   0.76416   0.00000  Uiso   1.00
N512   N     0.01759   0.15259   0.73584   0.00000  Uiso   1.00
O513   O     0.12797   0.23807   0.74633   0.00000  Uiso   1.00
O514   O     0.22858   0.24755   0.75587   0.00000  Uiso   1.00
O515   O     0.09181   0.15960   0.81840   0.00000  Uiso   1.00
O516   O     0.19242   0.16908   0.82793   0.00000  Uiso   1.00
O517   O     0.10476   0.08578   0.74413   0.00000  Uiso   1.00
O518   O     0.20536   0.09526   0.75367   0.00000  Uiso   1.00
O519   O     0.14092   0.16425   0.67207   0.00000  Uiso   1.00
O520   O     0.24152   0.17373   0.68161   0.00000  Uiso   1.00
C521   C     0.01039   0.23047   0.78893   0.00000  Uiso   1.00
C522   C     0.30484   0.25127   0.83647   0.00000  Uiso   1.00
C523   C     0.00319   0.30612   0.85524   0.00000  Uiso   1.00
H524   H     0.04938   0.30532   0.86338   0.00000  Uiso   1.00
H525   H     0.00782   0.00131   0.82644   0.00000  Uiso   1.00
H526   H     0.30887   0.31973   0.89050   0.00000  Uiso   1.00
H527   H     0.25867   0.25419   0.83175   0.00000  Uiso   1.00
H528   H     0.30007   0.22494   0.86658   0.00000  Uiso   1.00
H529   H     0.04912   0.22556   0.80517   0.00000  Uiso   1.00
H530   H     0.02280   0.26056   0.76101   0.00000  Uiso   1.00
C531   C     0.51491   0.26660   0.75174   0.00000  Uiso   1.00
C532   C     0.47600   0.13507   0.98171   0.00000  Uiso   1.00
C533   C     0.49571   0.13955   0.92914   0.00000  Uiso   1.00
C534   C     0.52018   0.15144   0.51513   0.00000  Uiso   1.00
C535   C     0.58280   0.16866   0.99486   0.00000  Uiso   1.00
C536   C     0.60136   0.16480   0.94331   0.00000  Uiso   1.00
C537   C     0.55906   0.14628   0.91129   0.00000  Uiso   1.00
C538   C     0.50453   0.15280   0.56786   0.00000  Uiso   1.00
C539   C     0.61075   0.18739   0.57802   0.00000  Uiso   1.00
C540   C     0.45140   0.13594   0.89652   0.00000  Uiso   1.00
C541   C     0.52293   0.32267   0.75368   0.00000  Uiso   1.00
C542   C     0.46769   0.15589   0.84513   0.00000  Uiso   1.00
C543   C     0.47826   0.01086   0.74462   0.00000  Uiso   1.00
C544   C     0.48542   0.06678   0.74762   0.00000  Uiso   1.00
C545   C     0.53223   0.16947   0.65361   0.00000  Uiso   1.00
C546   C     0.62714   0.18724   0.52618   0.00000  Uiso   1.00
C547   C     0.54961   0.16996   0.59903   0.00000  Uiso   1.00
C548   C     0.39079   0.11197   0.91356   0.00000  Uiso   1.00
C549   C     0.37256   0.09939   0.96355   0.00000  Uiso   1.00
C550   C     0.41361   0.11330   0.99802   0.00000  Uiso   1.00
Cu551  Cu    0.44043   0.16105   0.74436   0.00000  Uiso   1.00
Cu552  Cu    0.55957   0.17228   0.75564   0.00000  Uiso   1.00
H553   H     0.64590   0.20125   0.60162   0.00000  Uiso   1.00
H554   H     0.43608   0.32073   0.73416   0.00000  Uiso   1.00
H555   H     0.66135   0.12104   0.71564   0.00000  Uiso   1.00
H556   H     0.64918   0.17596   0.92758   0.00000  Uiso   1.00
H557   H     0.34148   0.20077   0.51047   0.00000  Uiso   1.00
H558   H     0.45766   0.14091   0.58550   0.00000  Uiso   1.00
H559   H     0.35720   0.10333   0.88822   0.00000  Uiso   1.00
H560   H     0.39567   0.10488   0.53665   0.00000  Uiso   1.00
H561   H     0.65877   0.08094   0.97626   0.00000  Uiso   1.00
H562   H     0.57789   0.13609   0.87288   0.00000  Uiso   1.00
H563   H     0.56585   0.01304   0.76307   0.00000  Uiso   1.00
N564   N     0.64908   0.18074   0.76416   0.00000  Uiso   1.00
N565   N     0.35092   0.15259   0.73584   0.00000  Uiso   1.00
O566   O     0.46131   0.23807   0.74633   0.00000  Uiso   1.00
O567   O     0.56191   0.24755   0.75587   0.00000  Uiso   1.00
O568   O     0.42515   0.15960   0.81840   0.00000  Uiso   1.00
O569   O     0.52575   0.16908   0.82793   0.00000  Uiso   1.00
O570   O     0.43809   0.08578   0.74413   0.00000  Uiso   1.00
O571   O     0.53869   0.09526   0.75367   0.00000  Uiso   1.00
O572   O     0.47425   0.16425   0.67207   0.00000  Uiso   1.00
O573   O     0.57485   0.17373   0.68161   0.00000  Uiso   1.00
C574   C     0.34372   0.23047   0.78893   0.00000  Uiso   1.00
C575   C     0.63817   0.25127   0.83647   0.00000  Uiso   1.00
C576   C     0.33652   0.30612   0.85524   0.00000  Uiso   1.00
H577   H     0.38272   0.30532   0.86338   0.00000  Uiso   1.00
H578   H     0.34115   0.00131   0.82644   0.00000  Uiso   1.00
H579   H     0.64220   0.31973   0.89050   0.00000  Uiso   1.00
H580   H     0.59201   0.25419   0.83175   0.00000  Uiso   1.00
H581   H     0.63340   0.22494   0.86658   0.00000  Uiso   1.00
H582   H     0.38246   0.22556   0.80517   0.00000  Uiso   1.00
H583   H     0.35613   0.26056   0.76101   0.00000  Uiso   1.00
C584   C     0.84824   0.26660   0.75174   0.00000  Uiso   1.00
C585   C     0.80933   0.13507   0.98171   0.00000  Uiso   1.00
C586   C     0.82904   0.13955   0.92914   0.00000  Uiso   1.00
C587   C     0.85351   0.15144   0.51513   0.00000  Uiso   1.00
C588   C     0.91613   0.16866   0.99486   0.00000  Uiso   1.00
C589   C     0.93469   0.16480   0.94331   0.00000  Uiso   1.00
C590   C     0.89239   0.14628   0.91129   0.00000  Uiso   1.00
C591   C     0.83786   0.15280   0.56786   0.00000  Uiso   1.00
C592   C     0.94408   0.18739   0.57802   0.00000  Uiso   1.00
C593   C     0.78473   0.13594   0.89652   0.00000  Uiso   1.00
C594   C     0.85627   0.32267   0.75368   0.00000  Uiso   1.00
C595   C     0.80103   0.15589   0.84513   0.00000  Uiso   1.00
C596   C     0.81159   0.01086   0.74462   0.00000  Uiso   1.00
C597   C     0.81876   0.06678   0.74762   0.00000  Uiso   1.00
C598   C     0.86557   0.16947   0.65361   0.00000  Uiso   1.00
C599   C     0.96047   0.18724   0.52618   0.00000  Uiso   1.00
C600   C     0.88294   0.16996   0.59903   0.00000  Uiso   1.00
C601   C     0.72413   0.11197   0.91356   0.00000  Uiso   1.00
C602   C     0.70590   0.09939   0.96355   0.00000  Uiso   1.00
C603   C     0.74694   0.11330   0.99802   0.00000  Uiso   1.00
Cu604  Cu    0.77377   0.16105   0.74436   0.00000  Uiso   1.00
Cu605  Cu    0.89290   0.17228   0.75564   0.00000  Uiso   1.00
H606   H     0.97923   0.20125   0.60162   0.00000  Uiso   1.00
H607   H     0.76942   0.32073   0.73416   0.00000  Uiso   1.00
H608   H     0.99469   0.12104   0.71564   0.00000  Uiso   1.00
H609   H     0.98251   0.17596   0.92758   0.00000  Uiso   1.00
H610   H     0.67481   0.20077   0.51047   0.00000  Uiso   1.00
H611   H     0.79099   0.14091   0.58550   0.00000  Uiso   1.00
H612   H     0.69053   0.10333   0.88822   0.00000  Uiso   1.00
H613   H     0.72900   0.10488   0.53665   0.00000  Uiso   1.00
H614   H     0.99211   0.08094   0.97626   0.00000  Uiso   1.00
H615   H     0.91123   0.13609   0.87288   0.00000  Uiso   1.00
H616   H     0.89918   0.01304   0.76307   0.00000  Uiso   1.00
N617   N     0.98241   0.18074   0.76416   0.00000  Uiso   1.00
N618   N     0.68426   0.15259   0.73584   0.00000  Uiso   1.00
O619   O     0.79464   0.23807   0.74633   0.00000  Uiso   1.00
O620   O     0.89524   0.24755   0.75587   0.00000  Uiso   1.00
O621   O     0.75848   0.15960   0.81840   0.00000  Uiso   1.00
O622   O     0.85908   0.16908   0.82793   0.00000  Uiso   1.00
O623   O     0.77142   0.08578   0.74413   0.00000  Uiso   1.00
O624   O     0.87203   0.09526   0.75367   0.00000  Uiso   1.00
O625   O     0.80758   0.16425   0.67207   0.00000  Uiso   1.00
O626   O     0.90819   0.17373   0.68161   0.00000  Uiso   1.00
C627   C     0.67705   0.23047   0.78893   0.00000  Uiso   1.00
C628   C     0.97151   0.25127   0.83647   0.00000  Uiso   1.00
C629   C     0.66986   0.30612   0.85524   0.00000  Uiso   1.00
H630   H     0.71605   0.30532   0.86338   0.00000  Uiso   1.00
H631   H     0.67448   0.00131   0.82644   0.00000  Uiso   1.00
H632   H     0.97553   0.31973   0.89050   0.00000  Uiso   1.00
H633   H     0.92534   0.25419   0.83175   0.00000  Uiso   1.00
H634   H     0.96674   0.22494   0.86658   0.00000  Uiso   1.00
H635   H     0.71579   0.22556   0.80517   0.00000  Uiso   1.00
H636   H     0.68947   0.26056   0.76101   0.00000  Uiso   1.00
C637   C     0.18158   0.59993   0.75174   0.00000  Uiso   1.00
C638   C     0.14267   0.46840   0.98171   0.00000  Uiso   1.00
C639   C     0.16238   0.47288   0.92914   0.00000  Uiso   1.00
C640   C     0.18685   0.48477   0.51513   0.00000  Uiso   1.00
C641   C     0.24946   0.50199   0.99486   0.00000  Uiso   1.00
C642   C     0.26802   0.49813   0.94331   0.00000  Uiso   1.00
C643   C     0.22573   0.47962   0.91129   0.00000  Uiso   1.00
C644   C     0.17120   0.48614   0.56786   0.00000  Uiso   1.00
C645   C     0.27742   0.52073   0.57802   0.00000  Uiso   1.00
C646   C     0.11806   0.46927   0.89652   0.00000  Uiso   1.00
C647   C     0.18960   0.65600   0.75368   0.00000  Uiso   1.00
C648   C     0.13436   0.48923   0.84513   0.00000  Uiso   1.00
C649   C     0.14492   0.34420   0.74462   0.00000  Uiso   1.00
C650   C     0.15209   0.40012   0.74762   0.00000  Uiso   1.00
C651   C     0.19890   0.50280   0.65361   0.00000  Uiso   1.00
C652   C     0.29380   0.52058   0.52618   0.00000  Uiso   1.00
C653   C     0.21628   0.50329   0.59903   0.00000  Uiso   1.00
C654   C     0.05746   0.44530   0.91356   0.00000  Uiso   1.00
C655   C     0.03923   0.43272   0.96355   0.00000  Uiso   1.00
C656   C     0.08028   0.44664   0.99802   0.00000  Uiso   1.00
Cu657  Cu    0.10710   0.49439   0.74436   0.00000  Uiso   1.00
Cu658  Cu    0.22623   0.50561   0.75564   0.00000  Uiso   1.00
H659   H     0.31256   0.53458   0.60162   0.00000  Uiso   1.00
H660   H     0.10275   0.65406   0.73416   0.00000  Uiso   1.00
H661   H     0.32802   0.45437   0.71564   0.00000  Uiso   1.00
H662   H     0.31584   0.50929   0.92758   0.00000  Uiso   1.00
H663   H     0.00814   0.53410   0.51047   0.00000  Uiso   1.00
H664   H     0.12433   0.47425   0.58550   0.00000  Uiso   1.00
H665   H     0.02386   0.43667   0.88822   0.00000  Uiso   1.00
H666   H     0.06234   0.43822   0.53665   0.00000  Uiso   1.00
H667   H     0.32544   0.41427   0.97626   0.00000  Uiso   1.00
H668   H     0.24456   0.46942   0.87288   0.00000  Uiso   1.00
H669   H     0.23251   0.34637   0.76307   0.00000  Uiso   1.00
N670   N     0.31574   0.51407   0.76416   0.00000  Uiso   1.00
N671   N     0.01759   0.48593   0.73584   0.00000  Uiso   1.00
O672   O     0.12797   0.57141   0.74633   0.00000  Uiso   1.00
O673   O     0.22858   0.58089   0.75587   0.00000  Uiso   1.00
O674   O     0.09181   0.49293   0.81840   0.00000  Uiso   1.00
O675   O     0.19242   0.50241   0.82793   0.00000  Uiso   1.00
O676   O     0.10476   0.41911   0.74413   0.00000  Uiso   1.00
O677   O     0.20536   0.42859   0.75367   0.00000  Uiso   1.00
O678   O     0.14092   0.49759   0.67207   0.00000  Uiso   1.00
O679   O     0.24152   0.50707   0.68161   0.00000  Uiso   1.00
C680   C     0.01039   0.56381   0.78893   0.00000  Uiso   1.00
C681   C     0.30484   0.58460   0.83647   0.00000  Uiso   1.00
C682   C     0.00319   0.63945   0.85524   0.00000  Uiso   1.00
H683   H     0.04938   0.63865   0.86338   0.00000  Uiso   1.00
H684   H     0.00782   0.33464   0.82644   0.00000  Uiso   1.00
H685   H     0.30887   0.65306   0.89050   0.00000  Uiso   1.00
H686   H     0.25867   0.58752   0.83175   0.00000  Uiso   1.00
H687   H     0.30007   0.55827   0.86658   0.00000  Uiso   1.00
H688   H     0.04912   0.55889   0.80517   0.00000  Uiso   1.00
H689   H     0.02280   0.59389   0.76101   0.00000  Uiso   1.00
C690   C     0.51491   0.59993   0.75174   0.00000  Uiso   1.00
C691   C     0.47600   0.46840   0.98171   0.00000  Uiso   1.00
C692   C     0.49571   0.47288   0.92914   0.00000  Uiso   1.00
C693   C     0.52018   0.48477   0.51513   0.00000  Uiso   1.00
C694   C     0.58280   0.50199   0.99486   0.00000  Uiso   1.00
C695   C     0.60136   0.49813   0.94331   0.00000  Uiso   1.00
C696   C     0.55906   0.47962   0.91129   0.00000  Uiso   1.00
C697   C     0.50453   0.48614   0.56786   0.00000  Uiso   1.00
C698   C     0.61075   0.52073   0.57802   0.00000  Uiso   1.00
C699   C     0.45140   0.46927   0.89652   0.00000  Uiso   1.00
C700   C     0.52293   0.65600   0.75368   0.00000  Uiso   1.00
C701   C     0.46769   0.48923   0.84513   0.00000  Uiso   1.00
C702   C     0.47826   0.34420   0.74462   0.00000  Uiso   1.00
C703   C     0.48542   0.40012   0.74762   0.00000  Uiso   1.00
C704   C     0.53223   0.50280   0.65361   0.00000  Uiso   1.00
C705   C     0.62714   0.52058   0.52618   0.00000  Uiso   1.00
C706   C     0.54961   0.50329   0.59903   0.00000  Uiso   1.00
C707   C     0.39079   0.44530   0.91356   0.00000  Uiso   1.00
C708   C     0.37256   0.43272   0.96355   0.00000  Uiso   1.00
C709   C     0.41361   0.44664   0.99802   0.00000  Uiso   1.00
Cu710  Cu    0.44043   0.49439   0.74436   0.00000  Uiso   1.00
Cu711  Cu    0.55957   0.50561   0.75564   0.00000  Uiso   1.00
H712   H     0.64590   0.53458   0.60162   0.00000  Uiso   1.00
H713   H     0.43608   0.65406   0.73416   0.00000  Uiso   1.00
H714   H     0.66135   0.45437   0.71564   0.00000  Uiso   1.00
H715   H     0.64918   0.50929   0.92758   0.00000  Uiso   1.00
H716   H     0.34148   0.53410   0.51047   0.00000  Uiso   1.00
H717   H     0.45766   0.47425   0.58550   0.00000  Uiso   1.00
H718   H     0.35720   0.43667   0.88822   0.00000  Uiso   1.00
H719   H     0.39567   0.43822   0.53665   0.00000  Uiso   1.00
H720   H     0.65877   0.41427   0.97626   0.00000  Uiso   1.00
H721   H     0.57789   0.46942   0.87288   0.00000  Uiso   1.00
H722   H     0.56585   0.34637   0.76307   0.00000  Uiso   1.00
N723   N     0.64908   0.51407   0.76416   0.00000  Uiso   1.00
N724   N     0.35092   0.48593   0.73584   0.00000  Uiso   1.00
O725   O     0.46131   0.57141   0.74633   0.00000  Uiso   1.00
O726   O     0.56191   0.58089   0.75587   0.00000  Uiso   1.00
O727   O     0.42515   0.49293   0.81840   0.00000  Uiso   1.00
O728   O     0.52575   0.50241   0.82793   0.00000  Uiso   1.00
O729   O     0.43809   0.41911   0.74413   0.00000  Uiso   1.00
O730   O     0.53869   0.42859   0.75367   0.00000  Uiso   1.00
O731   O     0.47425   0.49759   0.67207   0.00000  Uiso   1.00
O732   O     0.57485   0.50707   0.68161   0.00000  Uiso   1.00
C733   C     0.34372   0.56381   0.78893   0.00000  Uiso   1.00
C734   C     0.63817   0.58460   0.83647   0.00000  Uiso   1.00
C735   C     0.33652   0.63945   0.85524   0.00000  Uiso   1.00
H736   H     0.38272   0.63865   0.86338   0.00000  Uiso   1.00
H737   H     0.34115   0.33464   0.82644   0.00000  Uiso   1.00
H738   H     0.64220   0.65306   0.89050   0.00000  Uiso   1.00
H739   H     0.59201   0.58752   0.83175   0.00000  Uiso   1.00
H740   H     0.63340   0.55827   0.86658   0.00000  Uiso   1.00
H741   H     0.38246   0.55889   0.80517   0.00000  Uiso   1.00
H742   H     0.35613   0.59389   0.76101   0.00000  Uiso   1.00
C743   C     0.84824   0.59993   0.75174   0.00000  Uiso   1.00
C744   C     0.80933   0.46840   0.98171   0.00000  Uiso   1.00
C745   C     0.82904   0.47288   0.92914   0.00000  Uiso   1.00
C746   C     0.85351   0.48477   0.51513   0.00000  Uiso   1.00
C747   C     0.91613   0.50199   0.99486   0.00000  Uiso   1.00
C748   C     0.93469   0.49813   0.94331   0.00000  Uiso   1.00
C749   C     0.89239   0.47962   0.91129   0.00000  Uiso   1.00
C750   C     0.83786   0.48614   0.56786   0.00000  Uiso   1.00
C751   C     0.94408   0.52073   0.57802   0.00000  Uiso   1.00
C752   C     0.78473   0.46927   0.89652   0.00000  Uiso   1.00
C753   C     0.85627   0.65600   0.75368   0.00000  Uiso   1.00
C754   C     0.80103   0.48923   0.84513   0.00000  Uiso   1.00
C755   C     0.81159   0.34420   0.74462   0.00000  Uiso   1.00
C756   C     0.81876   0.40012   0.74762   0.00000  Uiso   1.00
C757   C     0.86557   0.50280   0.65361   0.00000  Uiso   1.00
C758   C     0.96047   0.52058   0.52618   0.00000  Uiso   1.00
C759   C     0.88294   0.50329   0.59903   0.00000  Uiso   1.00
C760   C     0.72413   0.44530   0.91356   0.00000  Uiso   1.00
C761   C     0.70590   0.43272   0.96355   0.00000  Uiso   1.00
C762   C     0.74694   0.44664   0.99802   0.00000  Uiso   1.00
Cu763  Cu    0.77377   0.49439   0.74436   0.00000  Uiso   1.00
Cu764  Cu    0.89290   0.50561   0.75564   0.00000  Uiso   1.00
H765   H     0.97923   0.53458   0.60162   0.00000  Uiso   1.00
H766   H     0.76942   0.65406   0.73416   0.00000  Uiso   1.00
H767   H     0.99469   0.45437   0.71564   0.00000  Uiso   1.00
H768   H     0.98251   0.50929   0.92758   0.00000  Uiso   1.00
H769   H     0.67481   0.53410   0.51047   0.00000  Uiso   1.00
H770   H     0.79099   0.47425   0.58550   0.00000  Uiso   1.00
H771   H     0.69053   0.43667   0.88822   0.00000  Uiso   1.00
H772   H     0.72900   0.43822   0.53665   0.00000  Uiso   1.00
H773   H     0.99211   0.41427   0.97626   0.00000  Uiso   1.00
H774   H     0.91123   0.46942   0.87288   0.00000  Uiso   1.00
H775   H     0.89918   0.34637   0.76307   0.00000  Uiso   1.00
N776   N     0.98241   0.51407   0.76416   0.00000  Uiso   1.00
N777   N     0.68426   0.48593   0.73584   0.00000  Uiso   1.00
O778   O     0.79464   0.57141   0.74633   0.00000  Uiso   1.00
O779   O     0.89524   0.58089   0.75587   0.00000  Uiso   1.00
O780   O     0.75848   0.49293   0.81840   0.00000  Uiso   1.00
O781   O     0.85908   0.50241   0.82793   0.00000  Uiso   1.00
O782   O     0.77142   0.41911   0.74413   0.00000  Uiso   1.00
O783   O     0.87203   0.42859   0.75367   0.00000  Uiso   1.00
O784   O     0.80758   0.49759   0.67207   0.00000  Uiso   1.00
O785   O     0.90819   0.50707   0.68161   0.00000  Uiso   1.00
C786   C     0.67705   0.56381   0.78893   0.00000  Uiso   1.00
C787   C     0.97151   0.58460   0.83647   0.00000  Uiso   1.00
C788   C     0.66986   0.63945   0.85524   0.00000  Uiso   1.00
H789   H     0.71605   0.63865   0.86338   0.00000  Uiso   1.00
H790   H     0.67448   0.33464   0.82644   0.00000  Uiso   1.00
H791   H     0.97553   0.65306   0.89050   0.00000  Uiso   1.00
H792   H     0.92534   0.58752   0.83175   0.00000  Uiso   1.00
H793   H     0.96674   0.55827   0.86658   0.00000  Uiso   1.00
H794   H     0.71579   0.55889   0.80517   0.00000  Uiso   1.00
H795   H     0.68947   0.59389   0.76101   0.00000  Uiso   1.00
C796   C     0.18158   0.93326   0.75174   0.00000  Uiso   1.00
C797   C     0.14267   0.80173   0.98171   0.00000  Uiso   1.00
C798   C     0.16238   0.80622   0.92914   0.00000  Uiso   1.00
C799   C     0.18685   0.81811   0.51513   0.00000  Uiso   1.00
C800   C     0.24946   0.83532   0.99486   0.00000  Uiso   1.00
C801   C     0.26802   0.83146   0.94331   0.00000  Uiso   1.00
C802   C     0.22573   0.81295   0.91129   0.00000  Uiso   1.00
C803   C     0.17120   0.81947   0.56786   0.00000  Uiso   1.00
C804   C     0.27742   0.85406   0.57802   0.00000  Uiso   1.00
C805   C     0.11806   0.80261   0.89652   0.00000  Uiso   1.00
C806   C     0.18960   0.98933   0.75368   0.00000  Uiso   1.00
C807   C     0.13436   0.82256   0.84513   0.00000  Uiso   1.00
C808   C     0.14492   0.67753   0.74462   0.00000  Uiso   1.00
C809   C     0.15209   0.73345   0.74762   0.00000  Uiso   1.00
C810   C     0.19890   0.83614   0.65361   0.00000  Uiso   1.00
C811   C     0.29380   0.85391   0.52618   0.00000  Uiso   1.00
C812   C     0.21628   0.83662   0.59903   0.00000  Uiso   1.00
C813   C     0.05746   0.77864   0.91356   0.00000  Uiso   1.00
C814   C     0.03923   0.76605   0.96355   0.00000  Uiso   1.00
C815   C     0.08028   0.77997   0.99802   0.00000  Uiso   1.00
Cu816  Cu    0.10710   0.82772   0.74436   0.00000  Uiso   1.00
Cu817  Cu    0.22623   0.83895   0.75564   0.00000  Uiso   1.00
H818   H     0.31256   0.86792   0.60162   0.00000  Uiso   1.00
H819   H     0.10275   0.98739   0.73416   0.00000  Uiso   1.00
H820   H     0.32802   0.78770   0.71564   0.00000  Uiso   1.00
H821   H     0.31584   0.84262   0.92758   0.00000  Uiso   1.00
H822   H     0.00814   0.86743   0.51047   0.00000  Uiso   1.00
H823   H     0.12433   0.80758   0.58550   0.00000  Uiso   1.00
H824   H     0.02386   0.77000   0.88822   0.00000  Uiso   1.00
H825   H     0.06234   0.77155   0.53665   0.00000  Uiso   1.00
H826   H     0.32544   0.74761   0.97626   0.00000  Uiso   1.00
H827   H     0.24456   0.80275   0.87288   0.00000  Uiso   1.00
H828   H     0.23251   0.67971   0.76307   0.00000  Uiso   1.00
N829   N     0.31574   0.84741   0.76416   0.00000  Uiso   1.00
N830   N     0.01759   0.81926   0.73584   0.00000  Uiso   1.00
O831   O     0.12797   0.90474   0.74633   0.00000  Uiso   1.00
O832   O     0.22858   0.91422   0.75587   0.00000  Uiso   1.00
O833   O     0.09181   0.82627   0.81840   0.00000  Uiso   1.00
O834   O     0.19242   0.83575   0.82793   0.00000  Uiso   1.00
O835   O     0.10476   0.75245   0.74413   0.00000  Uiso   1.00
O836   O     0.20536   0.76193   0.75367   0.00000  Uiso   1.00
O837   O     0.14092   0.83092   0.67207   0.00000  Uiso   1.00
O838   O     0.24152   0.84040   0.68161   0.00000  Uiso   1.00
C839   C     0.01039   0.89714   0.78893   0.00000  Uiso   1.00
C840   C     0.30484   0.91793   0.83647   0.00000  Uiso   1.00
C841   C     0.00319   0.97278   0.85524   0.00000  Uiso   1.00
H842   H     0.04938   0.97199   0.86338   0.00000  Uiso   1.00
H843   H     0.00782   0.66798   0.82644   0.00000  Uiso   1.00
H844   H     0.30887   0.98640   0.89050   0.00000  Uiso   1.00
H845   H     0.25867   0.92086   0.83175   0.00000  Uiso   1.00
H846   H     0.30007   0.89160   0.86658   0.00000  Uiso   1.00
H847   H     0.04912   0.89223   0.80517   0.00000  Uiso   1.00
H848   H     0.02280   0.92722   0.76101   0.00000  Uiso   1.00
C849   C     0.51491   0.93326   0.75174   0.00000  Uiso   1.00
C850   C     0.47600   0.80173   0.98171   0.00000  Uiso   1.00
C851   C     0.49571   0.80622   0.92914   0.00000  Uiso   1.00
C852   C     0.52018   0.81811   0.51513   0.00000  Uiso   1.00
C853   C     0.58280   0.83532   0.99486   0.00000  Uiso   1.00
C854   C     0.60136   0.83146   0.94331   0.00000  Uiso   1.00
C855   C     0.55906   0.81295   0.91129   0.00000  Uiso   1.00
C856   C     0.50453   0.81947   0.56786   0.00000  Uiso   1.00
C857   C     0.61075   0.85406   0.57802   0.00000  Uiso   1.00
C858   C     0.45140   0.80261   0.89652   0.00000  Uiso   1.00
C859   C     0.52293   0.98933   0.75368   0.00000  Uiso   1.00
C860   C     0.46769   0.82256   0.84513   0.00000  Uiso   1.00
C861   C     0.47826   0.67753   0.74462   0.00000  Uiso   1.00
C862   C     0.48542   0.73345   0.74762   0.00000  Uiso   1.00
C863   C     0.53223   0.83614   0.65361   0.00000  Uiso   1.00
C864   C     0.62714   0.85391   0.52618   0.00000  Uiso   1.00
C865   C     0.54961   0.83662   0.59903   0.00000  Uiso   1.00
C866   C     0.39079   0.77864   0.91356   0.00000  Uiso   1.00
C867   C     0.37256   0.76605   0.96355   0.00000  Uiso   1.00
C868   C     0.41361   0.77997   0.99802   0.00000  Uiso   1.00
Cu869  Cu    0.44043   0.82772   0.74436   0.00000  Uiso   1.00
Cu870  Cu    0.55957   0.83895   0.75564   0.00000  Uiso   1.00
H871   H     0.64590   0.86792   0.60162   0.00000  Uiso   1.00
H872   H     0.43608   0.98739   0.73416   0.00000  Uiso   1.00
H873   H     0.66135   0.78770   0.71564   0.00000  Uiso   1.00
H874   H     0.64918   0.84262   0.92758   0.00000  Uiso   1.00
H875   H     0.34148   0.86743   0.51047   0.00000  Uiso   1.00
H876   H     0.45766   0.80758   0.58550   0.00000  Uiso   1.00
H877   H     0.35720   0.77000   0.88822   0.00000  Uiso   1.00
H878   H     0.39567   0.77155   0.53665   0.00000  Uiso   1.00
H879   H     0.65877   0.74761   0.97626   0.00000  Uiso   1.00
H880   H     0.57789   0.80275   0.87288   0.00000  Uiso   1.00
H881   H     0.56585   0.67971   0.76307   0.00000  Uiso   1.00
N882   N     0.64908   0.84741   0.76416   0.00000  Uiso   1.00
N883   N     0.35092   0.81926   0.73584   0.00000  Uiso   1.00
O884   O     0.46131   0.90474   0.74633   0.00000  Uiso   1.00
O885   O     0.56191   0.91422   0.75587   0.00000  Uiso   1.00
O886   O     0.42515   0.82627   0.81840   0.00000  Uiso   1.00
O887   O     0.52575   0.83575   0.82793   0.00000  Uiso   1.00
O888   O     0.43809   0.75245   0.74413   0.00000  Uiso   1.00
O889   O     0.53869   0.76193   0.75367   0.00000  Uiso   1.00
O890   O     0.47425   0.83092   0.67207   0.00000  Uiso   1.00
O891   O     0.57485   0.84040   0.68161   0.00000  Uiso   1.00
C892   C     0.34372   0.89714   0.78893   0.00000  Uiso   1.00
C893   C     0.63817   0.91793   0.83647   0.00000  Uiso   1.00
C894   C     0.33652   0.97278   0.85524   0.00000  Uiso   1.00
H895   H     0.38272   0.97199   0.86338   0.00000  Uiso   1.00
H896   H     0.34115   0.66798   0.82644   0.00000  Uiso   1.00
H897   H     0.64220   0.98640   0.89050   0.00000  Uiso   1.00
H898   H     0.59201   0.92086   0.83175   0.00000  Uiso   1.00
H899   H     0.63340   0.89160   0.86658   0.00000  Uiso   1.00
H900   H     0.38246   0.89223   0.80517   0.00000  Uiso   1.00
H901   H     0.35613   0.92722   0.76101   0.00000  Uiso   1.00
C902   C     0.84824   0.93326   0.75174   0.00000  Uiso   1.00
C903   C     0.80933   0.80173   0.98171   0.00000  Uiso   1.00
C904   C     0.82904   0.80622   0.92914   0.00000  Uiso   1.00
C905   C     0.85351   0.81811   0.51513   0.00000  Uiso   1.00
C906   C     0.91613   0.83532   0.99486   0.00000  Uiso   1.00
C907   C     0.93469   0.83146   0.94331   0.00000  Uiso   1.00
C908   C     0.89239   0.81295   0.91129   0.00000  Uiso   1.00
C909   C     0.83786   0.81947   0.56786   0.00000  Uiso   1.00
C910   C     0.94408   0.85406   0.57802   0.00000  Uiso   1.00
C911   C     0.78473   0.80261   0.89652   0.00000  Uiso   1.00
C912   C     0.85627   0.98933   0.75368   0.00000  Uiso   1.00
C913   C     0.80103   0.82256   0.84513   0.00000  Uiso   1.00
C914   C     0.81159   0.67753   0.74462   0.00000  Uiso   1.00
C915   C     0.81876   0.73345   0.74762   0.00000  Uiso   1.00
C916   C     0.86557   0.83614   0.65361   0.00000  Uiso   1.00
C917   C     0.96047   0.85391   0.52618   0.00000  Uiso   1.00
C918   C     0.88294   0.83662   0.59903   0.00000  Uiso   1.00
C919   C     0.72413   0.77864   0.91356   0.00000  Uiso   1.00
C920   C     0.70590   0.76605   0.96355   0.00000  Uiso   1.00
C921   C     0.74694   0.77997   0.99802   0.00000  Uiso   1.00
Cu922  Cu    0.77377   0.82772   0.74436   0.00000  Uiso   1.00
Cu923  Cu    0.89290   0.83895   0.75564   0.00000  Uiso   1.00
H924   H     0.97923   0.86792   0.60162   0.00000  Uiso   1.00
H925   H     0.76942   0.98739   0.73416   0.00000  Uiso   1.00
H926   H     0.99469   0.78770   0.71564   0.00000  Uiso   1.00
H927   H     0.98251   0.84262   0.92758   0.00000  Uiso   1.00
H928   H     0.67481   0.86743   0.51047   0.00000  Uiso   1.00
H929   H     0.79099   0.80758   0.58550   0.00000  Uiso   1.00
H930   H     0.69053   0.77000   0.88822   0.00000  Uiso   1.00
H931   H     0.72900   0.77155   0.53665   0.00000  Uiso   1.00
H932   H     0.99211   0.74761   0.97626   0.00000  Uiso   1.00
H933   H     0.91123   0.80275   0.87288   0.00000  Uiso   1.00
H934   H     0.89918   0.67971   0.76307   0.00000  Uiso   1.00
N935   N     0.98241   0.84741   0.76416   0.00000  Uiso   1.00
N936   N     0.68426   0.81926   0.73584   0.00000  Uiso   1.00
O937   O     0.79464   0.90474   0.74633   0.00000  Uiso   1.00
O938   O     0.89524   0.91422   0.75587   0.00000  Uiso   1.00
O939   O     0.75848   0.82627   0.81840   0.00000  Uiso   1.00
O940   O     0.85908   0.83575   0.82793   0.00000  Uiso   1.00
O941   O     0.77142   0.75245   0.74413   0.00000  Uiso   1.00
O942   O     0.87203   0.76193   0.75367   0.00000  Uiso   1.00
O943   O     0.80758   0.83092   0.67207   0.00000  Uiso   1.00
O944   O     0.90819   0.84040   0.68161   0.00000  Uiso   1.00
C945   C     0.67705   0.89714   0.78893   0.00000  Uiso   1.00
C946   C     0.97151   0.91793   0.83647   0.00000  Uiso   1.00
C947   C     0.66986   0.97278   0.85524   0.00000  Uiso   1.00
H948   H     0.71605   0.97199   0.86338   0.00000  Uiso   1.00
H949   H     0.67448   0.66798   0.82644   0.00000  Uiso   1.00
H950   H     0.97553   0.98640   0.89050   0.00000  Uiso   1.00
H951   H     0.92534   0.92086   0.83175   0.00000  Uiso   1.00
H952   H     0.96674   0.89160   0.86658   0.00000  Uiso   1.00
H953   H     0.71579   0.89223   0.80517   0.00000  Uiso   1.00
H954   H     0.68947   0.92722   0.76101   0.00000  Uiso   1.00
loop_
_geom_bond_atom_site_label_1
_geom_bond_atom_site_label_2
_geom_bond_distance
_geom_bond_site_symmetry_2
_ccdc_geom_bond_type
C1     C11     1.430   .     S
C1     O37     1.294   .     A
C1     O36     1.302   .     A
C2     C3      1.420   .     A
C2     C20     1.414   .     A
C2     C481    1.430   .     S
C3     C10     1.430   .     A
C3     C7      1.409   .     A
C4     C8      1.402   .     A
C4     C479    1.430   1_554 S
C4     C482    1.420   1_554 S
C5     C6      1.379   .     A
C5     C481    1.420   .     S
C5     C493    1.399   .     S
C6     C7      1.378   .     A
C6     H26     1.079   .     S
C7     H32     1.076   .     S
C8     C17     1.405   .     A
C8     H28     1.077   .     S
C9     C17     1.397   .     A
C9     C16     1.382   .     A
C9     H23     1.083   .     S
C10    C12     1.492   .     S
C10    C18     1.398   .     A
C11    C172    1.328   .     S
C11    H192    1.088   .     S
C12    O39     1.298   .     A
C12    O38     1.327   .     A
C13    C14     1.427   .     S
C13    C329    1.328   1_545 S
C13    H342    1.082   1_545 S
C14    O41     1.299   .     A
C14    O40     1.296   .     A
C15    O42     1.302   .     A
C15    O43     1.307   .     A
C15    C17     1.456   .     S
C16    C482    1.399   1_554 S
C16    H80     1.084   .     S
C18    H29     1.083   .     S
C18    C19     1.393   .     A
C19    C20     1.395   .     A
C19    H137    1.083   1_455 S
C20    H507    1.078   .     S
Cu21   N35     2.042   .     S
Cu21   Cu22    2.718   .     S
Cu21   O40     1.952   .     S
Cu21   O42     1.969   .     S
Cu21   O36     1.959   .     S
Cu21   O38     1.970   .     S
Cu22   O39     1.969   .     S
Cu22   N34     2.042   .     S
Cu22   O41     1.959   .     S
Cu22   O37     1.952   .     S
Cu22   O43     1.970   .     S
H24    C172    1.082   .     S
H25    N88     1.029   .     S
H27    C122    1.084   1_455 S
H30    C497    1.078   1_554 S
H31    C72     1.083   .     S
H33    C329    1.088   1_545 S
N34    N88     1.293   .     S
N34    C97     1.460   .     S
N35    N140    1.293   1_455 S
N35    H131    1.029   1_455 S
C44    H52     1.084   .     S
C44    H53     1.106   .     S
C44    N140    1.460   1_455 S
C44    C151    1.538   1_455 S
C45    H50     1.095   .     S
C45    H51     1.097   .     S
C45    C97     1.538   .     S
C45    C99     1.530   .     S
C46    H47     1.111   .     S
C46    C151    1.530   1_455 S
C46    H207    1.111   .     S
C46    H155    1.111   1_455 S
H48    C364    1.111   1_545 S
H49    C99     1.111   .     S
C54    C64     1.430   .     S
C54    O90     1.294   .     A
C54    O89     1.302   .     A
C55    C56     1.420   .     A
C55    C73     1.414   .     A
C55    C534    1.430   .     S
C56    C63     1.430   .     A
C56    C60     1.409   .     A
C57    C61     1.402   .     A
C57    C532    1.430   1_554 S
C57    C535    1.420   1_554 S
C58    C59     1.379   .     A
C58    C534    1.420   .     S
C58    C546    1.399   .     S
C59    C60     1.378   .     A
C59    H79     1.079   .     S
C60    H85     1.076   .     S
C61    C70     1.405   .     A
C61    H81     1.077   .     S
C62    C70     1.397   .     A
C62    C69     1.382   .     A
C62    H76     1.083   .     S
C63    C65     1.492   .     S
C63    C71     1.398   .     A
C64    C225    1.328   .     S
C64    H245    1.088   .     S
C65    O92     1.298   .     A
C65    O91     1.327   .     A
C66    C67     1.427   .     S
C66    C382    1.328   1_545 S
C66    H395    1.082   1_545 S
C67    O94     1.299   .     A
C67    O93     1.296   .     A
C68    O95     1.302   .     A
C68    O96     1.307   .     A
C68    C70     1.456   .     S
C69    C535    1.399   1_554 S
C69    H133    1.084   .     S
C71    H82     1.083   .     S
C71    C72     1.393   .     A
C72    C73     1.395   .     A
C73    H560    1.078   .     S
Cu74   N88     2.042   .     S
Cu74   Cu75    2.718   .     S
Cu74   O93     1.952   .     S
Cu74   O95     1.969   .     S
Cu74   O89     1.959   .     S
Cu74   O91     1.970   .     S
Cu75   O92     1.969   .     S
Cu75   N87     2.042   .     S
Cu75   O94     1.959   .     S
Cu75   O90     1.952   .     S
Cu75   O96     1.970   .     S
H77    C225    1.082   .     S
H78    N141    1.029   .     S
H83    C550    1.078   1_554 S
H84    C125    1.083   .     S
H86    C382    1.088   1_545 S
N87    N141    1.293   .     S
N87    C150    1.460   .     S
C97    H105    1.084   .     S
C97    H106    1.106   .     S
C98    H103    1.095   .     S
C98    H104    1.097   .     S
C98    C150    1.538   .     S
C98    C152    1.530   .     S
C99    H100    1.111   .     S
C99    H260    1.111   .     S
H101   C417    1.111   1_545 S
H102   C152    1.111   .     S
C107   C117    1.430   .     S
C107   O143    1.294   .     A
C107   O142    1.302   .     A
C108   C109    1.420   .     A
C108   C126    1.414   .     A
C108   C587    1.430   .     S
C109   C116    1.430   .     A
C109   C113    1.409   .     A
C110   C114    1.402   .     A
C110   C585    1.430   1_554 S
C110   C588    1.420   1_554 S
C111   C112    1.379   .     A
C111   C587    1.420   .     S
C111   C599    1.399   .     S
C112   C113    1.378   .     A
C112   H132    1.079   .     S
C113   H138    1.076   .     S
C114   C123    1.405   .     A
C114   H134    1.077   .     S
C115   C123    1.397   .     A
C115   C122    1.382   .     A
C115   H129    1.083   .     S
C116   C118    1.492   .     S
C116   C124    1.398   .     A
C117   C278    1.328   .     S
C117   H298    1.088   .     S
C118   O145    1.298   .     A
C118   O144    1.327   .     A
C119   C120    1.427   .     S
C119   C435    1.328   1_545 S
C119   H448    1.082   1_545 S
C120   O147    1.299   .     A
C120   O146    1.296   .     A
C121   O148    1.302   .     A
C121   O149    1.307   .     A
C121   C123    1.456   .     S
C122   C588    1.399   1_554 S
C122   H27     1.084   1_655 S
C124   H135    1.083   .     S
C124   C125    1.393   .     A
C125   C126    1.395   .     A
C126   H613    1.078   .     S
Cu127  N141    2.042   .     S
Cu127  Cu128   2.718   .     S
Cu127  O146    1.952   .     S
Cu127  O148    1.969   .     S
Cu127  O142    1.959   .     S
Cu127  O144    1.970   .     S
Cu128  O145    1.969   .     S
Cu128  N140    2.042   .     S
Cu128  O147    1.959   .     S
Cu128  O143    1.952   .     S
Cu128  O149    1.970   .     S
H130   C278    1.082   .     S
H131   N35     1.029   1_655 S
H136   C603    1.078   1_554 S
H137   C19     1.083   1_655 S
H139   C435    1.088   1_545 S
N140   N35     1.293   1_655 S
N140   C44     1.460   1_655 S
C150   H158    1.084   .     S
C150   H159    1.106   .     S
C151   H156    1.095   .     S
C151   H157    1.097   .     S
C151   C44     1.538   1_655 S
C151   C46     1.530   1_655 S
C152   H153    1.111   .     S
C152   H313    1.111   .     S
H154   C470    1.111   1_545 S
H155   C46     1.111   1_655 S
C160   C170    1.430   .     S
C160   O196    1.294   .     A
C160   O195    1.302   .     A
C161   C162    1.420   .     A
C161   C179    1.414   .     A
C161   C640    1.430   .     S
C162   C169    1.430   .     A
C162   C166    1.409   .     A
C163   C167    1.402   .     A
C163   C638    1.430   1_554 S
C163   C641    1.420   1_554 S
C164   C165    1.379   .     A
C164   C640    1.420   .     S
C164   C652    1.399   .     S
C165   C166    1.378   .     A
C165   H185    1.079   .     S
C166   H191    1.076   .     S
C167   C176    1.405   .     A
C167   H187    1.077   .     S
C168   C176    1.397   .     A
C168   C175    1.382   .     A
C168   H182    1.083   .     S
C169   C171    1.492   .     S
C169   C177    1.398   .     A
C170   C331    1.328   .     S
C170   H351    1.088   .     S
C171   O198    1.298   .     A
C171   O197    1.327   .     A
C172   C173    1.427   .     S
C173   O200    1.299   .     A
C173   O199    1.296   .     A
C174   O201    1.302   .     A
C174   O202    1.307   .     A
C174   C176    1.456   .     S
C175   C641    1.399   1_554 S
C175   H239    1.084   .     S
C177   H188    1.083   .     S
C177   C178    1.393   .     A
C178   C179    1.395   .     A
C178   H296    1.083   1_455 S
C179   H666    1.078   .     S
Cu180  N194    2.042   .     S
Cu180  Cu181   2.718   .     S
Cu180  O199    1.952   .     S
Cu180  O201    1.969   .     S
Cu180  O195    1.959   .     S
Cu180  O197    1.970   .     S
Cu181  O198    1.969   .     S
Cu181  N193    2.042   .     S
Cu181  O200    1.959   .     S
Cu181  O196    1.952   .     S
Cu181  O202    1.970   .     S
H183   C331    1.082   .     S
H184   N247    1.029   .     S
H186   C281    1.084   1_455 S
H189   C656    1.078   1_554 S
H190   C231    1.083   .     S
N193   N247    1.293   .     S
N193   C256    1.460   .     S
N194   N299    1.293   1_455 S
N194   H290    1.029   1_455 S
C203   H211    1.084   .     S
C203   H212    1.106   .     S
C203   N299    1.460   1_455 S
C203   C310    1.538   1_455 S
C204   H209    1.095   .     S
C204   H210    1.097   .     S
C204   C256    1.538   .     S
C204   C258    1.530   .     S
C205   H206    1.111   .     S
C205   C310    1.530   1_455 S
C205   H366    1.111   .     S
C205   H314    1.111   1_455 S
H208   C258    1.111   .     S
C213   C223    1.430   .     S
C213   O249    1.294   .     A
C213   O248    1.302   .     A
C214   C215    1.420   .     A
C214   C232    1.414   .     A
C214   C693    1.430   .     S
C215   C222    1.430   .     A
C215   C219    1.409   .     A
C216   C220    1.402   .     A
C216   C691    1.430   1_554 S
C216   C694    1.420   1_554 S
C217   C218    1.379   .     A
C217   C693    1.420   .     S
C217   C705    1.399   .     S
C218   C219    1.378   .     A
C218   H238    1.079   .     S
C219   H244    1.076   .     S
C220   C229    1.405   .     A
C220   H240    1.077   .     S
C221   C229    1.397   .     A
C221   C228    1.382   .     A
C221   H235    1.083   .     S
C222   C224    1.492   .     S
C222   C230    1.398   .     A
C223   C384    1.328   .     S
C223   H404    1.088   .     S
C224   O251    1.298   .     A
C224   O250    1.327   .     A
C225   C226    1.427   .     S
C226   O253    1.299   .     A
C226   O252    1.296   .     A
C227   O254    1.302   .     A
C227   O255    1.307   .     A
C227   C229    1.456   .     S
C228   C694    1.399   1_554 S
C228   H292    1.084   .     S
C230   H241    1.083   .     S
C230   C231    1.393   .     A
C231   C232    1.395   .     A
C232   H719    1.078   .     S
Cu233  N247    2.042   .     S
Cu233  Cu234   2.718   .     S
Cu233  O252    1.952   .     S
Cu233  O254    1.969   .     S
Cu233  O248    1.959   .     S
Cu233  O250    1.970   .     S
Cu234  O251    1.969   .     S
Cu234  N246    2.042   .     S
Cu234  O253    1.959   .     S
Cu234  O249    1.952   .     S
Cu234  O255    1.970   .     S
H236   C384    1.082   .     S
H237   N300    1.029   .     S
H242   C709    1.078   1_554 S
H243   C284    1.083   .     S
N246   N300    1.293   .     S
N246   C309    1.460   .     S
C256   H264    1.084   .     S
C256   H265    1.106   .     S
C257   H262    1.095   .     S
C257   H263    1.097   .     S
C257   C309    1.538   .     S
C257   C311    1.530   .     S
C258   H259    1.111   .     S
C258   H419    1.111   .     S
H261   C311    1.111   .     S
C266   C276    1.430   .     S
C266   O302    1.294   .     A
C266   O301    1.302   .     A
C267   C268    1.420   .     A
C267   C285    1.414   .     A
C267   C746    1.430   .     S
C268   C275    1.430   .     A
C268   C272    1.409   .     A
C269   C273    1.402   .     A
C269   C744    1.430   1_554 S
C269   C747    1.420   1_554 S
C270   C271    1.379   .     A
C270   C746    1.420   .     S
C270   C758    1.399   .     S
C271   C272    1.378   .     A
C271   H291    1.079   .     S
C272   H297    1.076   .     S
C273   C282    1.405   .     A
C273   H293    1.077   .     S
C274   C282    1.397   .     A
C274   C281    1.382   .     A
C274   H288    1.083   .     S
C275   C277    1.492   .     S
C275   C283    1.398   .     A
C276   C437    1.328   .     S
C276   H457    1.088   .     S
C277   O304    1.298   .     A
C277   O303    1.327   .     A
C278   C279    1.427   .     S
C279   O306    1.299   .     A
C279   O305    1.296   .     A
C280   O307    1.302   .     A
C280   O308    1.307   .     A
C280   C282    1.456   .     S
C281   C747    1.399   1_554 S
C281   H186    1.084   1_655 S
C283   H294    1.083   .     S
C283   C284    1.393   .     A
C284   C285    1.395   .     A
C285   H772    1.078   .     S
Cu286  N300    2.042   .     S
Cu286  Cu287   2.718   .     S
Cu286  O305    1.952   .     S
Cu286  O307    1.969   .     S
Cu286  O301    1.959   .     S
Cu286  O303    1.970   .     S
Cu287  O304    1.969   .     S
Cu287  N299    2.042   .     S
Cu287  O306    1.959   .     S
Cu287  O302    1.952   .     S
Cu287  O308    1.970   .     S
H289   C437    1.082   .     S
H290   N194    1.029   1_655 S
H295   C762    1.078   1_554 S
H296   C178    1.083   1_655 S
N299   N194    1.293   1_655 S
N299   C203    1.460   1_655 S
C309   H317    1.084   .     S
C309   H318    1.106   .     S
C310   H315    1.095   .     S
C310   H316    1.097   .     S
C310   C203    1.538   1_655 S
C310   C205    1.530   1_655 S
C311   H312    1.111   .     S
C311   H472    1.111   .     S
H314   C205    1.111   1_655 S
C319   C329    1.430   .     S
C319   O355    1.294   .     A
C319   O354    1.302   .     A
C320   C321    1.420   .     A
C320   C338    1.414   .     A
C320   C799    1.430   .     S
C321   C328    1.430   .     A
C321   C325    1.409   .     A
C322   C326    1.402   .     A
C322   C797    1.430   1_554 S
C322   C800    1.420   1_554 S
C323   C324    1.379   .     A
C323   C799    1.420   .     S
C323   C811    1.399   .     S
C324   C325    1.378   .     A
C324   H344    1.079   .     S
C325   H350    1.076   .     S
C326   C335    1.405   .     A
C326   H346    1.077   .     S
C327   C335    1.397   .     A
C327   C334    1.382   .     A
C327   H341    1.083   .     S
C328   C330    1.492   .     S
C328   C336    1.398   .     A
C329   C13     1.328   1_565 S
C329   H33     1.088   1_565 S
C330   O357    1.298   .     A
C330   O356    1.327   .     A
C331   C332    1.427   .     S
C332   O359    1.299   .     A
C332   O358    1.296   .     A
C333   O360    1.302   .     A
C333   O361    1.307   .     A
C333   C335    1.456   .     S
C334   C800    1.399   1_554 S
C334   H398    1.084   .     S
C336   H347    1.083   .     S
C336   C337    1.393   .     A
C337   C338    1.395   .     A
C337   H455    1.083   1_455 S
C338   H825    1.078   .     S
Cu339  N353    2.042   .     S
Cu339  Cu340   2.718   .     S
Cu339  O358    1.952   .     S
Cu339  O360    1.969   .     S
Cu339  O354    1.959   .     S
Cu339  O356    1.970   .     S
Cu340  O357    1.969   .     S
Cu340  N352    2.042   .     S
Cu340  O359    1.959   .     S
Cu340  O355    1.952   .     S
Cu340  O361    1.970   .     S
H342   C13     1.082   1_565 S
H343   N406    1.029   .     S
H345   C440    1.084   1_455 S
H348   C815    1.078   1_554 S
H349   C390    1.083   .     S
N352   N406    1.293   .     S
N352   C415    1.460   .     S
N353   N458    1.293   1_455 S
N353   H449    1.029   1_455 S
C362   H370    1.084   .     S
C362   H371    1.106   .     S
C362   N458    1.460   1_455 S
C362   C469    1.538   1_455 S
C363   H368    1.095   .     S
C363   H369    1.097   .     S
C363   C415    1.538   .     S
C363   C417    1.530   .     S
C364   H365    1.111   .     S
C364   C469    1.530   1_455 S
C364   H48     1.111   1_565 S
C364   H473    1.111   1_455 S
H367   C417    1.111   .     S
C372   C382    1.430   .     S
C372   O408    1.294   .     A
C372   O407    1.302   .     A
C373   C374    1.420   .     A
C373   C391    1.414   .     A
C373   C852    1.430   .     S
C374   C381    1.430   .     A
C374   C378    1.409   .     A
C375   C379    1.402   .     A
C375   C850    1.430   1_554 S
C375   C853    1.420   1_554 S
C376   C377    1.379   .     A
C376   C852    1.420   .     S
C376   C864    1.399   .     S
C377   C378    1.378   .     A
C377   H397    1.079   .     S
C378   H403    1.076   .     S
C379   C388    1.405   .     A
C379   H399    1.077   .     S
C380   C388    1.397   .     A
C380   C387    1.382   .     A
C380   H394    1.083   .     S
C381   C383    1.492   .     S
C381   C389    1.398   .     A
C382   C66     1.328   1_565 S
C382   H86     1.088   1_565 S
C383   O410    1.298   .     A
C383   O409    1.327   .     A
C384   C385    1.427   .     S
C385   O412    1.299   .     A
C385   O411    1.296   .     A
C386   O413    1.302   .     A
C386   O414    1.307   .     A
C386   C388    1.456   .     S
C387   C853    1.399   1_554 S
C387   H451    1.084   .     S
C389   H400    1.083   .     S
C389   C390    1.393   .     A
C390   C391    1.395   .     A
C391   H878    1.078   .     S
Cu392  N406    2.042   .     S
Cu392  Cu393   2.718   .     S
Cu392  O411    1.952   .     S
Cu392  O413    1.969   .     S
Cu392  O407    1.959   .     S
Cu392  O409    1.970   .     S
Cu393  O410    1.969   .     S
Cu393  N405    2.042   .     S
Cu393  O412    1.959   .     S
Cu393  O408    1.952   .     S
Cu393  O414    1.970   .     S
H395   C66     1.082   1_565 S
H396   N459    1.029   .     S
H401   C868    1.078   1_554 S
H402   C443    1.083   .     S
N405   N459    1.293   .     S
N405   C468    1.460   .     S
C415   H423    1.084   .     S
C415   H424    1.106   .     S
C416   H421    1.095   .     S
C416   H422    1.097   .     S
C416   C468    1.538   .     S
C416   C470    1.530   .     S
C417   H418    1.111   .     S
C417   H101    1.111   1_565 S
H420   C470    1.111   .     S
C425   C435    1.430   .     S
C425   O461    1.294   .     A
C425   O460    1.302   .     A
C426   C427    1.420   .     A
C426   C444    1.414   .     A
C426   C905    1.430   .     S
C427   C434    1.430   .     A
C427   C431    1.409   .     A
C428   C432    1.402   .     A
C428   C903    1.430   1_554 S
C428   C906    1.420   1_554 S
C429   C430    1.379   .     A
C429   C905    1.420   .     S
C429   C917    1.399   .     S
C430   C431    1.378   .     A
C430   H450    1.079   .     S
C431   H456    1.076   .     S
C432   C441    1.405   .     A
C432   H452    1.077   .     S
C433   C441    1.397   .     A
C433   C440    1.382   .     A
C433   H447    1.083   .     S
C434   C436    1.492   .     S
C434   C442    1.398   .     A
C435   C119    1.328   1_565 S
C435   H139    1.088   1_565 S
C436   O463    1.298   .     A
C436   O462    1.327   .     A
C437   C438    1.427   .     S
C438   O465    1.299   .     A
C438   O464    1.296   .     A
C439   O466    1.302   .     A
C439   O467    1.307   .     A
C439   C441    1.456   .     S
C440   C906    1.399   1_554 S
C440   H345    1.084   1_655 S
C442   H453    1.083   .     S
C442   C443    1.393   .     A
C443   C444    1.395   .     A
C444   H931    1.078   .     S
Cu445  N459    2.042   .     S
Cu445  Cu446   2.718   .     S
Cu445  O464    1.952   .     S
Cu445  O466    1.969   .     S
Cu445  O460    1.959   .     S
Cu445  O462    1.970   .     S
Cu446  O463    1.969   .     S
Cu446  N458    2.042   .     S
Cu446  O465    1.959   .     S
Cu446  O461    1.952   .     S
Cu446  O467    1.970   .     S
H448   C119    1.082   1_565 S
H449   N353    1.029   1_655 S
H454   C921    1.078   1_554 S
H455   C337    1.083   1_655 S
N458   N353    1.293   1_655 S
N458   C362    1.460   1_655 S
C468   H476    1.084   .     S
C468   H477    1.106   .     S
C469   H474    1.095   .     S
C469   H475    1.097   .     S
C469   C362    1.538   1_655 S
C469   C364    1.530   1_655 S
C470   H471    1.111   .     S
C470   H154    1.111   1_565 S
H473   C364    1.111   1_655 S
C478   C488    1.430   .     S
C478   O514    1.294   .     A
C478   O513    1.302   .     A
C479   C480    1.420   .     A
C479   C497    1.414   .     A
C479   C4      1.430   1_556 S
C480   C487    1.430   .     A
C480   C484    1.409   .     A
C481   C485    1.402   .     A
C482   C483    1.379   .     A
C482   C4      1.420   1_556 S
C482   C16     1.399   1_556 S
C483   C484    1.378   .     A
C483   H503    1.079   .     S
C484   H509    1.076   .     S
C485   C494    1.405   .     A
C485   H505    1.077   .     S
C486   C494    1.397   .     A
C486   C493    1.382   .     A
C486   H500    1.083   .     S
C487   C489    1.492   .     S
C487   C495    1.398   .     A
C488   C649    1.328   .     S
C488   H669    1.088   .     S
C489   O516    1.298   .     A
C489   O515    1.327   .     A
C490   C491    1.427   .     S
C490   C806    1.328   1_545 S
C490   H819    1.082   1_545 S
C491   O518    1.299   .     A
C491   O517    1.296   .     A
C492   O519    1.302   .     A
C492   O520    1.307   .     A
C492   C494    1.456   .     S
C493   H557    1.084   .     S
C495   H506    1.083   .     S
C495   C496    1.393   .     A
C496   C497    1.395   .     A
C496   H614    1.083   1_455 S
C497   H30     1.078   1_556 S
Cu498  N512    2.042   .     S
Cu498  Cu499   2.718   .     S
Cu498  O517    1.952   .     S
Cu498  O519    1.969   .     S
Cu498  O513    1.959   .     S
Cu498  O515    1.970   .     S
Cu499  O516    1.969   .     S
Cu499  N511    2.042   .     S
Cu499  O518    1.959   .     S
Cu499  O514    1.952   .     S
Cu499  O520    1.970   .     S
H501   C649    1.082   .     S
H502   N565    1.029   .     S
H504   C599    1.084   1_455 S
H508   C549    1.083   .     S
H510   C806    1.088   1_545 S
N511   N565    1.293   .     S
N511   C574    1.460   .     S
N512   N617    1.293   1_455 S
N512   H608    1.029   1_455 S
C521   H529    1.084   .     S
C521   H530    1.106   .     S
C521   N617    1.460   1_455 S
C521   C628    1.538   1_455 S
C522   H527    1.095   .     S
C522   H528    1.097   .     S
C522   C574    1.538   .     S
C522   C576    1.530   .     S
C523   H524    1.111   .     S
C523   C628    1.530   1_455 S
C523   H684    1.111   .     S
C523   H632    1.111   1_455 S
H525   C841    1.111   1_545 S
H526   C576    1.111   .     S
C531   C541    1.430   .     S
C531   O567    1.294   .     A
C531   O566    1.302   .     A
C532   C533    1.420   .     A
C532   C550    1.414   .     A
C532   C57     1.430   1_556 S
C533   C540    1.430   .     A
C533   C537    1.409   .     A
C534   C538    1.402   .     A
C535   C536    1.379   .     A
C535   C57     1.420   1_556 S
C535   C69     1.399   1_556 S
C536   C537    1.378   .     A
C536   H556    1.079   .     S
C537   H562    1.076   .     S
C538   C547    1.405   .     A
C538   H558    1.077   .     S
C539   C547    1.397   .     A
C539   C546    1.382   .     A
C539   H553    1.083   .     S
C540   C542    1.492   .     S
C540   C548    1.398   .     A
C541   C702    1.328   .     S
C541   H722    1.088   .     S
C542   O569    1.298   .     A
C542   O568    1.327   .     A
C543   C544    1.427   .     S
C543   C859    1.328   1_545 S
C543   H872    1.082   1_545 S
C544   O571    1.299   .     A
C544   O570    1.296   .     A
C545   O572    1.302   .     A
C545   O573    1.307   .     A
C545   C547    1.456   .     S
C546   H610    1.084   .     S
C548   H559    1.083   .     S
C548   C549    1.393   .     A
C549   C550    1.395   .     A
C550   H83     1.078   1_556 S
Cu551  N565    2.042   .     S
Cu551  Cu552   2.718   .     S
Cu551  O570    1.952   .     S
Cu551  O572    1.969   .     S
Cu551  O566    1.959   .     S
Cu551  O568    1.970   .     S
Cu552  O569    1.969   .     S
Cu552  N564    2.042   .     S
Cu552  O571    1.959   .     S
Cu552  O567    1.952   .     S
Cu552  O573    1.970   .     S
H554   C702    1.082   .     S
H555   N618    1.029   .     S
H561   C602    1.083   .     S
H563   C859    1.088   1_545 S
N564   N618    1.293   .     S
N564   C627    1.460   .     S
C574   H582    1.084   .     S
C574   H583    1.106   .     S
C575   H580    1.095   .     S
C575   H581    1.097   .     S
C575   C627    1.538   .     S
C575   C629    1.530   .     S
C576   H577    1.111   .     S
C576   H737    1.111   .     S
H578   C894    1.111   1_545 S
H579   C629    1.111   .     S
C584   C594    1.430   .     S
C584   O620    1.294   .     A
C584   O619    1.302   .     A
C585   C586    1.420   .     A
C585   C603    1.414   .     A
C585   C110    1.430   1_556 S
C586   C593    1.430   .     A
C586   C590    1.409   .     A
C587   C591    1.402   .     A
C588   C589    1.379   .     A
C588   C110    1.420   1_556 S
C588   C122    1.399   1_556 S
C589   C590    1.378   .     A
C589   H609    1.079   .     S
C590   H615    1.076   .     S
C591   C600    1.405   .     A
C591   H611    1.077   .     S
C592   C600    1.397   .     A
C592   C599    1.382   .     A
C592   H606    1.083   .     S
C593   C595    1.492   .     S
C593   C601    1.398   .     A
C594   C755    1.328   .     S
C594   H775    1.088   .     S
C595   O622    1.298   .     A
C595   O621    1.327   .     A
C596   C597    1.427   .     S
C596   C912    1.328   1_545 S
C596   H925    1.082   1_545 S
C597   O624    1.299   .     A
C597   O623    1.296   .     A
C598   O625    1.302   .     A
C598   O626    1.307   .     A
C598   C600    1.456   .     S
C599   H504    1.084   1_655 S
C601   H612    1.083   .     S
C601   C602    1.393   .     A
C602   C603    1.395   .     A
C603   H136    1.078   1_556 S
Cu604  N618    2.042   .     S
Cu604  Cu605   2.718   .     S
Cu604  O623    1.952   .     S
Cu604  O625    1.969   .     S
Cu604  O619    1.959   .     S
Cu604  O621    1.970   .     S
Cu605  O622    1.969   .     S
Cu605  N617    2.042   .     S
Cu605  O624    1.959   .     S
Cu605  O620    1.952   .     S
Cu605  O626    1.970   .     S
H607   C755    1.082   .     S
H608   N512    1.029   1_655 S
H614   C496    1.083   1_655 S
H616   C912    1.088   1_545 S
N617   N512    1.293   1_655 S
N617   C521    1.460   1_655 S
C627   H635    1.084   .     S
C627   H636    1.106   .     S
C628   H633    1.095   .     S
C628   H634    1.097   .     S
C628   C521    1.538   1_655 S
C628   C523    1.530   1_655 S
C629   H630    1.111   .     S
C629   H790    1.111   .     S
H631   C947    1.111   1_545 S
H632   C523    1.111   1_655 S
C637   C647    1.430   .     S
C637   O673    1.294   .     A
C637   O672    1.302   .     A
C638   C639    1.420   .     A
C638   C656    1.414   .     A
C638   C163    1.430   1_556 S
C639   C646    1.430   .     A
C639   C643    1.409   .     A
C640   C644    1.402   .     A
C641   C642    1.379   .     A
C641   C163    1.420   1_556 S
C641   C175    1.399   1_556 S
C642   C643    1.378   .     A
C642   H662    1.079   .     S
C643   H668    1.076   .     S
C644   C653    1.405   .     A
C644   H664    1.077   .     S
C645   C653    1.397   .     A
C645   C652    1.382   .     A
C645   H659    1.083   .     S
C646   C648    1.492   .     S
C646   C654    1.398   .     A
C647   C808    1.328   .     S
C647   H828    1.088   .     S
C648   O675    1.298   .     A
C648   O674    1.327   .     A
C649   C650    1.427   .     S
C650   O677    1.299   .     A
C650   O676    1.296   .     A
C651   O678    1.302   .     A
C651   O679    1.307   .     A
C651   C653    1.456   .     S
C652   H716    1.084   .     S
C654   H665    1.083   .     S
C654   C655    1.393   .     A
C655   C656    1.395   .     A
C655   H773    1.083   1_455 S
C656   H189    1.078   1_556 S
Cu657  N671    2.042   .     S
Cu657  Cu658   2.718   .     S
Cu657  O676    1.952   .     S
Cu657  O678    1.969   .     S
Cu657  O672    1.959   .     S
Cu657  O674    1.970   .     S
Cu658  O675    1.969   .     S
Cu658  N670    2.042   .     S
Cu658  O677    1.959   .     S
Cu658  O673    1.952   .     S
Cu658  O679    1.970   .     S
H660   C808    1.082   .     S
H661   N724    1.029   .     S
H663   C758    1.084   1_455 S
H667   C708    1.083   .     S
N670   N724    1.293   .     S
N670   C733    1.460   .     S
N671   N776    1.293   1_455 S
N671   H767    1.029   1_455 S
C680   H688    1.084   .     S
C680   H689    1.106   .     S
C680   N776    1.460   1_455 S
C680   C787    1.538   1_455 S
C681   H686    1.095   .     S
C681   H687    1.097   .     S
C681   C733    1.538   .     S
C681   C735    1.530   .     S
C682   H683    1.111   .     S
C682   C787    1.530   1_455 S
C682   H843    1.111   .     S
C682   H791    1.111   1_455 S
H685   C735    1.111   .     S
C690   C700    1.430   .     S
C690   O726    1.294   .     A
C690   O725    1.302   .     A
C691   C692    1.420   .     A
C691   C709    1.414   .     A
C691   C216    1.430   1_556 S
C692   C699    1.430   .     A
C692   C696    1.409   .     A
C693   C697    1.402   .     A
C694   C695    1.379   .     A
C694   C216    1.420   1_556 S
C694   C228    1.399   1_556 S
C695   C696    1.378   .     A
C695   H715    1.079   .     S
C696   H721    1.076   .     S
C697   C706    1.405   .     A
C697   H717    1.077   .     S
C698   C706    1.397   .     A
C698   C705    1.382   .     A
C698   H712    1.083   .     S
C699   C701    1.492   .     S
C699   C707    1.398   .     A
C700   C861    1.328   .     S
C700   H881    1.088   .     S
C701   O728    1.298   .     A
C701   O727    1.327   .     A
C702   C703    1.427   .     S
C703   O730    1.299   .     A
C703   O729    1.296   .     A
C704   O731    1.302   .     A
C704   O732    1.307   .     A
C704   C706    1.456   .     S
C705   H769    1.084   .     S
C707   H718    1.083   .     S
C707   C708    1.393   .     A
C708   C709    1.395   .     A
C709   H242    1.078   1_556 S
Cu710  N724    2.042   .     S
Cu710  Cu711   2.718   .     S
Cu710  O729    1.952   .     S
Cu710  O731    1.969   .     S
Cu710  O725    1.959   .     S
Cu710  O727    1.970   .     S
Cu711  O728    1.969   .     S
Cu711  N723    2.042   .     S
Cu711  O730    1.959   .     S
Cu711  O726    1.952   .     S
Cu711  O732    1.970   .     S
H713   C861    1.082   .     S
H714   N777    1.029   .     S
H720   C761    1.083   .     S
N723   N777    1.293   .     S
N723   C786    1.460   .     S
C733   H741    1.084   .     S
C733   H742    1.106   .     S
C734   H739    1.095   .     S
C734   H740    1.097   .     S
C734   C786    1.538   .     S
C734   C788    1.530   .     S
C735   H736    1.111   .     S
C735   H896    1.111   .     S
H738   C788    1.111   .     S
C743   C753    1.430   .     S
C743   O779    1.294   .     A
C743   O778    1.302   .     A
C744   C745    1.420   .     A
C744   C762    1.414   .     A
C744   C269    1.430   1_556 S
C745   C752    1.430   .     A
C745   C749    1.409   .     A
C746   C750    1.402   .     A
C747   C748    1.379   .     A
C747   C269    1.420   1_556 S
C747   C281    1.399   1_556 S
C748   C749    1.378   .     A
C748   H768    1.079   .     S
C749   H774    1.076   .     S
C750   C759    1.405   .     A
C750   H770    1.077   .     S
C751   C759    1.397   .     A
C751   C758    1.382   .     A
C751   H765    1.083   .     S
C752   C754    1.492   .     S
C752   C760    1.398   .     A
C753   C914    1.328   .     S
C753   H934    1.088   .     S
C754   O781    1.298   .     A
C754   O780    1.327   .     A
C755   C756    1.427   .     S
C756   O783    1.299   .     A
C756   O782    1.296   .     A
C757   O784    1.302   .     A
C757   O785    1.307   .     A
C757   C759    1.456   .     S
C758   H663    1.084   1_655 S
C760   H771    1.083   .     S
C760   C761    1.393   .     A
C761   C762    1.395   .     A
C762   H295    1.078   1_556 S
Cu763  N777    2.042   .     S
Cu763  Cu764   2.718   .     S
Cu763  O782    1.952   .     S
Cu763  O784    1.969   .     S
Cu763  O778    1.959   .     S
Cu763  O780    1.970   .     S
Cu764  O781    1.969   .     S
Cu764  N776    2.042   .     S
Cu764  O783    1.959   .     S
Cu764  O779    1.952   .     S
Cu764  O785    1.970   .     S
H766   C914    1.082   .     S
H767   N671    1.029   1_655 S
H773   C655    1.083   1_655 S
N776   N671    1.293   1_655 S
N776   C680    1.460   1_655 S
C786   H794    1.084   .     S
C786   H795    1.106   .     S
C787   H792    1.095   .     S
C787   H793    1.097   .     S
C787   C680    1.538   1_655 S
C787   C682    1.530   1_655 S
C788   H789    1.111   .     S
C788   H949    1.111   .     S
H791   C682    1.111   1_655 S
C796   C806    1.430   .     S
C796   O832    1.294   .     A
C796   O831    1.302   .     A
C797   C798    1.420   .     A
C797   C815    1.414   .     A
C797   C322    1.430   1_556 S
C798   C805    1.430   .     A
C798   C802    1.409   .     A
C799   C803    1.402   .     A
C800   C801    1.379   .     A
C800   C322    1.420   1_556 S
C800   C334    1.399   1_556 S
C801   C802    1.378   .     A
C801   H821    1.079   .     S
C802   H827    1.076   .     S
C803   C812    1.405   .     A
C803   H823    1.077   .     S
C804   C812    1.397   .     A
C804   C811    1.382   .     A
C804   H818    1.083   .     S
C805   C807    1.492   .     S
C805   C813    1.398   .     A
C806   C490    1.328   1_565 S
C806   H510    1.088   1_565 S
C807   O834    1.298   .     A
C807   O833    1.327   .     A
C808   C809    1.427   .     S
C809   O836    1.299   .     A
C809   O835    1.296   .     A
C810   O837    1.302   .     A
C810   O838    1.307   .     A
C810   C812    1.456   .     S
C811   H875    1.084   .     S
C813   H824    1.083   .     S
C813   C814    1.393   .     A
C814   C815    1.395   .     A
C814   H932    1.083   1_455 S
C815   H348    1.078   1_556 S
Cu816  N830    2.042   .     S
Cu816  Cu817   2.718   .     S
Cu816  O835    1.952   .     S
Cu816  O837    1.969   .     S
Cu816  O831    1.959   .     S
Cu816  O833    1.970   .     S
Cu817  O834    1.969   .     S
Cu817  N829    2.042   .     S
Cu817  O836    1.959   .     S
Cu817  O832    1.952   .     S
Cu817  O838    1.970   .     S
H819   C490    1.082   1_565 S
H820   N883    1.029   .     S
H822   C917    1.084   1_455 S
H826   C867    1.083   .     S
N829   N883    1.293   .     S
N829   C892    1.460   .     S
N830   N935    1.293   1_455 S
N830   H926    1.029   1_455 S
C839   H847    1.084   .     S
C839   H848    1.106   .     S
C839   N935    1.460   1_455 S
C839   C946    1.538   1_455 S
C840   H845    1.095   .     S
C840   H846    1.097   .     S
C840   C892    1.538   .     S
C840   C894    1.530   .     S
C841   H842    1.111   .     S
C841   C946    1.530   1_455 S
C841   H525    1.111   1_565 S
C841   H950    1.111   1_455 S
H844   C894    1.111   .     S
C849   C859    1.430   .     S
C849   O885    1.294   .     A
C849   O884    1.302   .     A
C850   C851    1.420   .     A
C850   C868    1.414   .     A
C850   C375    1.430   1_556 S
C851   C858    1.430   .     A
C851   C855    1.409   .     A
C852   C856    1.402   .     A
C853   C854    1.379   .     A
C853   C375    1.420   1_556 S
C853   C387    1.399   1_556 S
C854   C855    1.378   .     A
C854   H874    1.079   .     S
C855   H880    1.076   .     S
C856   C865    1.405   .     A
C856   H876    1.077   .     S
C857   C865    1.397   .     A
C857   C864    1.382   .     A
C857   H871    1.083   .     S
C858   C860    1.492   .     S
C858   C866    1.398   .     A
C859   C543    1.328   1_565 S
C859   H563    1.088   1_565 S
C860   O887    1.298   .     A
C860   O886    1.327   .     A
C861   C862    1.427   .     S
C862   O889    1.299   .     A
C862   O888    1.296   .     A
C863   O890    1.302   .     A
C863   O891    1.307   .     A
C863   C865    1.456   .     S
C864   H928    1.084   .     S
C866   H877    1.083   .     S
C866   C867    1.393   .     A
C867   C868    1.395   .     A
C868   H401    1.078   1_556 S
Cu869  N883    2.042   .     S
Cu869  Cu870   2.718   .     S
Cu869  O888    1.952   .     S
Cu869  O890    1.969   .     S
Cu869  O884    1.959   .     S
Cu869  O886    1.970   .     S
Cu870  O887    1.969   .     S
Cu870  N882    2.042   .     S
Cu870  O889    1.959   .     S
Cu870  O885    1.952   .     S
Cu870  O891    1.970   .     S
H872   C543    1.082   1_565 S
H873   N936    1.029   .     S
H879   C920    1.083   .     S
N882   N936    1.293   .     S
N882   C945    1.460   .     S
C892   H900    1.084   .     S
C892   H901    1.106   .     S
C893   H898    1.095   .     S
C893   H899    1.097   .     S
C893   C945    1.538   .     S
C893   C947    1.530   .     S
C894   H895    1.111   .     S
C894   H578    1.111   1_565 S
H897   C947    1.111   .     S
C902   C912    1.430   .     S
C902   O938    1.294   .     A
C902   O937    1.302   .     A
C903   C904    1.420   .     A
C903   C921    1.414   .     A
C903   C428    1.430   1_556 S
C904   C911    1.430   .     A
C904   C908    1.409   .     A
C905   C909    1.402   .     A
C906   C907    1.379   .     A
C906   C428    1.420   1_556 S
C906   C440    1.399   1_556 S
C907   C908    1.378   .     A
C907   H927    1.079   .     S
C908   H933    1.076   .     S
C909   C918    1.405   .     A
C909   H929    1.077   .     S
C910   C918    1.397   .     A
C910   C917    1.382   .     A
C910   H924    1.083   .     S
C911   C913    1.492   .     S
C911   C919    1.398   .     A
C912   C596    1.328   1_565 S
C912   H616    1.088   1_565 S
C913   O940    1.298   .     A
C913   O939    1.327   .     A
C914   C915    1.427   .     S
C915   O942    1.299   .     A
C915   O941    1.296   .     A
C916   O943    1.302   .     A
C916   O944    1.307   .     A
C916   C918    1.456   .     S
C917   H822    1.084   1_655 S
C919   H930    1.083   .     S
C919   C920    1.393   .     A
C920   C921    1.395   .     A
C921   H454    1.078   1_556 S
Cu922  N936    2.042   .     S
Cu922  Cu923   2.718   .     S
Cu922  O941    1.952   .     S
Cu922  O943    1.969   .     S
Cu922  O937    1.959   .     S
Cu922  O939    1.970   .     S
Cu923  O940    1.969   .     S
Cu923  N935    2.042   .     S
Cu923  O942    1.959   .     S
Cu923  O938    1.952   .     S
Cu923  O944    1.970   .     S
H925   C596    1.082   1_565 S
H926   N830    1.029   1_655 S
H932   C814    1.083   1_655 S
N935   N830    1.293   1_655 S
N935   C839    1.460   1_655 S
C945   H953    1.084   .     S
C945   H954    1.106   .     S
C946   H951    1.095   .     S
C946   H952    1.097   .     S
C946   C839    1.538   1_655 S
C946   C841    1.530   1_655 S
C947   H948    1.111   .     S
C947   H631    1.111   1_565 S
H950   C841    1.111   1_655 S
