data_str_m2_o2_o10_pcu_sym.26
_audit_creation_date              2020-01-03
_audit_creation_method            'Materials Studio'
_symmetry_space_group_name_H-M    'P1'
_symmetry_Int_Tables_number       1
_symmetry_cell_setting            triclinic
loop_
_symmetry_equiv_pos_as_xyz
  x,y,z
_cell_length_a                    25.9449
_cell_length_b                    30.2728
_cell_length_c                    27.6547
_cell_angle_alpha                 89.9981
_cell_angle_beta                  98.0337
_cell_angle_gamma                 90.0001
loop_
_atom_site_label
_atom_site_type_symbol
_atom_site_fract_x
_atom_site_fract_y
_atom_site_fract_z
_atom_site_U_iso_or_equiv
_atom_site_adp_type
_atom_site_occupancy
C1     C     0.16667   0.16489   0.25000   0.00000  Uiso   1.00
C2     C     0.18451   0.28674   0.44875   0.00000  Uiso   1.00
C3     C     0.16670   0.25006   0.02722   0.00000  Uiso   1.00
C4     C     0.16662   0.25005   0.47278   0.00000  Uiso   1.00
C5     C     0.06838   0.25688   0.23772   0.00000  Uiso   1.00
C6     C     0.26495   0.25689   0.26228   0.00000  Uiso   1.00
C7     C     0.01381   0.27136   0.23080   0.00000  Uiso   1.00
C8     C     0.31953   0.27135   0.26920   0.00000  Uiso   1.00
C9     C     0.15236   0.04749   0.28992   0.00000  Uiso   1.00
C10    C     0.14873   0.45231   0.20706   0.00000  Uiso   1.00
C11    C     0.15266   0.09340   0.29005   0.00000  Uiso   1.00
C12    C     0.16666   0.33507   0.25000   0.00000  Uiso   1.00
C13    C     0.14906   0.40640   0.20698   0.00000  Uiso   1.00
C14    C     0.16667   0.11662   0.25000   0.00000  Uiso   1.00
C15    C     0.16666   0.38324   0.25000   0.00000  Uiso   1.00
C16    C     0.18067   0.09340   0.20994   0.00000  Uiso   1.00
C17    C     0.18426   0.40640   0.29302   0.00000  Uiso   1.00
C18    C     0.18098   0.04749   0.21007   0.00000  Uiso   1.00
C19    C     0.18460   0.45231   0.29294   0.00000  Uiso   1.00
C20    C     0.16667   0.02417   0.25000   0.00000  Uiso   1.00
C21    C     0.16667   0.47562   0.25000   0.00000  Uiso   1.00
C22    C     0.32494   0.28987   0.18070   0.00000  Uiso   1.00
C23    C     0.14883   0.28675   0.05125   0.00000  Uiso   1.00
C24    C     0.02155   0.33126   0.16826   0.00000  Uiso   1.00
C25    C     0.33276   0.34975   0.11831   0.00000  Uiso   1.00
C26    C     0.00839   0.28987   0.31930   0.00000  Uiso   1.00
C27    C     0.31179   0.33126   0.33174   0.00000  Uiso   1.00
C28    C     0.00057   0.34973   0.38171   0.00000  Uiso   1.00
C29    C     0.14857   0.21339   0.44406   0.00000  Uiso   1.00
C30    C     0.14868   0.28591   0.10211   0.00000  Uiso   1.00
C31    C     0.14836   0.21422   0.39313   0.00000  Uiso   1.00
C32    C     0.18496   0.21423   0.10687   0.00000  Uiso   1.00
C33    C     0.18466   0.28589   0.39788   0.00000  Uiso   1.00
C34    C     0.18474   0.21340   0.05594   0.00000  Uiso   1.00
Cu35   Cu    0.16667   0.24999   0.29822   0.00000  Uiso   1.00
Cu36   Cu    0.16667   0.25000   0.20179   0.00000  Uiso   1.00
H37    H     0.14032   0.03024   0.32078   0.00000  Uiso   1.00
H38    H     0.13383   0.18453   0.46076   0.00000  Uiso   1.00
H39    H     0.13405   0.31427   0.11955   0.00000  Uiso   1.00
H40    H     0.13329   0.18602   0.37174   0.00000  Uiso   1.00
H41    H     0.20002   0.18603   0.12827   0.00000  Uiso   1.00
H42    H     0.19931   0.31425   0.38044   0.00000  Uiso   1.00
H43    H     0.19947   0.18452   0.03925   0.00000  Uiso   1.00
H44    H     0.19915   0.31566   0.46925   0.00000  Uiso   1.00
H45    H     0.00243   0.32476   0.08941   0.00000  Uiso   1.00
H46    H     0.29132   0.35926   0.11771   0.00000  Uiso   1.00
H47    H     0.02187   0.37950   0.11042   0.00000  Uiso   1.00
H48    H     0.13387   0.46954   0.17370   0.00000  Uiso   1.00
H49    H     0.01892   0.35706   0.19645   0.00000  Uiso   1.00
H50    H     0.06324   0.32374   0.16783   0.00000  Uiso   1.00
H51    H     0.32649   0.26398   0.15244   0.00000  Uiso   1.00
H52    H     0.28411   0.30099   0.17915   0.00000  Uiso   1.00
H53    H     0.33087   0.32474   0.41059   0.00000  Uiso   1.00
H54    H     0.04202   0.35923   0.38232   0.00000  Uiso   1.00
H55    H     0.31147   0.37949   0.38959   0.00000  Uiso   1.00
H56    H     0.31445   0.35707   0.30356   0.00000  Uiso   1.00
H57    H     0.27010   0.32375   0.33215   0.00000  Uiso   1.00
H58    H     0.00684   0.26397   0.34756   0.00000  Uiso   1.00
H59    H     0.14130   0.11069   0.32119   0.00000  Uiso   1.00
H60    H     0.04923   0.30097   0.32085   0.00000  Uiso   1.00
H61    H     0.13485   0.38906   0.17350   0.00000  Uiso   1.00
H62    H     0.19204   0.11069   0.17881   0.00000  Uiso   1.00
H63    H     0.19847   0.38906   0.32651   0.00000  Uiso   1.00
H64    H     0.19302   0.03024   0.17922   0.00000  Uiso   1.00
H65    H     0.19946   0.46954   0.32631   0.00000  Uiso   1.00
H66    H     0.13421   0.31568   0.03074   0.00000  Uiso   1.00
N67    N     0.16667   0.25001   0.12935   0.00000  Uiso   1.00
N68    N     0.16667   0.24999   0.37066   0.00000  Uiso   1.00
O69    O     0.16667   0.18572   0.29072   0.00000  Uiso   1.00
O70    O     0.16666   0.31428   0.20929   0.00000  Uiso   1.00
O71    O     0.16667   0.18573   0.20928   0.00000  Uiso   1.00
O72    O     0.16666   0.31427   0.29072   0.00000  Uiso   1.00
O73    O     0.09161   0.25000   0.28132   0.00000  Uiso   1.00
O74    O     0.24172   0.25000   0.21868   0.00000  Uiso   1.00
O75    O     0.09161   0.25000   0.19989   0.00000  Uiso   1.00
O76    O     0.24172   0.25000   0.30012   0.00000  Uiso   1.00
C77    C     0.50000   0.16489   0.25000   0.00000  Uiso   1.00
C78    C     0.51784   0.28674   0.44875   0.00000  Uiso   1.00
C79    C     0.50004   0.25006   0.02722   0.00000  Uiso   1.00
C80    C     0.49995   0.25005   0.47278   0.00000  Uiso   1.00
C81    C     0.40172   0.25688   0.23772   0.00000  Uiso   1.00
C82    C     0.59828   0.25689   0.26228   0.00000  Uiso   1.00
C83    C     0.34714   0.27136   0.23080   0.00000  Uiso   1.00
C84    C     0.65286   0.27135   0.26920   0.00000  Uiso   1.00
C85    C     0.48569   0.04749   0.28992   0.00000  Uiso   1.00
C86    C     0.48206   0.45231   0.20706   0.00000  Uiso   1.00
C87    C     0.48600   0.09340   0.29005   0.00000  Uiso   1.00
C88    C     0.50000   0.33507   0.25000   0.00000  Uiso   1.00
C89    C     0.48239   0.40640   0.20698   0.00000  Uiso   1.00
C90    C     0.50000   0.11662   0.25000   0.00000  Uiso   1.00
C91    C     0.49999   0.38324   0.25000   0.00000  Uiso   1.00
C92    C     0.51401   0.09340   0.20994   0.00000  Uiso   1.00
C93    C     0.51760   0.40640   0.29302   0.00000  Uiso   1.00
C94    C     0.51431   0.04749   0.21007   0.00000  Uiso   1.00
C95    C     0.51793   0.45231   0.29294   0.00000  Uiso   1.00
C96    C     0.50000   0.02417   0.25000   0.00000  Uiso   1.00
C97    C     0.50000   0.47562   0.25000   0.00000  Uiso   1.00
C98    C     0.65828   0.28987   0.18070   0.00000  Uiso   1.00
C99    C     0.48217   0.28675   0.05125   0.00000  Uiso   1.00
C100   C     0.35488   0.33126   0.16826   0.00000  Uiso   1.00
C101   C     0.66609   0.34975   0.11831   0.00000  Uiso   1.00
C102   C     0.34173   0.28987   0.31930   0.00000  Uiso   1.00
C103   C     0.64513   0.33126   0.33174   0.00000  Uiso   1.00
C104   C     0.33390   0.34973   0.38171   0.00000  Uiso   1.00
C105   C     0.48190   0.21339   0.44406   0.00000  Uiso   1.00
C106   C     0.48202   0.28591   0.10211   0.00000  Uiso   1.00
C107   C     0.48169   0.21422   0.39313   0.00000  Uiso   1.00
C108   C     0.51829   0.21423   0.10687   0.00000  Uiso   1.00
C109   C     0.51800   0.28589   0.39788   0.00000  Uiso   1.00
C110   C     0.51807   0.21340   0.05594   0.00000  Uiso   1.00
Cu111  Cu    0.50000   0.24999   0.29822   0.00000  Uiso   1.00
Cu112  Cu    0.50000   0.25000   0.20179   0.00000  Uiso   1.00
H113   H     0.47365   0.03024   0.32078   0.00000  Uiso   1.00
H114   H     0.46716   0.18453   0.46076   0.00000  Uiso   1.00
H115   H     0.46738   0.31427   0.11955   0.00000  Uiso   1.00
H116   H     0.46662   0.18602   0.37174   0.00000  Uiso   1.00
H117   H     0.53335   0.18603   0.12827   0.00000  Uiso   1.00
H118   H     0.53264   0.31425   0.38044   0.00000  Uiso   1.00
H119   H     0.53280   0.18452   0.03925   0.00000  Uiso   1.00
H120   H     0.53248   0.31566   0.46925   0.00000  Uiso   1.00
H121   H     0.33577   0.32476   0.08941   0.00000  Uiso   1.00
H122   H     0.62465   0.35926   0.11771   0.00000  Uiso   1.00
H123   H     0.35520   0.37950   0.11042   0.00000  Uiso   1.00
H124   H     0.46720   0.46954   0.17370   0.00000  Uiso   1.00
H125   H     0.35225   0.35706   0.19645   0.00000  Uiso   1.00
H126   H     0.39657   0.32374   0.16783   0.00000  Uiso   1.00
H127   H     0.65982   0.26398   0.15244   0.00000  Uiso   1.00
H128   H     0.61745   0.30099   0.17915   0.00000  Uiso   1.00
H129   H     0.66421   0.32474   0.41059   0.00000  Uiso   1.00
H130   H     0.37536   0.35923   0.38232   0.00000  Uiso   1.00
H131   H     0.64481   0.37949   0.38959   0.00000  Uiso   1.00
H132   H     0.64778   0.35707   0.30356   0.00000  Uiso   1.00
H133   H     0.60343   0.32375   0.33215   0.00000  Uiso   1.00
H134   H     0.34017   0.26397   0.34756   0.00000  Uiso   1.00
H135   H     0.47464   0.11069   0.32119   0.00000  Uiso   1.00
H136   H     0.38256   0.30097   0.32085   0.00000  Uiso   1.00
H137   H     0.46819   0.38906   0.17350   0.00000  Uiso   1.00
H138   H     0.52537   0.11069   0.17881   0.00000  Uiso   1.00
H139   H     0.53180   0.38906   0.32651   0.00000  Uiso   1.00
H140   H     0.52635   0.03024   0.17922   0.00000  Uiso   1.00
H141   H     0.53279   0.46954   0.32631   0.00000  Uiso   1.00
H142   H     0.46754   0.31568   0.03074   0.00000  Uiso   1.00
N143   N     0.50000   0.25001   0.12935   0.00000  Uiso   1.00
N144   N     0.50000   0.24999   0.37066   0.00000  Uiso   1.00
O145   O     0.50000   0.18572   0.29072   0.00000  Uiso   1.00
O146   O     0.50000   0.31428   0.20929   0.00000  Uiso   1.00
O147   O     0.50000   0.18573   0.20928   0.00000  Uiso   1.00
O148   O     0.50000   0.31427   0.29072   0.00000  Uiso   1.00
O149   O     0.42495   0.25000   0.28132   0.00000  Uiso   1.00
O150   O     0.57505   0.25000   0.21868   0.00000  Uiso   1.00
O151   O     0.42495   0.25000   0.19989   0.00000  Uiso   1.00
O152   O     0.57505   0.25000   0.30012   0.00000  Uiso   1.00
C153   C     0.83334   0.16489   0.25000   0.00000  Uiso   1.00
C154   C     0.85118   0.28674   0.44875   0.00000  Uiso   1.00
C155   C     0.83337   0.25006   0.02722   0.00000  Uiso   1.00
C156   C     0.83329   0.25005   0.47278   0.00000  Uiso   1.00
C157   C     0.73505   0.25688   0.23772   0.00000  Uiso   1.00
C158   C     0.93162   0.25689   0.26228   0.00000  Uiso   1.00
C159   C     0.68048   0.27136   0.23080   0.00000  Uiso   1.00
C160   C     0.98619   0.27135   0.26920   0.00000  Uiso   1.00
C161   C     0.81902   0.04749   0.28992   0.00000  Uiso   1.00
C162   C     0.81540   0.45231   0.20706   0.00000  Uiso   1.00
C163   C     0.81933   0.09340   0.29005   0.00000  Uiso   1.00
C164   C     0.83333   0.33507   0.25000   0.00000  Uiso   1.00
C165   C     0.81573   0.40640   0.20698   0.00000  Uiso   1.00
C166   C     0.83334   0.11662   0.25000   0.00000  Uiso   1.00
C167   C     0.83333   0.38324   0.25000   0.00000  Uiso   1.00
C168   C     0.84734   0.09340   0.20994   0.00000  Uiso   1.00
C169   C     0.85093   0.40640   0.29302   0.00000  Uiso   1.00
C170   C     0.84765   0.04749   0.21007   0.00000  Uiso   1.00
C171   C     0.85127   0.45231   0.29294   0.00000  Uiso   1.00
C172   C     0.83333   0.02417   0.25000   0.00000  Uiso   1.00
C173   C     0.83333   0.47562   0.25000   0.00000  Uiso   1.00
C174   C     0.99161   0.28987   0.18070   0.00000  Uiso   1.00
C175   C     0.81550   0.28675   0.05125   0.00000  Uiso   1.00
C176   C     0.68822   0.33126   0.16826   0.00000  Uiso   1.00
C177   C     0.99943   0.34975   0.11831   0.00000  Uiso   1.00
C178   C     0.67506   0.28987   0.31930   0.00000  Uiso   1.00
C179   C     0.97846   0.33126   0.33174   0.00000  Uiso   1.00
C180   C     0.66724   0.34973   0.38171   0.00000  Uiso   1.00
C181   C     0.81524   0.21339   0.44406   0.00000  Uiso   1.00
C182   C     0.81535   0.28591   0.10211   0.00000  Uiso   1.00
C183   C     0.81503   0.21422   0.39313   0.00000  Uiso   1.00
C184   C     0.85162   0.21423   0.10687   0.00000  Uiso   1.00
C185   C     0.85133   0.28589   0.39788   0.00000  Uiso   1.00
C186   C     0.85141   0.21340   0.05594   0.00000  Uiso   1.00
Cu187  Cu    0.83333   0.24999   0.29822   0.00000  Uiso   1.00
Cu188  Cu    0.83333   0.25000   0.20179   0.00000  Uiso   1.00
H189   H     0.80698   0.03024   0.32078   0.00000  Uiso   1.00
H190   H     0.80050   0.18453   0.46076   0.00000  Uiso   1.00
H191   H     0.80072   0.31427   0.11955   0.00000  Uiso   1.00
H192   H     0.79996   0.18602   0.37174   0.00000  Uiso   1.00
H193   H     0.86669   0.18603   0.12827   0.00000  Uiso   1.00
H194   H     0.86598   0.31425   0.38044   0.00000  Uiso   1.00
H195   H     0.86614   0.18452   0.03925   0.00000  Uiso   1.00
H196   H     0.86581   0.31566   0.46925   0.00000  Uiso   1.00
H197   H     0.66910   0.32476   0.08941   0.00000  Uiso   1.00
H198   H     0.95798   0.35926   0.11771   0.00000  Uiso   1.00
H199   H     0.68853   0.37950   0.11042   0.00000  Uiso   1.00
H200   H     0.80054   0.46954   0.17370   0.00000  Uiso   1.00
H201   H     0.68558   0.35706   0.19645   0.00000  Uiso   1.00
H202   H     0.72990   0.32374   0.16783   0.00000  Uiso   1.00
H203   H     0.99316   0.26398   0.15244   0.00000  Uiso   1.00
H204   H     0.95078   0.30099   0.17915   0.00000  Uiso   1.00
H205   H     0.99754   0.32474   0.41059   0.00000  Uiso   1.00
H206   H     0.70869   0.35923   0.38232   0.00000  Uiso   1.00
H207   H     0.97814   0.37949   0.38959   0.00000  Uiso   1.00
H208   H     0.98112   0.35707   0.30356   0.00000  Uiso   1.00
H209   H     0.93677   0.32375   0.33215   0.00000  Uiso   1.00
H210   H     0.67350   0.26397   0.34756   0.00000  Uiso   1.00
H211   H     0.80797   0.11069   0.32119   0.00000  Uiso   1.00
H212   H     0.71589   0.30097   0.32085   0.00000  Uiso   1.00
H213   H     0.80152   0.38906   0.17350   0.00000  Uiso   1.00
H214   H     0.85870   0.11069   0.17881   0.00000  Uiso   1.00
H215   H     0.86513   0.38906   0.32651   0.00000  Uiso   1.00
H216   H     0.85968   0.03024   0.17922   0.00000  Uiso   1.00
H217   H     0.86613   0.46954   0.32631   0.00000  Uiso   1.00
H218   H     0.80087   0.31568   0.03074   0.00000  Uiso   1.00
N219   N     0.83333   0.25001   0.12935   0.00000  Uiso   1.00
N220   N     0.83333   0.24999   0.37066   0.00000  Uiso   1.00
O221   O     0.83334   0.18572   0.29072   0.00000  Uiso   1.00
O222   O     0.83333   0.31428   0.20929   0.00000  Uiso   1.00
O223   O     0.83334   0.18573   0.20928   0.00000  Uiso   1.00
O224   O     0.83333   0.31427   0.29072   0.00000  Uiso   1.00
O225   O     0.75828   0.25000   0.28132   0.00000  Uiso   1.00
O226   O     0.90839   0.25000   0.21868   0.00000  Uiso   1.00
O227   O     0.75828   0.25000   0.19989   0.00000  Uiso   1.00
O228   O     0.90839   0.25000   0.30012   0.00000  Uiso   1.00
C229   C     0.16667   0.66489   0.25000   0.00000  Uiso   1.00
C230   C     0.18451   0.78674   0.44875   0.00000  Uiso   1.00
C231   C     0.16670   0.75006   0.02722   0.00000  Uiso   1.00
C232   C     0.16662   0.75005   0.47278   0.00000  Uiso   1.00
C233   C     0.06838   0.75688   0.23772   0.00000  Uiso   1.00
C234   C     0.26495   0.75689   0.26228   0.00000  Uiso   1.00
C235   C     0.01381   0.77136   0.23080   0.00000  Uiso   1.00
C236   C     0.31953   0.77135   0.26920   0.00000  Uiso   1.00
C237   C     0.15236   0.54749   0.28992   0.00000  Uiso   1.00
C238   C     0.14873   0.95231   0.20706   0.00000  Uiso   1.00
C239   C     0.15266   0.59340   0.29005   0.00000  Uiso   1.00
C240   C     0.16666   0.83507   0.25000   0.00000  Uiso   1.00
C241   C     0.14906   0.90640   0.20698   0.00000  Uiso   1.00
C242   C     0.16667   0.61662   0.25000   0.00000  Uiso   1.00
C243   C     0.16666   0.88324   0.25000   0.00000  Uiso   1.00
C244   C     0.18067   0.59340   0.20994   0.00000  Uiso   1.00
C245   C     0.18426   0.90640   0.29302   0.00000  Uiso   1.00
C246   C     0.18098   0.54749   0.21007   0.00000  Uiso   1.00
C247   C     0.18460   0.95231   0.29294   0.00000  Uiso   1.00
C248   C     0.16667   0.52417   0.25000   0.00000  Uiso   1.00
C249   C     0.16667   0.97562   0.25000   0.00000  Uiso   1.00
C250   C     0.32494   0.78987   0.18070   0.00000  Uiso   1.00
C251   C     0.14883   0.78675   0.05125   0.00000  Uiso   1.00
C252   C     0.02155   0.83126   0.16826   0.00000  Uiso   1.00
C253   C     0.33276   0.84975   0.11831   0.00000  Uiso   1.00
C254   C     0.00839   0.78987   0.31930   0.00000  Uiso   1.00
C255   C     0.31179   0.83126   0.33174   0.00000  Uiso   1.00
C256   C     0.00057   0.84973   0.38171   0.00000  Uiso   1.00
C257   C     0.14857   0.71339   0.44406   0.00000  Uiso   1.00
C258   C     0.14868   0.78591   0.10211   0.00000  Uiso   1.00
C259   C     0.14836   0.71422   0.39313   0.00000  Uiso   1.00
C260   C     0.18496   0.71423   0.10687   0.00000  Uiso   1.00
C261   C     0.18466   0.78589   0.39788   0.00000  Uiso   1.00
C262   C     0.18474   0.71340   0.05594   0.00000  Uiso   1.00
Cu263  Cu    0.16667   0.74999   0.29822   0.00000  Uiso   1.00
Cu264  Cu    0.16667   0.75000   0.20179   0.00000  Uiso   1.00
H265   H     0.14032   0.53024   0.32078   0.00000  Uiso   1.00
H266   H     0.13383   0.68453   0.46076   0.00000  Uiso   1.00
H267   H     0.13405   0.81427   0.11955   0.00000  Uiso   1.00
H268   H     0.13329   0.68602   0.37174   0.00000  Uiso   1.00
H269   H     0.20002   0.68603   0.12827   0.00000  Uiso   1.00
H270   H     0.19931   0.81425   0.38044   0.00000  Uiso   1.00
H271   H     0.19947   0.68452   0.03925   0.00000  Uiso   1.00
H272   H     0.19915   0.81566   0.46925   0.00000  Uiso   1.00
H273   H     0.00243   0.82476   0.08941   0.00000  Uiso   1.00
H274   H     0.29132   0.85926   0.11771   0.00000  Uiso   1.00
H275   H     0.02187   0.87950   0.11042   0.00000  Uiso   1.00
H276   H     0.13387   0.96954   0.17370   0.00000  Uiso   1.00
H277   H     0.01892   0.85706   0.19645   0.00000  Uiso   1.00
H278   H     0.06324   0.82374   0.16783   0.00000  Uiso   1.00
H279   H     0.32649   0.76398   0.15244   0.00000  Uiso   1.00
H280   H     0.28411   0.80099   0.17915   0.00000  Uiso   1.00
H281   H     0.33087   0.82474   0.41059   0.00000  Uiso   1.00
H282   H     0.04202   0.85923   0.38232   0.00000  Uiso   1.00
H283   H     0.31147   0.87949   0.38959   0.00000  Uiso   1.00
H284   H     0.31445   0.85707   0.30356   0.00000  Uiso   1.00
H285   H     0.27010   0.82375   0.33215   0.00000  Uiso   1.00
H286   H     0.00684   0.76397   0.34756   0.00000  Uiso   1.00
H287   H     0.14130   0.61069   0.32119   0.00000  Uiso   1.00
H288   H     0.04923   0.80097   0.32085   0.00000  Uiso   1.00
H289   H     0.13485   0.88906   0.17350   0.00000  Uiso   1.00
H290   H     0.19204   0.61069   0.17881   0.00000  Uiso   1.00
H291   H     0.19847   0.88906   0.32651   0.00000  Uiso   1.00
H292   H     0.19302   0.53024   0.17922   0.00000  Uiso   1.00
H293   H     0.19946   0.96954   0.32631   0.00000  Uiso   1.00
H294   H     0.13421   0.81568   0.03074   0.00000  Uiso   1.00
N295   N     0.16667   0.75001   0.12935   0.00000  Uiso   1.00
N296   N     0.16667   0.74999   0.37066   0.00000  Uiso   1.00
O297   O     0.16667   0.68572   0.29072   0.00000  Uiso   1.00
O298   O     0.16666   0.81428   0.20929   0.00000  Uiso   1.00
O299   O     0.16667   0.68573   0.20928   0.00000  Uiso   1.00
O300   O     0.16666   0.81427   0.29072   0.00000  Uiso   1.00
O301   O     0.09161   0.75000   0.28132   0.00000  Uiso   1.00
O302   O     0.24172   0.75000   0.21868   0.00000  Uiso   1.00
O303   O     0.09161   0.75000   0.19989   0.00000  Uiso   1.00
O304   O     0.24172   0.75000   0.30012   0.00000  Uiso   1.00
C305   C     0.50000   0.66489   0.25000   0.00000  Uiso   1.00
C306   C     0.51784   0.78674   0.44875   0.00000  Uiso   1.00
C307   C     0.50004   0.75006   0.02722   0.00000  Uiso   1.00
C308   C     0.49995   0.75005   0.47278   0.00000  Uiso   1.00
C309   C     0.40172   0.75688   0.23772   0.00000  Uiso   1.00
C310   C     0.59828   0.75689   0.26228   0.00000  Uiso   1.00
C311   C     0.34714   0.77136   0.23080   0.00000  Uiso   1.00
C312   C     0.65286   0.77135   0.26920   0.00000  Uiso   1.00
C313   C     0.48569   0.54749   0.28992   0.00000  Uiso   1.00
C314   C     0.48206   0.95231   0.20706   0.00000  Uiso   1.00
C315   C     0.48600   0.59340   0.29005   0.00000  Uiso   1.00
C316   C     0.50000   0.83507   0.25000   0.00000  Uiso   1.00
C317   C     0.48239   0.90640   0.20698   0.00000  Uiso   1.00
C318   C     0.50000   0.61662   0.25000   0.00000  Uiso   1.00
C319   C     0.49999   0.88324   0.25000   0.00000  Uiso   1.00
C320   C     0.51401   0.59340   0.20994   0.00000  Uiso   1.00
C321   C     0.51760   0.90640   0.29302   0.00000  Uiso   1.00
C322   C     0.51431   0.54749   0.21007   0.00000  Uiso   1.00
C323   C     0.51793   0.95231   0.29294   0.00000  Uiso   1.00
C324   C     0.50000   0.52417   0.25000   0.00000  Uiso   1.00
C325   C     0.50000   0.97562   0.25000   0.00000  Uiso   1.00
C326   C     0.65828   0.78987   0.18070   0.00000  Uiso   1.00
C327   C     0.48217   0.78675   0.05125   0.00000  Uiso   1.00
C328   C     0.35488   0.83126   0.16826   0.00000  Uiso   1.00
C329   C     0.66609   0.84975   0.11831   0.00000  Uiso   1.00
C330   C     0.34173   0.78987   0.31930   0.00000  Uiso   1.00
C331   C     0.64513   0.83126   0.33174   0.00000  Uiso   1.00
C332   C     0.33390   0.84973   0.38171   0.00000  Uiso   1.00
C333   C     0.48190   0.71339   0.44406   0.00000  Uiso   1.00
C334   C     0.48202   0.78591   0.10211   0.00000  Uiso   1.00
C335   C     0.48169   0.71422   0.39313   0.00000  Uiso   1.00
C336   C     0.51829   0.71423   0.10687   0.00000  Uiso   1.00
C337   C     0.51800   0.78589   0.39788   0.00000  Uiso   1.00
C338   C     0.51807   0.71340   0.05594   0.00000  Uiso   1.00
Cu339  Cu    0.50000   0.74999   0.29822   0.00000  Uiso   1.00
Cu340  Cu    0.50000   0.75000   0.20179   0.00000  Uiso   1.00
H341   H     0.47365   0.53024   0.32078   0.00000  Uiso   1.00
H342   H     0.46716   0.68453   0.46076   0.00000  Uiso   1.00
H343   H     0.46738   0.81427   0.11955   0.00000  Uiso   1.00
H344   H     0.46662   0.68602   0.37174   0.00000  Uiso   1.00
H345   H     0.53335   0.68603   0.12827   0.00000  Uiso   1.00
H346   H     0.53264   0.81425   0.38044   0.00000  Uiso   1.00
H347   H     0.53280   0.68452   0.03925   0.00000  Uiso   1.00
H348   H     0.53248   0.81566   0.46925   0.00000  Uiso   1.00
H349   H     0.33577   0.82476   0.08941   0.00000  Uiso   1.00
H350   H     0.62465   0.85926   0.11771   0.00000  Uiso   1.00
H351   H     0.35520   0.87950   0.11042   0.00000  Uiso   1.00
H352   H     0.46720   0.96954   0.17370   0.00000  Uiso   1.00
H353   H     0.35225   0.85706   0.19645   0.00000  Uiso   1.00
H354   H     0.39657   0.82374   0.16783   0.00000  Uiso   1.00
H355   H     0.65982   0.76398   0.15244   0.00000  Uiso   1.00
H356   H     0.61745   0.80099   0.17915   0.00000  Uiso   1.00
H357   H     0.66421   0.82474   0.41059   0.00000  Uiso   1.00
H358   H     0.37536   0.85923   0.38232   0.00000  Uiso   1.00
H359   H     0.64481   0.87949   0.38959   0.00000  Uiso   1.00
H360   H     0.64778   0.85707   0.30356   0.00000  Uiso   1.00
H361   H     0.60343   0.82375   0.33215   0.00000  Uiso   1.00
H362   H     0.34017   0.76397   0.34756   0.00000  Uiso   1.00
H363   H     0.47464   0.61069   0.32119   0.00000  Uiso   1.00
H364   H     0.38256   0.80097   0.32085   0.00000  Uiso   1.00
H365   H     0.46819   0.88906   0.17350   0.00000  Uiso   1.00
H366   H     0.52537   0.61069   0.17881   0.00000  Uiso   1.00
H367   H     0.53180   0.88906   0.32651   0.00000  Uiso   1.00
H368   H     0.52635   0.53024   0.17922   0.00000  Uiso   1.00
H369   H     0.53279   0.96954   0.32631   0.00000  Uiso   1.00
H370   H     0.46754   0.81568   0.03074   0.00000  Uiso   1.00
N371   N     0.50000   0.75001   0.12935   0.00000  Uiso   1.00
N372   N     0.50000   0.74999   0.37066   0.00000  Uiso   1.00
O373   O     0.50000   0.68572   0.29072   0.00000  Uiso   1.00
O374   O     0.50000   0.81428   0.20929   0.00000  Uiso   1.00
O375   O     0.50000   0.68573   0.20928   0.00000  Uiso   1.00
O376   O     0.50000   0.81427   0.29072   0.00000  Uiso   1.00
O377   O     0.42495   0.75000   0.28132   0.00000  Uiso   1.00
O378   O     0.57505   0.75000   0.21868   0.00000  Uiso   1.00
O379   O     0.42495   0.75000   0.19989   0.00000  Uiso   1.00
O380   O     0.57505   0.75000   0.30012   0.00000  Uiso   1.00
C381   C     0.83334   0.66489   0.25000   0.00000  Uiso   1.00
C382   C     0.85118   0.78674   0.44875   0.00000  Uiso   1.00
C383   C     0.83337   0.75006   0.02722   0.00000  Uiso   1.00
C384   C     0.83329   0.75005   0.47278   0.00000  Uiso   1.00
C385   C     0.73505   0.75688   0.23772   0.00000  Uiso   1.00
C386   C     0.93162   0.75689   0.26228   0.00000  Uiso   1.00
C387   C     0.68048   0.77136   0.23080   0.00000  Uiso   1.00
C388   C     0.98619   0.77135   0.26920   0.00000  Uiso   1.00
C389   C     0.81902   0.54749   0.28992   0.00000  Uiso   1.00
C390   C     0.81540   0.95231   0.20706   0.00000  Uiso   1.00
C391   C     0.81933   0.59340   0.29005   0.00000  Uiso   1.00
C392   C     0.83333   0.83507   0.25000   0.00000  Uiso   1.00
C393   C     0.81573   0.90640   0.20698   0.00000  Uiso   1.00
C394   C     0.83334   0.61662   0.25000   0.00000  Uiso   1.00
C395   C     0.83333   0.88324   0.25000   0.00000  Uiso   1.00
C396   C     0.84734   0.59340   0.20994   0.00000  Uiso   1.00
C397   C     0.85093   0.90640   0.29302   0.00000  Uiso   1.00
C398   C     0.84765   0.54749   0.21007   0.00000  Uiso   1.00
C399   C     0.85127   0.95231   0.29294   0.00000  Uiso   1.00
C400   C     0.83333   0.52417   0.25000   0.00000  Uiso   1.00
C401   C     0.83333   0.97562   0.25000   0.00000  Uiso   1.00
C402   C     0.99161   0.78987   0.18070   0.00000  Uiso   1.00
C403   C     0.81550   0.78675   0.05125   0.00000  Uiso   1.00
C404   C     0.68822   0.83126   0.16826   0.00000  Uiso   1.00
C405   C     0.99943   0.84975   0.11831   0.00000  Uiso   1.00
C406   C     0.67506   0.78987   0.31930   0.00000  Uiso   1.00
C407   C     0.97846   0.83126   0.33174   0.00000  Uiso   1.00
C408   C     0.66724   0.84973   0.38171   0.00000  Uiso   1.00
C409   C     0.81524   0.71339   0.44406   0.00000  Uiso   1.00
C410   C     0.81535   0.78591   0.10211   0.00000  Uiso   1.00
C411   C     0.81503   0.71422   0.39313   0.00000  Uiso   1.00
C412   C     0.85162   0.71423   0.10687   0.00000  Uiso   1.00
C413   C     0.85133   0.78589   0.39788   0.00000  Uiso   1.00
C414   C     0.85141   0.71340   0.05594   0.00000  Uiso   1.00
Cu415  Cu    0.83333   0.74999   0.29822   0.00000  Uiso   1.00
Cu416  Cu    0.83333   0.75000   0.20179   0.00000  Uiso   1.00
H417   H     0.80698   0.53024   0.32078   0.00000  Uiso   1.00
H418   H     0.80050   0.68453   0.46076   0.00000  Uiso   1.00
H419   H     0.80072   0.81427   0.11955   0.00000  Uiso   1.00
H420   H     0.79996   0.68602   0.37174   0.00000  Uiso   1.00
H421   H     0.86669   0.68603   0.12827   0.00000  Uiso   1.00
H422   H     0.86598   0.81425   0.38044   0.00000  Uiso   1.00
H423   H     0.86614   0.68452   0.03925   0.00000  Uiso   1.00
H424   H     0.86581   0.81566   0.46925   0.00000  Uiso   1.00
H425   H     0.66910   0.82476   0.08941   0.00000  Uiso   1.00
H426   H     0.95798   0.85926   0.11771   0.00000  Uiso   1.00
H427   H     0.68853   0.87950   0.11042   0.00000  Uiso   1.00
H428   H     0.80054   0.96954   0.17370   0.00000  Uiso   1.00
H429   H     0.68558   0.85706   0.19645   0.00000  Uiso   1.00
H430   H     0.72990   0.82374   0.16783   0.00000  Uiso   1.00
H431   H     0.99316   0.76398   0.15244   0.00000  Uiso   1.00
H432   H     0.95078   0.80099   0.17915   0.00000  Uiso   1.00
H433   H     0.99754   0.82474   0.41059   0.00000  Uiso   1.00
H434   H     0.70869   0.85923   0.38232   0.00000  Uiso   1.00
H435   H     0.97814   0.87949   0.38959   0.00000  Uiso   1.00
H436   H     0.98112   0.85707   0.30356   0.00000  Uiso   1.00
H437   H     0.93677   0.82375   0.33215   0.00000  Uiso   1.00
H438   H     0.67350   0.76397   0.34756   0.00000  Uiso   1.00
H439   H     0.80797   0.61069   0.32119   0.00000  Uiso   1.00
H440   H     0.71589   0.80097   0.32085   0.00000  Uiso   1.00
H441   H     0.80152   0.88906   0.17350   0.00000  Uiso   1.00
H442   H     0.85870   0.61069   0.17881   0.00000  Uiso   1.00
H443   H     0.86513   0.88906   0.32651   0.00000  Uiso   1.00
H444   H     0.85968   0.53024   0.17922   0.00000  Uiso   1.00
H445   H     0.86613   0.96954   0.32631   0.00000  Uiso   1.00
H446   H     0.80087   0.81568   0.03074   0.00000  Uiso   1.00
N447   N     0.83333   0.75001   0.12935   0.00000  Uiso   1.00
N448   N     0.83333   0.74999   0.37066   0.00000  Uiso   1.00
O449   O     0.83334   0.68572   0.29072   0.00000  Uiso   1.00
O450   O     0.83333   0.81428   0.20929   0.00000  Uiso   1.00
O451   O     0.83334   0.68573   0.20928   0.00000  Uiso   1.00
O452   O     0.83333   0.81427   0.29072   0.00000  Uiso   1.00
O453   O     0.75828   0.75000   0.28132   0.00000  Uiso   1.00
O454   O     0.90839   0.75000   0.21868   0.00000  Uiso   1.00
O455   O     0.75828   0.75000   0.19989   0.00000  Uiso   1.00
O456   O     0.90839   0.75000   0.30012   0.00000  Uiso   1.00
C457   C     0.16667   0.16489   0.75000   0.00000  Uiso   1.00
C458   C     0.18451   0.28674   0.94875   0.00000  Uiso   1.00
C459   C     0.16670   0.25006   0.52722   0.00000  Uiso   1.00
C460   C     0.16662   0.25005   0.97278   0.00000  Uiso   1.00
C461   C     0.06838   0.25688   0.73772   0.00000  Uiso   1.00
C462   C     0.26495   0.25689   0.76228   0.00000  Uiso   1.00
C463   C     0.01381   0.27136   0.73080   0.00000  Uiso   1.00
C464   C     0.31953   0.27135   0.76920   0.00000  Uiso   1.00
C465   C     0.15236   0.04749   0.78992   0.00000  Uiso   1.00
C466   C     0.14873   0.45231   0.70706   0.00000  Uiso   1.00
C467   C     0.15266   0.09340   0.79005   0.00000  Uiso   1.00
C468   C     0.16666   0.33507   0.75000   0.00000  Uiso   1.00
C469   C     0.14906   0.40640   0.70698   0.00000  Uiso   1.00
C470   C     0.16667   0.11662   0.75000   0.00000  Uiso   1.00
C471   C     0.16666   0.38324   0.75000   0.00000  Uiso   1.00
C472   C     0.18067   0.09340   0.70994   0.00000  Uiso   1.00
C473   C     0.18426   0.40640   0.79302   0.00000  Uiso   1.00
C474   C     0.18098   0.04749   0.71007   0.00000  Uiso   1.00
C475   C     0.18460   0.45231   0.79294   0.00000  Uiso   1.00
C476   C     0.16667   0.02417   0.75000   0.00000  Uiso   1.00
C477   C     0.16667   0.47562   0.75000   0.00000  Uiso   1.00
C478   C     0.32494   0.28987   0.68070   0.00000  Uiso   1.00
C479   C     0.14883   0.28675   0.55125   0.00000  Uiso   1.00
C480   C     0.02155   0.33126   0.66826   0.00000  Uiso   1.00
C481   C     0.33276   0.34975   0.61831   0.00000  Uiso   1.00
C482   C     0.00839   0.28987   0.81930   0.00000  Uiso   1.00
C483   C     0.31179   0.33126   0.83174   0.00000  Uiso   1.00
C484   C     0.00057   0.34973   0.88171   0.00000  Uiso   1.00
C485   C     0.14857   0.21339   0.94406   0.00000  Uiso   1.00
C486   C     0.14868   0.28591   0.60211   0.00000  Uiso   1.00
C487   C     0.14836   0.21422   0.89313   0.00000  Uiso   1.00
C488   C     0.18496   0.21423   0.60687   0.00000  Uiso   1.00
C489   C     0.18466   0.28589   0.89788   0.00000  Uiso   1.00
C490   C     0.18474   0.21340   0.55594   0.00000  Uiso   1.00
Cu491  Cu    0.16667   0.24999   0.79822   0.00000  Uiso   1.00
Cu492  Cu    0.16667   0.25000   0.70179   0.00000  Uiso   1.00
H493   H     0.14032   0.03024   0.82078   0.00000  Uiso   1.00
H494   H     0.13383   0.18453   0.96076   0.00000  Uiso   1.00
H495   H     0.13405   0.31427   0.61955   0.00000  Uiso   1.00
H496   H     0.13329   0.18602   0.87174   0.00000  Uiso   1.00
H497   H     0.20002   0.18603   0.62827   0.00000  Uiso   1.00
H498   H     0.19931   0.31425   0.88044   0.00000  Uiso   1.00
H499   H     0.19947   0.18452   0.53925   0.00000  Uiso   1.00
H500   H     0.19915   0.31566   0.96925   0.00000  Uiso   1.00
H501   H     0.00243   0.32476   0.58941   0.00000  Uiso   1.00
H502   H     0.29132   0.35926   0.61771   0.00000  Uiso   1.00
H503   H     0.02187   0.37950   0.61042   0.00000  Uiso   1.00
H504   H     0.13387   0.46954   0.67370   0.00000  Uiso   1.00
H505   H     0.01892   0.35706   0.69645   0.00000  Uiso   1.00
H506   H     0.06324   0.32374   0.66783   0.00000  Uiso   1.00
H507   H     0.32649   0.26398   0.65244   0.00000  Uiso   1.00
H508   H     0.28411   0.30099   0.67915   0.00000  Uiso   1.00
H509   H     0.33087   0.32474   0.91059   0.00000  Uiso   1.00
H510   H     0.04202   0.35923   0.88232   0.00000  Uiso   1.00
H511   H     0.31147   0.37949   0.88959   0.00000  Uiso   1.00
H512   H     0.31445   0.35707   0.80356   0.00000  Uiso   1.00
H513   H     0.27010   0.32375   0.83215   0.00000  Uiso   1.00
H514   H     0.00684   0.26397   0.84756   0.00000  Uiso   1.00
H515   H     0.14130   0.11069   0.82119   0.00000  Uiso   1.00
H516   H     0.04923   0.30097   0.82085   0.00000  Uiso   1.00
H517   H     0.13485   0.38906   0.67350   0.00000  Uiso   1.00
H518   H     0.19204   0.11069   0.67881   0.00000  Uiso   1.00
H519   H     0.19847   0.38906   0.82651   0.00000  Uiso   1.00
H520   H     0.19302   0.03024   0.67922   0.00000  Uiso   1.00
H521   H     0.19946   0.46954   0.82631   0.00000  Uiso   1.00
H522   H     0.13421   0.31568   0.53074   0.00000  Uiso   1.00
N523   N     0.16667   0.25001   0.62935   0.00000  Uiso   1.00
N524   N     0.16667   0.24999   0.87066   0.00000  Uiso   1.00
O525   O     0.16667   0.18572   0.79072   0.00000  Uiso   1.00
O526   O     0.16666   0.31428   0.70929   0.00000  Uiso   1.00
O527   O     0.16667   0.18573   0.70928   0.00000  Uiso   1.00
O528   O     0.16666   0.31427   0.79072   0.00000  Uiso   1.00
O529   O     0.09161   0.25000   0.78132   0.00000  Uiso   1.00
O530   O     0.24172   0.25000   0.71868   0.00000  Uiso   1.00
O531   O     0.09161   0.25000   0.69989   0.00000  Uiso   1.00
O532   O     0.24172   0.25000   0.80012   0.00000  Uiso   1.00
C533   C     0.50000   0.16489   0.75000   0.00000  Uiso   1.00
C534   C     0.51784   0.28674   0.94875   0.00000  Uiso   1.00
C535   C     0.50004   0.25006   0.52722   0.00000  Uiso   1.00
C536   C     0.49995   0.25005   0.97278   0.00000  Uiso   1.00
C537   C     0.40172   0.25688   0.73772   0.00000  Uiso   1.00
C538   C     0.59828   0.25689   0.76228   0.00000  Uiso   1.00
C539   C     0.34714   0.27136   0.73080   0.00000  Uiso   1.00
C540   C     0.65286   0.27135   0.76920   0.00000  Uiso   1.00
C541   C     0.48569   0.04749   0.78992   0.00000  Uiso   1.00
C542   C     0.48206   0.45231   0.70706   0.00000  Uiso   1.00
C543   C     0.48600   0.09340   0.79005   0.00000  Uiso   1.00
C544   C     0.50000   0.33507   0.75000   0.00000  Uiso   1.00
C545   C     0.48239   0.40640   0.70698   0.00000  Uiso   1.00
C546   C     0.50000   0.11662   0.75000   0.00000  Uiso   1.00
C547   C     0.49999   0.38324   0.75000   0.00000  Uiso   1.00
C548   C     0.51401   0.09340   0.70994   0.00000  Uiso   1.00
C549   C     0.51760   0.40640   0.79302   0.00000  Uiso   1.00
C550   C     0.51431   0.04749   0.71007   0.00000  Uiso   1.00
C551   C     0.51793   0.45231   0.79294   0.00000  Uiso   1.00
C552   C     0.50000   0.02417   0.75000   0.00000  Uiso   1.00
C553   C     0.50000   0.47562   0.75000   0.00000  Uiso   1.00
C554   C     0.65828   0.28987   0.68070   0.00000  Uiso   1.00
C555   C     0.48217   0.28675   0.55125   0.00000  Uiso   1.00
C556   C     0.35488   0.33126   0.66826   0.00000  Uiso   1.00
C557   C     0.66609   0.34975   0.61831   0.00000  Uiso   1.00
C558   C     0.34173   0.28987   0.81930   0.00000  Uiso   1.00
C559   C     0.64513   0.33126   0.83174   0.00000  Uiso   1.00
C560   C     0.33390   0.34973   0.88171   0.00000  Uiso   1.00
C561   C     0.48190   0.21339   0.94406   0.00000  Uiso   1.00
C562   C     0.48202   0.28591   0.60211   0.00000  Uiso   1.00
C563   C     0.48169   0.21422   0.89313   0.00000  Uiso   1.00
C564   C     0.51829   0.21423   0.60687   0.00000  Uiso   1.00
C565   C     0.51800   0.28589   0.89788   0.00000  Uiso   1.00
C566   C     0.51807   0.21340   0.55594   0.00000  Uiso   1.00
Cu567  Cu    0.50000   0.24999   0.79822   0.00000  Uiso   1.00
Cu568  Cu    0.50000   0.25000   0.70179   0.00000  Uiso   1.00
H569   H     0.47365   0.03024   0.82078   0.00000  Uiso   1.00
H570   H     0.46716   0.18453   0.96076   0.00000  Uiso   1.00
H571   H     0.46738   0.31427   0.61955   0.00000  Uiso   1.00
H572   H     0.46662   0.18602   0.87174   0.00000  Uiso   1.00
H573   H     0.53335   0.18603   0.62827   0.00000  Uiso   1.00
H574   H     0.53264   0.31425   0.88044   0.00000  Uiso   1.00
H575   H     0.53280   0.18452   0.53925   0.00000  Uiso   1.00
H576   H     0.53248   0.31566   0.96925   0.00000  Uiso   1.00
H577   H     0.33577   0.32476   0.58941   0.00000  Uiso   1.00
H578   H     0.62465   0.35926   0.61771   0.00000  Uiso   1.00
H579   H     0.35520   0.37950   0.61042   0.00000  Uiso   1.00
H580   H     0.46720   0.46954   0.67370   0.00000  Uiso   1.00
H581   H     0.35225   0.35706   0.69645   0.00000  Uiso   1.00
H582   H     0.39657   0.32374   0.66783   0.00000  Uiso   1.00
H583   H     0.65982   0.26398   0.65244   0.00000  Uiso   1.00
H584   H     0.61745   0.30099   0.67915   0.00000  Uiso   1.00
H585   H     0.66421   0.32474   0.91059   0.00000  Uiso   1.00
H586   H     0.37536   0.35923   0.88232   0.00000  Uiso   1.00
H587   H     0.64481   0.37949   0.88959   0.00000  Uiso   1.00
H588   H     0.64778   0.35707   0.80356   0.00000  Uiso   1.00
H589   H     0.60343   0.32375   0.83215   0.00000  Uiso   1.00
H590   H     0.34017   0.26397   0.84756   0.00000  Uiso   1.00
H591   H     0.47464   0.11069   0.82119   0.00000  Uiso   1.00
H592   H     0.38256   0.30097   0.82085   0.00000  Uiso   1.00
H593   H     0.46819   0.38906   0.67350   0.00000  Uiso   1.00
H594   H     0.52537   0.11069   0.67881   0.00000  Uiso   1.00
H595   H     0.53180   0.38906   0.82651   0.00000  Uiso   1.00
H596   H     0.52635   0.03024   0.67922   0.00000  Uiso   1.00
H597   H     0.53279   0.46954   0.82631   0.00000  Uiso   1.00
H598   H     0.46754   0.31568   0.53074   0.00000  Uiso   1.00
N599   N     0.50000   0.25001   0.62935   0.00000  Uiso   1.00
N600   N     0.50000   0.24999   0.87066   0.00000  Uiso   1.00
O601   O     0.50000   0.18572   0.79072   0.00000  Uiso   1.00
O602   O     0.50000   0.31428   0.70929   0.00000  Uiso   1.00
O603   O     0.50000   0.18573   0.70928   0.00000  Uiso   1.00
O604   O     0.50000   0.31427   0.79072   0.00000  Uiso   1.00
O605   O     0.42495   0.25000   0.78132   0.00000  Uiso   1.00
O606   O     0.57505   0.25000   0.71868   0.00000  Uiso   1.00
O607   O     0.42495   0.25000   0.69989   0.00000  Uiso   1.00
O608   O     0.57505   0.25000   0.80012   0.00000  Uiso   1.00
C609   C     0.83334   0.16489   0.75000   0.00000  Uiso   1.00
C610   C     0.85118   0.28674   0.94875   0.00000  Uiso   1.00
C611   C     0.83337   0.25006   0.52722   0.00000  Uiso   1.00
C612   C     0.83329   0.25005   0.97278   0.00000  Uiso   1.00
C613   C     0.73505   0.25688   0.73772   0.00000  Uiso   1.00
C614   C     0.93162   0.25689   0.76228   0.00000  Uiso   1.00
C615   C     0.68048   0.27136   0.73080   0.00000  Uiso   1.00
C616   C     0.98619   0.27135   0.76920   0.00000  Uiso   1.00
C617   C     0.81902   0.04749   0.78992   0.00000  Uiso   1.00
C618   C     0.81540   0.45231   0.70706   0.00000  Uiso   1.00
C619   C     0.81933   0.09340   0.79005   0.00000  Uiso   1.00
C620   C     0.83333   0.33507   0.75000   0.00000  Uiso   1.00
C621   C     0.81573   0.40640   0.70698   0.00000  Uiso   1.00
C622   C     0.83334   0.11662   0.75000   0.00000  Uiso   1.00
C623   C     0.83333   0.38324   0.75000   0.00000  Uiso   1.00
C624   C     0.84734   0.09340   0.70994   0.00000  Uiso   1.00
C625   C     0.85093   0.40640   0.79302   0.00000  Uiso   1.00
C626   C     0.84765   0.04749   0.71007   0.00000  Uiso   1.00
C627   C     0.85127   0.45231   0.79294   0.00000  Uiso   1.00
C628   C     0.83333   0.02417   0.75000   0.00000  Uiso   1.00
C629   C     0.83333   0.47562   0.75000   0.00000  Uiso   1.00
C630   C     0.99161   0.28987   0.68070   0.00000  Uiso   1.00
C631   C     0.81550   0.28675   0.55125   0.00000  Uiso   1.00
C632   C     0.68822   0.33126   0.66826   0.00000  Uiso   1.00
C633   C     0.99943   0.34975   0.61831   0.00000  Uiso   1.00
C634   C     0.67506   0.28987   0.81930   0.00000  Uiso   1.00
C635   C     0.97846   0.33126   0.83174   0.00000  Uiso   1.00
C636   C     0.66724   0.34973   0.88171   0.00000  Uiso   1.00
C637   C     0.81524   0.21339   0.94406   0.00000  Uiso   1.00
C638   C     0.81535   0.28591   0.60211   0.00000  Uiso   1.00
C639   C     0.81503   0.21422   0.89313   0.00000  Uiso   1.00
C640   C     0.85162   0.21423   0.60687   0.00000  Uiso   1.00
C641   C     0.85133   0.28589   0.89788   0.00000  Uiso   1.00
C642   C     0.85141   0.21340   0.55594   0.00000  Uiso   1.00
Cu643  Cu    0.83333   0.24999   0.79822   0.00000  Uiso   1.00
Cu644  Cu    0.83333   0.25000   0.70179   0.00000  Uiso   1.00
H645   H     0.80698   0.03024   0.82078   0.00000  Uiso   1.00
H646   H     0.80050   0.18453   0.96076   0.00000  Uiso   1.00
H647   H     0.80072   0.31427   0.61955   0.00000  Uiso   1.00
H648   H     0.79996   0.18602   0.87174   0.00000  Uiso   1.00
H649   H     0.86669   0.18603   0.62827   0.00000  Uiso   1.00
H650   H     0.86598   0.31425   0.88044   0.00000  Uiso   1.00
H651   H     0.86614   0.18452   0.53925   0.00000  Uiso   1.00
H652   H     0.86581   0.31566   0.96925   0.00000  Uiso   1.00
H653   H     0.66910   0.32476   0.58941   0.00000  Uiso   1.00
H654   H     0.95798   0.35926   0.61771   0.00000  Uiso   1.00
H655   H     0.68853   0.37950   0.61042   0.00000  Uiso   1.00
H656   H     0.80054   0.46954   0.67370   0.00000  Uiso   1.00
H657   H     0.68558   0.35706   0.69645   0.00000  Uiso   1.00
H658   H     0.72990   0.32374   0.66783   0.00000  Uiso   1.00
H659   H     0.99316   0.26398   0.65244   0.00000  Uiso   1.00
H660   H     0.95078   0.30099   0.67915   0.00000  Uiso   1.00
H661   H     0.99754   0.32474   0.91059   0.00000  Uiso   1.00
H662   H     0.70869   0.35923   0.88232   0.00000  Uiso   1.00
H663   H     0.97814   0.37949   0.88959   0.00000  Uiso   1.00
H664   H     0.98112   0.35707   0.80356   0.00000  Uiso   1.00
H665   H     0.93677   0.32375   0.83215   0.00000  Uiso   1.00
H666   H     0.67350   0.26397   0.84756   0.00000  Uiso   1.00
H667   H     0.80797   0.11069   0.82119   0.00000  Uiso   1.00
H668   H     0.71589   0.30097   0.82085   0.00000  Uiso   1.00
H669   H     0.80152   0.38906   0.67350   0.00000  Uiso   1.00
H670   H     0.85870   0.11069   0.67881   0.00000  Uiso   1.00
H671   H     0.86513   0.38906   0.82651   0.00000  Uiso   1.00
H672   H     0.85968   0.03024   0.67922   0.00000  Uiso   1.00
H673   H     0.86613   0.46954   0.82631   0.00000  Uiso   1.00
H674   H     0.80087   0.31568   0.53074   0.00000  Uiso   1.00
N675   N     0.83333   0.25001   0.62935   0.00000  Uiso   1.00
N676   N     0.83333   0.24999   0.87066   0.00000  Uiso   1.00
O677   O     0.83334   0.18572   0.79072   0.00000  Uiso   1.00
O678   O     0.83333   0.31428   0.70929   0.00000  Uiso   1.00
O679   O     0.83334   0.18573   0.70928   0.00000  Uiso   1.00
O680   O     0.83333   0.31427   0.79072   0.00000  Uiso   1.00
O681   O     0.75828   0.25000   0.78132   0.00000  Uiso   1.00
O682   O     0.90839   0.25000   0.71868   0.00000  Uiso   1.00
O683   O     0.75828   0.25000   0.69989   0.00000  Uiso   1.00
O684   O     0.90839   0.25000   0.80012   0.00000  Uiso   1.00
C685   C     0.16667   0.66489   0.75000   0.00000  Uiso   1.00
C686   C     0.18451   0.78674   0.94875   0.00000  Uiso   1.00
C687   C     0.16670   0.75006   0.52722   0.00000  Uiso   1.00
C688   C     0.16662   0.75005   0.97278   0.00000  Uiso   1.00
C689   C     0.06838   0.75688   0.73772   0.00000  Uiso   1.00
C690   C     0.26495   0.75689   0.76228   0.00000  Uiso   1.00
C691   C     0.01381   0.77136   0.73080   0.00000  Uiso   1.00
C692   C     0.31953   0.77135   0.76920   0.00000  Uiso   1.00
C693   C     0.15236   0.54749   0.78992   0.00000  Uiso   1.00
C694   C     0.14873   0.95231   0.70706   0.00000  Uiso   1.00
C695   C     0.15266   0.59340   0.79005   0.00000  Uiso   1.00
C696   C     0.16666   0.83507   0.75000   0.00000  Uiso   1.00
C697   C     0.14906   0.90640   0.70698   0.00000  Uiso   1.00
C698   C     0.16667   0.61662   0.75000   0.00000  Uiso   1.00
C699   C     0.16666   0.88324   0.75000   0.00000  Uiso   1.00
C700   C     0.18067   0.59340   0.70994   0.00000  Uiso   1.00
C701   C     0.18426   0.90640   0.79302   0.00000  Uiso   1.00
C702   C     0.18098   0.54749   0.71007   0.00000  Uiso   1.00
C703   C     0.18460   0.95231   0.79294   0.00000  Uiso   1.00
C704   C     0.16667   0.52417   0.75000   0.00000  Uiso   1.00
C705   C     0.16667   0.97562   0.75000   0.00000  Uiso   1.00
C706   C     0.32494   0.78987   0.68070   0.00000  Uiso   1.00
C707   C     0.14883   0.78675   0.55125   0.00000  Uiso   1.00
C708   C     0.02155   0.83126   0.66826   0.00000  Uiso   1.00
C709   C     0.33276   0.84975   0.61831   0.00000  Uiso   1.00
C710   C     0.00839   0.78987   0.81930   0.00000  Uiso   1.00
C711   C     0.31179   0.83126   0.83174   0.00000  Uiso   1.00
C712   C     0.00057   0.84973   0.88171   0.00000  Uiso   1.00
C713   C     0.14857   0.71339   0.94406   0.00000  Uiso   1.00
C714   C     0.14868   0.78591   0.60211   0.00000  Uiso   1.00
C715   C     0.14836   0.71422   0.89313   0.00000  Uiso   1.00
C716   C     0.18496   0.71423   0.60687   0.00000  Uiso   1.00
C717   C     0.18466   0.78589   0.89788   0.00000  Uiso   1.00
C718   C     0.18474   0.71340   0.55594   0.00000  Uiso   1.00
Cu719  Cu    0.16667   0.74999   0.79822   0.00000  Uiso   1.00
Cu720  Cu    0.16667   0.75000   0.70179   0.00000  Uiso   1.00
H721   H     0.14032   0.53024   0.82078   0.00000  Uiso   1.00
H722   H     0.13383   0.68453   0.96076   0.00000  Uiso   1.00
H723   H     0.13405   0.81427   0.61955   0.00000  Uiso   1.00
H724   H     0.13329   0.68602   0.87174   0.00000  Uiso   1.00
H725   H     0.20002   0.68603   0.62827   0.00000  Uiso   1.00
H726   H     0.19931   0.81425   0.88044   0.00000  Uiso   1.00
H727   H     0.19947   0.68452   0.53925   0.00000  Uiso   1.00
H728   H     0.19915   0.81566   0.96925   0.00000  Uiso   1.00
H729   H     0.00243   0.82476   0.58941   0.00000  Uiso   1.00
H730   H     0.29132   0.85926   0.61771   0.00000  Uiso   1.00
H731   H     0.02187   0.87950   0.61042   0.00000  Uiso   1.00
H732   H     0.13387   0.96954   0.67370   0.00000  Uiso   1.00
H733   H     0.01892   0.85706   0.69645   0.00000  Uiso   1.00
H734   H     0.06324   0.82374   0.66783   0.00000  Uiso   1.00
H735   H     0.32649   0.76398   0.65244   0.00000  Uiso   1.00
H736   H     0.28411   0.80099   0.67915   0.00000  Uiso   1.00
H737   H     0.33087   0.82474   0.91059   0.00000  Uiso   1.00
H738   H     0.04202   0.85923   0.88232   0.00000  Uiso   1.00
H739   H     0.31147   0.87949   0.88959   0.00000  Uiso   1.00
H740   H     0.31445   0.85707   0.80356   0.00000  Uiso   1.00
H741   H     0.27010   0.82375   0.83215   0.00000  Uiso   1.00
H742   H     0.00684   0.76397   0.84756   0.00000  Uiso   1.00
H743   H     0.14130   0.61069   0.82119   0.00000  Uiso   1.00
H744   H     0.04923   0.80097   0.82085   0.00000  Uiso   1.00
H745   H     0.13485   0.88906   0.67350   0.00000  Uiso   1.00
H746   H     0.19204   0.61069   0.67881   0.00000  Uiso   1.00
H747   H     0.19847   0.88906   0.82651   0.00000  Uiso   1.00
H748   H     0.19302   0.53024   0.67922   0.00000  Uiso   1.00
H749   H     0.19946   0.96954   0.82631   0.00000  Uiso   1.00
H750   H     0.13421   0.81568   0.53074   0.00000  Uiso   1.00
N751   N     0.16667   0.75001   0.62935   0.00000  Uiso   1.00
N752   N     0.16667   0.74999   0.87066   0.00000  Uiso   1.00
O753   O     0.16667   0.68572   0.79072   0.00000  Uiso   1.00
O754   O     0.16666   0.81428   0.70929   0.00000  Uiso   1.00
O755   O     0.16667   0.68573   0.70928   0.00000  Uiso   1.00
O756   O     0.16666   0.81427   0.79072   0.00000  Uiso   1.00
O757   O     0.09161   0.75000   0.78132   0.00000  Uiso   1.00
O758   O     0.24172   0.75000   0.71868   0.00000  Uiso   1.00
O759   O     0.09161   0.75000   0.69989   0.00000  Uiso   1.00
O760   O     0.24172   0.75000   0.80012   0.00000  Uiso   1.00
C761   C     0.50000   0.66489   0.75000   0.00000  Uiso   1.00
C762   C     0.51784   0.78674   0.94875   0.00000  Uiso   1.00
C763   C     0.50004   0.75006   0.52722   0.00000  Uiso   1.00
C764   C     0.49995   0.75005   0.97278   0.00000  Uiso   1.00
C765   C     0.40172   0.75688   0.73772   0.00000  Uiso   1.00
C766   C     0.59828   0.75689   0.76228   0.00000  Uiso   1.00
C767   C     0.34714   0.77136   0.73080   0.00000  Uiso   1.00
C768   C     0.65286   0.77135   0.76920   0.00000  Uiso   1.00
C769   C     0.48569   0.54749   0.78992   0.00000  Uiso   1.00
C770   C     0.48206   0.95231   0.70706   0.00000  Uiso   1.00
C771   C     0.48600   0.59340   0.79005   0.00000  Uiso   1.00
C772   C     0.50000   0.83507   0.75000   0.00000  Uiso   1.00
C773   C     0.48239   0.90640   0.70698   0.00000  Uiso   1.00
C774   C     0.50000   0.61662   0.75000   0.00000  Uiso   1.00
C775   C     0.49999   0.88324   0.75000   0.00000  Uiso   1.00
C776   C     0.51401   0.59340   0.70994   0.00000  Uiso   1.00
C777   C     0.51760   0.90640   0.79302   0.00000  Uiso   1.00
C778   C     0.51431   0.54749   0.71007   0.00000  Uiso   1.00
C779   C     0.51793   0.95231   0.79294   0.00000  Uiso   1.00
C780   C     0.50000   0.52417   0.75000   0.00000  Uiso   1.00
C781   C     0.50000   0.97562   0.75000   0.00000  Uiso   1.00
C782   C     0.65828   0.78987   0.68070   0.00000  Uiso   1.00
C783   C     0.48217   0.78675   0.55125   0.00000  Uiso   1.00
C784   C     0.35488   0.83126   0.66826   0.00000  Uiso   1.00
C785   C     0.66609   0.84975   0.61831   0.00000  Uiso   1.00
C786   C     0.34173   0.78987   0.81930   0.00000  Uiso   1.00
C787   C     0.64513   0.83126   0.83174   0.00000  Uiso   1.00
C788   C     0.33390   0.84973   0.88171   0.00000  Uiso   1.00
C789   C     0.48190   0.71339   0.94406   0.00000  Uiso   1.00
C790   C     0.48202   0.78591   0.60211   0.00000  Uiso   1.00
C791   C     0.48169   0.71422   0.89313   0.00000  Uiso   1.00
C792   C     0.51829   0.71423   0.60687   0.00000  Uiso   1.00
C793   C     0.51800   0.78589   0.89788   0.00000  Uiso   1.00
C794   C     0.51807   0.71340   0.55594   0.00000  Uiso   1.00
Cu795  Cu    0.50000   0.74999   0.79822   0.00000  Uiso   1.00
Cu796  Cu    0.50000   0.75000   0.70179   0.00000  Uiso   1.00
H797   H     0.47365   0.53024   0.82078   0.00000  Uiso   1.00
H798   H     0.46716   0.68453   0.96076   0.00000  Uiso   1.00
H799   H     0.46738   0.81427   0.61955   0.00000  Uiso   1.00
H800   H     0.46662   0.68602   0.87174   0.00000  Uiso   1.00
H801   H     0.53335   0.68603   0.62827   0.00000  Uiso   1.00
H802   H     0.53264   0.81425   0.88044   0.00000  Uiso   1.00
H803   H     0.53280   0.68452   0.53925   0.00000  Uiso   1.00
H804   H     0.53248   0.81566   0.96925   0.00000  Uiso   1.00
H805   H     0.33577   0.82476   0.58941   0.00000  Uiso   1.00
H806   H     0.62465   0.85926   0.61771   0.00000  Uiso   1.00
H807   H     0.35520   0.87950   0.61042   0.00000  Uiso   1.00
H808   H     0.46720   0.96954   0.67370   0.00000  Uiso   1.00
H809   H     0.35225   0.85706   0.69645   0.00000  Uiso   1.00
H810   H     0.39657   0.82374   0.66783   0.00000  Uiso   1.00
H811   H     0.65982   0.76398   0.65244   0.00000  Uiso   1.00
H812   H     0.61745   0.80099   0.67915   0.00000  Uiso   1.00
H813   H     0.66421   0.82474   0.91059   0.00000  Uiso   1.00
H814   H     0.37536   0.85923   0.88232   0.00000  Uiso   1.00
H815   H     0.64481   0.87949   0.88959   0.00000  Uiso   1.00
H816   H     0.64778   0.85707   0.80356   0.00000  Uiso   1.00
H817   H     0.60343   0.82375   0.83215   0.00000  Uiso   1.00
H818   H     0.34017   0.76397   0.84756   0.00000  Uiso   1.00
H819   H     0.47464   0.61069   0.82119   0.00000  Uiso   1.00
H820   H     0.38256   0.80097   0.82085   0.00000  Uiso   1.00
H821   H     0.46819   0.88906   0.67350   0.00000  Uiso   1.00
H822   H     0.52537   0.61069   0.67881   0.00000  Uiso   1.00
H823   H     0.53180   0.88906   0.82651   0.00000  Uiso   1.00
H824   H     0.52635   0.53024   0.67922   0.00000  Uiso   1.00
H825   H     0.53279   0.96954   0.82631   0.00000  Uiso   1.00
H826   H     0.46754   0.81568   0.53074   0.00000  Uiso   1.00
N827   N     0.50000   0.75001   0.62935   0.00000  Uiso   1.00
N828   N     0.50000   0.74999   0.87066   0.00000  Uiso   1.00
O829   O     0.50000   0.68572   0.79072   0.00000  Uiso   1.00
O830   O     0.50000   0.81428   0.70929   0.00000  Uiso   1.00
O831   O     0.50000   0.68573   0.70928   0.00000  Uiso   1.00
O832   O     0.50000   0.81427   0.79072   0.00000  Uiso   1.00
O833   O     0.42495   0.75000   0.78132   0.00000  Uiso   1.00
O834   O     0.57505   0.75000   0.71868   0.00000  Uiso   1.00
O835   O     0.42495   0.75000   0.69989   0.00000  Uiso   1.00
O836   O     0.57505   0.75000   0.80012   0.00000  Uiso   1.00
C837   C     0.83334   0.66489   0.75000   0.00000  Uiso   1.00
C838   C     0.85118   0.78674   0.94875   0.00000  Uiso   1.00
C839   C     0.83337   0.75006   0.52722   0.00000  Uiso   1.00
C840   C     0.83329   0.75005   0.97278   0.00000  Uiso   1.00
C841   C     0.73505   0.75688   0.73772   0.00000  Uiso   1.00
C842   C     0.93162   0.75689   0.76228   0.00000  Uiso   1.00
C843   C     0.68048   0.77136   0.73080   0.00000  Uiso   1.00
C844   C     0.98619   0.77135   0.76920   0.00000  Uiso   1.00
C845   C     0.81902   0.54749   0.78992   0.00000  Uiso   1.00
C846   C     0.81540   0.95231   0.70706   0.00000  Uiso   1.00
C847   C     0.81933   0.59340   0.79005   0.00000  Uiso   1.00
C848   C     0.83333   0.83507   0.75000   0.00000  Uiso   1.00
C849   C     0.81573   0.90640   0.70698   0.00000  Uiso   1.00
C850   C     0.83334   0.61662   0.75000   0.00000  Uiso   1.00
C851   C     0.83333   0.88324   0.75000   0.00000  Uiso   1.00
C852   C     0.84734   0.59340   0.70994   0.00000  Uiso   1.00
C853   C     0.85093   0.90640   0.79302   0.00000  Uiso   1.00
C854   C     0.84765   0.54749   0.71007   0.00000  Uiso   1.00
C855   C     0.85127   0.95231   0.79294   0.00000  Uiso   1.00
C856   C     0.83333   0.52417   0.75000   0.00000  Uiso   1.00
C857   C     0.83333   0.97562   0.75000   0.00000  Uiso   1.00
C858   C     0.99161   0.78987   0.68070   0.00000  Uiso   1.00
C859   C     0.81550   0.78675   0.55125   0.00000  Uiso   1.00
C860   C     0.68822   0.83126   0.66826   0.00000  Uiso   1.00
C861   C     0.99943   0.84975   0.61831   0.00000  Uiso   1.00
C862   C     0.67506   0.78987   0.81930   0.00000  Uiso   1.00
C863   C     0.97846   0.83126   0.83174   0.00000  Uiso   1.00
C864   C     0.66724   0.84973   0.88171   0.00000  Uiso   1.00
C865   C     0.81524   0.71339   0.94406   0.00000  Uiso   1.00
C866   C     0.81535   0.78591   0.60211   0.00000  Uiso   1.00
C867   C     0.81503   0.71422   0.89313   0.00000  Uiso   1.00
C868   C     0.85162   0.71423   0.60687   0.00000  Uiso   1.00
C869   C     0.85133   0.78589   0.89788   0.00000  Uiso   1.00
C870   C     0.85141   0.71340   0.55594   0.00000  Uiso   1.00
Cu871  Cu    0.83333   0.74999   0.79822   0.00000  Uiso   1.00
Cu872  Cu    0.83333   0.75000   0.70179   0.00000  Uiso   1.00
H873   H     0.80698   0.53024   0.82078   0.00000  Uiso   1.00
H874   H     0.80050   0.68453   0.96076   0.00000  Uiso   1.00
H875   H     0.80072   0.81427   0.61955   0.00000  Uiso   1.00
H876   H     0.79996   0.68602   0.87174   0.00000  Uiso   1.00
H877   H     0.86669   0.68603   0.62827   0.00000  Uiso   1.00
H878   H     0.86598   0.81425   0.88044   0.00000  Uiso   1.00
H879   H     0.86614   0.68452   0.53925   0.00000  Uiso   1.00
H880   H     0.86581   0.81566   0.96925   0.00000  Uiso   1.00
H881   H     0.66910   0.82476   0.58941   0.00000  Uiso   1.00
H882   H     0.95798   0.85926   0.61771   0.00000  Uiso   1.00
H883   H     0.68853   0.87950   0.61042   0.00000  Uiso   1.00
H884   H     0.80054   0.96954   0.67370   0.00000  Uiso   1.00
H885   H     0.68558   0.85706   0.69645   0.00000  Uiso   1.00
H886   H     0.72990   0.82374   0.66783   0.00000  Uiso   1.00
H887   H     0.99316   0.76398   0.65244   0.00000  Uiso   1.00
H888   H     0.95078   0.80099   0.67915   0.00000  Uiso   1.00
H889   H     0.99754   0.82474   0.91059   0.00000  Uiso   1.00
H890   H     0.70869   0.85923   0.88232   0.00000  Uiso   1.00
H891   H     0.97814   0.87949   0.88959   0.00000  Uiso   1.00
H892   H     0.98112   0.85707   0.80356   0.00000  Uiso   1.00
H893   H     0.93677   0.82375   0.83215   0.00000  Uiso   1.00
H894   H     0.67350   0.76397   0.84756   0.00000  Uiso   1.00
H895   H     0.80797   0.61069   0.82119   0.00000  Uiso   1.00
H896   H     0.71589   0.80097   0.82085   0.00000  Uiso   1.00
H897   H     0.80152   0.88906   0.67350   0.00000  Uiso   1.00
H898   H     0.85870   0.61069   0.67881   0.00000  Uiso   1.00
H899   H     0.86513   0.88906   0.82651   0.00000  Uiso   1.00
H900   H     0.85968   0.53024   0.67922   0.00000  Uiso   1.00
H901   H     0.86613   0.96954   0.82631   0.00000  Uiso   1.00
H902   H     0.80087   0.81568   0.53074   0.00000  Uiso   1.00
N903   N     0.83333   0.75001   0.62935   0.00000  Uiso   1.00
N904   N     0.83333   0.74999   0.87066   0.00000  Uiso   1.00
O905   O     0.83334   0.68572   0.79072   0.00000  Uiso   1.00
O906   O     0.83333   0.81428   0.70929   0.00000  Uiso   1.00
O907   O     0.83334   0.68573   0.70928   0.00000  Uiso   1.00
O908   O     0.83333   0.81427   0.79072   0.00000  Uiso   1.00
O909   O     0.75828   0.75000   0.78132   0.00000  Uiso   1.00
O910   O     0.90839   0.75000   0.71868   0.00000  Uiso   1.00
O911   O     0.75828   0.75000   0.69989   0.00000  Uiso   1.00
O912   O     0.90839   0.75000   0.80012   0.00000  Uiso   1.00
loop_
_geom_bond_atom_site_label_1
_geom_bond_atom_site_label_2
_geom_bond_distance
_geom_bond_site_symmetry_2
_ccdc_geom_bond_type
C1     O71     1.291   .     A
C1     O69     1.291   .     A
C1     C14     1.461   .     S
C2     H44     1.083   .     S
C2     C4      1.406   .     A
C2     C33     1.407   .     A
C3     C23     1.406   .     A
C3     C34     1.406   .     A
C3     C460    1.505   1_554 S
C4     C29     1.406   .     A
C4     C459    1.505   .     S
C5     C7      1.469   .     S
C5     O75     1.295   .     A
C5     O73     1.287   .     A
C6     O74     1.287   .     A
C6     C8      1.469   .     S
C6     O76     1.295   .     A
C7     C160    1.362   1_455 S
C7     C174    1.531   1_455 S
C8     C83     1.362   .     S
C8     C102    1.531   .     S
C9     C11     1.390   .     A
C9     C20     1.403   .     A
C9     H37     1.083   .     S
C10    C21     1.404   .     A
C10    H48     1.083   .     S
C10    C13     1.390   .     A
C11    C14     1.402   .     A
C11    H59     1.083   .     S
C12    O72     1.290   .     A
C12    C15     1.458   .     S
C12    O70     1.290   .     A
C13    C15     1.401   .     A
C13    H61     1.083   .     S
C14    C16     1.402   .     A
C15    C17     1.401   .     A
C16    H62     1.083   .     S
C16    C18     1.390   .     A
C17    H63     1.083   .     S
C17    C19     1.390   .     A
C18    C20     1.404   .     A
C18    H64     1.083   .     S
C19    C21     1.404   .     A
C19    H65     1.083   .     S
C20    C249    1.470   1_545 S
C21    C248    1.470   .     S
C22    H52     1.107   .     S
C22    H51     1.112   .     S
C22    C83     1.531   .     S
C22    C100    1.538   .     S
C23    H66     1.083   .     S
C23    C30     1.407   .     A
C24    H50     1.107   .     S
C24    H49     1.112   .     S
C24    C174    1.538   1_455 S
C24    C177    1.526   1_455 S
C25    H46     1.111   .     S
C25    C100    1.526   .     S
C25    H121    1.111   .     S
C25    H123    1.111   .     S
C26    H58     1.112   .     S
C26    H60     1.107   .     S
C26    C160    1.531   1_455 S
C26    C179    1.538   1_455 S
C27    H57     1.107   .     S
C27    H56     1.112   .     S
C27    C102    1.538   .     S
C27    C104    1.526   .     S
C28    H54     1.111   .     S
C28    C179    1.526   1_455 S
C28    H205    1.111   1_455 S
C28    H207    1.111   1_455 S
C29    H38     1.083   .     S
C29    C31     1.408   .     A
C30    N67     1.367   .     A
C30    H39     1.079   .     S
C31    H40     1.080   .     S
C31    N68     1.366   .     A
C32    H41     1.080   .     S
C32    C34     1.408   .     A
C32    N67     1.366   .     A
C33    H42     1.079   .     S
C33    N68     1.367   .     A
C34    H43     1.083   .     S
Cu35   Cu36    2.667   .     S
Cu35   O76     1.941   .     S
Cu35   O72     1.957   .     S
Cu35   O73     1.938   .     S
Cu35   N68     2.003   .     S
Cu35   O69     1.957   .     S
Cu36   N67     2.003   .     S
Cu36   O71     1.957   .     S
Cu36   O70     1.957   .     S
Cu36   O75     1.941   .     S
Cu36   O74     1.938   .     S
H45    C177    1.111   1_455 S
H47    C177    1.111   1_455 S
H53    C104    1.111   .     S
H55    C104    1.111   .     S
C77    O147    1.291   .     A
C77    O145    1.291   .     A
C77    C90     1.461   .     S
C78    H120    1.083   .     S
C78    C80     1.406   .     A
C78    C109    1.407   .     A
C79    C99     1.406   .     A
C79    C110    1.406   .     A
C79    C536    1.505   1_554 S
C80    C105    1.406   .     A
C80    C535    1.505   .     S
C81    C83     1.469   .     S
C81    O151    1.295   .     A
C81    O149    1.287   .     A
C82    O150    1.287   .     A
C82    C84     1.469   .     S
C82    O152    1.295   .     A
C84    C159    1.362   .     S
C84    C178    1.531   .     S
C85    C87     1.390   .     A
C85    C96     1.403   .     A
C85    H113    1.083   .     S
C86    C97     1.404   .     A
C86    H124    1.083   .     S
C86    C89     1.390   .     A
C87    C90     1.402   .     A
C87    H135    1.083   .     S
C88    O148    1.290   .     A
C88    C91     1.458   .     S
C88    O146    1.290   .     A
C89    C91     1.401   .     A
C89    H137    1.083   .     S
C90    C92     1.402   .     A
C91    C93     1.401   .     A
C92    H138    1.083   .     S
C92    C94     1.390   .     A
C93    H139    1.083   .     S
C93    C95     1.390   .     A
C94    C96     1.404   .     A
C94    H140    1.083   .     S
C95    C97     1.404   .     A
C95    H141    1.083   .     S
C96    C325    1.470   1_545 S
C97    C324    1.470   .     S
C98    H128    1.107   .     S
C98    H127    1.112   .     S
C98    C159    1.531   .     S
C98    C176    1.538   .     S
C99    H142    1.083   .     S
C99    C106    1.407   .     A
C100   H126    1.107   .     S
C100   H125    1.112   .     S
C101   H122    1.111   .     S
C101   C176    1.526   .     S
C101   H197    1.111   .     S
C101   H199    1.111   .     S
C102   H134    1.112   .     S
C102   H136    1.107   .     S
C103   H133    1.107   .     S
C103   H132    1.112   .     S
C103   C178    1.538   .     S
C103   C180    1.526   .     S
C104   H130    1.111   .     S
C105   H114    1.083   .     S
C105   C107    1.408   .     A
C106   N143    1.367   .     A
C106   H115    1.079   .     S
C107   H116    1.080   .     S
C107   N144    1.366   .     A
C108   H117    1.080   .     S
C108   C110    1.408   .     A
C108   N143    1.366   .     A
C109   H118    1.079   .     S
C109   N144    1.367   .     A
C110   H119    1.083   .     S
Cu111  Cu112   2.667   .     S
Cu111  O152    1.941   .     S
Cu111  O148    1.957   .     S
Cu111  O149    1.938   .     S
Cu111  N144    2.003   .     S
Cu111  O145    1.957   .     S
Cu112  N143    2.003   .     S
Cu112  O147    1.957   .     S
Cu112  O146    1.957   .     S
Cu112  O151    1.941   .     S
Cu112  O150    1.938   .     S
H129   C180    1.111   .     S
H131   C180    1.111   .     S
C153   O223    1.291   .     A
C153   O221    1.291   .     A
C153   C166    1.461   .     S
C154   H196    1.083   .     S
C154   C156    1.406   .     A
C154   C185    1.407   .     A
C155   C175    1.406   .     A
C155   C186    1.406   .     A
C155   C612    1.505   1_554 S
C156   C181    1.406   .     A
C156   C611    1.505   .     S
C157   C159    1.469   .     S
C157   O227    1.295   .     A
C157   O225    1.287   .     A
C158   O226    1.287   .     A
C158   C160    1.469   .     S
C158   O228    1.295   .     A
C160   C7      1.362   1_655 S
C160   C26     1.531   1_655 S
C161   C163    1.390   .     A
C161   C172    1.403   .     A
C161   H189    1.083   .     S
C162   C173    1.404   .     A
C162   H200    1.083   .     S
C162   C165    1.390   .     A
C163   C166    1.402   .     A
C163   H211    1.083   .     S
C164   O224    1.290   .     A
C164   C167    1.458   .     S
C164   O222    1.290   .     A
C165   C167    1.401   .     A
C165   H213    1.083   .     S
C166   C168    1.402   .     A
C167   C169    1.401   .     A
C168   H214    1.083   .     S
C168   C170    1.390   .     A
C169   H215    1.083   .     S
C169   C171    1.390   .     A
C170   C172    1.404   .     A
C170   H216    1.083   .     S
C171   C173    1.404   .     A
C171   H217    1.083   .     S
C172   C401    1.470   1_545 S
C173   C400    1.470   .     S
C174   H204    1.107   .     S
C174   H203    1.112   .     S
C174   C7      1.531   1_655 S
C174   C24     1.538   1_655 S
C175   H218    1.083   .     S
C175   C182    1.407   .     A
C176   H202    1.107   .     S
C176   H201    1.112   .     S
C177   H198    1.111   .     S
C177   C24     1.526   1_655 S
C177   H45     1.111   1_655 S
C177   H47     1.111   1_655 S
C178   H210    1.112   .     S
C178   H212    1.107   .     S
C179   H209    1.107   .     S
C179   H208    1.112   .     S
C179   C26     1.538   1_655 S
C179   C28     1.526   1_655 S
C180   H206    1.111   .     S
C181   H190    1.083   .     S
C181   C183    1.408   .     A
C182   N219    1.367   .     A
C182   H191    1.079   .     S
C183   H192    1.080   .     S
C183   N220    1.366   .     A
C184   H193    1.080   .     S
C184   C186    1.408   .     A
C184   N219    1.366   .     A
C185   H194    1.079   .     S
C185   N220    1.367   .     A
C186   H195    1.083   .     S
Cu187  Cu188   2.667   .     S
Cu187  O228    1.941   .     S
Cu187  O224    1.957   .     S
Cu187  O225    1.938   .     S
Cu187  N220    2.003   .     S
Cu187  O221    1.957   .     S
Cu188  N219    2.003   .     S
Cu188  O223    1.957   .     S
Cu188  O222    1.957   .     S
Cu188  O227    1.941   .     S
Cu188  O226    1.938   .     S
H205   C28     1.111   1_655 S
H207   C28     1.111   1_655 S
C229   O299    1.291   .     A
C229   O297    1.291   .     A
C229   C242    1.461   .     S
C230   H272    1.083   .     S
C230   C232    1.406   .     A
C230   C261    1.407   .     A
C231   C251    1.406   .     A
C231   C262    1.406   .     A
C231   C688    1.505   1_554 S
C232   C257    1.406   .     A
C232   C687    1.505   .     S
C233   C235    1.469   .     S
C233   O303    1.295   .     A
C233   O301    1.287   .     A
C234   O302    1.287   .     A
C234   C236    1.469   .     S
C234   O304    1.295   .     A
C235   C388    1.362   1_455 S
C235   C402    1.531   1_455 S
C236   C311    1.362   .     S
C236   C330    1.531   .     S
C237   C239    1.390   .     A
C237   C248    1.403   .     A
C237   H265    1.083   .     S
C238   C249    1.404   .     A
C238   H276    1.083   .     S
C238   C241    1.390   .     A
C239   C242    1.402   .     A
C239   H287    1.083   .     S
C240   O300    1.290   .     A
C240   C243    1.458   .     S
C240   O298    1.290   .     A
C241   C243    1.401   .     A
C241   H289    1.083   .     S
C242   C244    1.402   .     A
C243   C245    1.401   .     A
C244   H290    1.083   .     S
C244   C246    1.390   .     A
C245   H291    1.083   .     S
C245   C247    1.390   .     A
C246   C248    1.404   .     A
C246   H292    1.083   .     S
C247   C249    1.404   .     A
C247   H293    1.083   .     S
C249   C20     1.470   1_565 S
C250   H280    1.107   .     S
C250   H279    1.112   .     S
C250   C311    1.531   .     S
C250   C328    1.538   .     S
C251   H294    1.083   .     S
C251   C258    1.407   .     A
C252   H278    1.107   .     S
C252   H277    1.112   .     S
C252   C402    1.538   1_455 S
C252   C405    1.526   1_455 S
C253   H274    1.111   .     S
C253   C328    1.526   .     S
C253   H349    1.111   .     S
C253   H351    1.111   .     S
C254   H286    1.112   .     S
C254   H288    1.107   .     S
C254   C388    1.531   1_455 S
C254   C407    1.538   1_455 S
C255   H285    1.107   .     S
C255   H284    1.112   .     S
C255   C330    1.538   .     S
C255   C332    1.526   .     S
C256   H282    1.111   .     S
C256   C407    1.526   1_455 S
C256   H433    1.111   1_455 S
C256   H435    1.111   1_455 S
C257   H266    1.083   .     S
C257   C259    1.408   .     A
C258   N295    1.367   .     A
C258   H267    1.079   .     S
C259   H268    1.080   .     S
C259   N296    1.366   .     A
C260   H269    1.080   .     S
C260   C262    1.408   .     A
C260   N295    1.366   .     A
C261   H270    1.079   .     S
C261   N296    1.367   .     A
C262   H271    1.083   .     S
Cu263  Cu264   2.667   .     S
Cu263  O304    1.941   .     S
Cu263  O300    1.957   .     S
Cu263  O301    1.938   .     S
Cu263  N296    2.003   .     S
Cu263  O297    1.957   .     S
Cu264  N295    2.003   .     S
Cu264  O299    1.957   .     S
Cu264  O298    1.957   .     S
Cu264  O303    1.941   .     S
Cu264  O302    1.938   .     S
H273   C405    1.111   1_455 S
H275   C405    1.111   1_455 S
H281   C332    1.111   .     S
H283   C332    1.111   .     S
C305   O375    1.291   .     A
C305   O373    1.291   .     A
C305   C318    1.461   .     S
C306   H348    1.083   .     S
C306   C308    1.406   .     A
C306   C337    1.407   .     A
C307   C327    1.406   .     A
C307   C338    1.406   .     A
C307   C764    1.505   1_554 S
C308   C333    1.406   .     A
C308   C763    1.505   .     S
C309   C311    1.469   .     S
C309   O379    1.295   .     A
C309   O377    1.287   .     A
C310   O378    1.287   .     A
C310   C312    1.469   .     S
C310   O380    1.295   .     A
C312   C387    1.362   .     S
C312   C406    1.531   .     S
C313   C315    1.390   .     A
C313   C324    1.403   .     A
C313   H341    1.083   .     S
C314   C325    1.404   .     A
C314   H352    1.083   .     S
C314   C317    1.390   .     A
C315   C318    1.402   .     A
C315   H363    1.083   .     S
C316   O376    1.290   .     A
C316   C319    1.458   .     S
C316   O374    1.290   .     A
C317   C319    1.401   .     A
C317   H365    1.083   .     S
C318   C320    1.402   .     A
C319   C321    1.401   .     A
C320   H366    1.083   .     S
C320   C322    1.390   .     A
C321   H367    1.083   .     S
C321   C323    1.390   .     A
C322   C324    1.404   .     A
C322   H368    1.083   .     S
C323   C325    1.404   .     A
C323   H369    1.083   .     S
C325   C96     1.470   1_565 S
C326   H356    1.107   .     S
C326   H355    1.112   .     S
C326   C387    1.531   .     S
C326   C404    1.538   .     S
C327   H370    1.083   .     S
C327   C334    1.407   .     A
C328   H354    1.107   .     S
C328   H353    1.112   .     S
C329   H350    1.111   .     S
C329   C404    1.526   .     S
C329   H425    1.111   .     S
C329   H427    1.111   .     S
C330   H362    1.112   .     S
C330   H364    1.107   .     S
C331   H361    1.107   .     S
C331   H360    1.112   .     S
C331   C406    1.538   .     S
C331   C408    1.526   .     S
C332   H358    1.111   .     S
C333   H342    1.083   .     S
C333   C335    1.408   .     A
C334   N371    1.367   .     A
C334   H343    1.079   .     S
C335   H344    1.080   .     S
C335   N372    1.366   .     A
C336   H345    1.080   .     S
C336   C338    1.408   .     A
C336   N371    1.366   .     A
C337   H346    1.079   .     S
C337   N372    1.367   .     A
C338   H347    1.083   .     S
Cu339  Cu340   2.667   .     S
Cu339  O380    1.941   .     S
Cu339  O376    1.957   .     S
Cu339  O377    1.938   .     S
Cu339  N372    2.003   .     S
Cu339  O373    1.957   .     S
Cu340  N371    2.003   .     S
Cu340  O375    1.957   .     S
Cu340  O374    1.957   .     S
Cu340  O379    1.941   .     S
Cu340  O378    1.938   .     S
H357   C408    1.111   .     S
H359   C408    1.111   .     S
C381   O451    1.291   .     A
C381   O449    1.291   .     A
C381   C394    1.461   .     S
C382   H424    1.083   .     S
C382   C384    1.406   .     A
C382   C413    1.407   .     A
C383   C403    1.406   .     A
C383   C414    1.406   .     A
C383   C840    1.505   1_554 S
C384   C409    1.406   .     A
C384   C839    1.505   .     S
C385   C387    1.469   .     S
C385   O455    1.295   .     A
C385   O453    1.287   .     A
C386   O454    1.287   .     A
C386   C388    1.469   .     S
C386   O456    1.295   .     A
C388   C235    1.362   1_655 S
C388   C254    1.531   1_655 S
C389   C391    1.390   .     A
C389   C400    1.403   .     A
C389   H417    1.083   .     S
C390   C401    1.404   .     A
C390   H428    1.083   .     S
C390   C393    1.390   .     A
C391   C394    1.402   .     A
C391   H439    1.083   .     S
C392   O452    1.290   .     A
C392   C395    1.458   .     S
C392   O450    1.290   .     A
C393   C395    1.401   .     A
C393   H441    1.083   .     S
C394   C396    1.402   .     A
C395   C397    1.401   .     A
C396   H442    1.083   .     S
C396   C398    1.390   .     A
C397   H443    1.083   .     S
C397   C399    1.390   .     A
C398   C400    1.404   .     A
C398   H444    1.083   .     S
C399   C401    1.404   .     A
C399   H445    1.083   .     S
C401   C172    1.470   1_565 S
C402   H432    1.107   .     S
C402   H431    1.112   .     S
C402   C235    1.531   1_655 S
C402   C252    1.538   1_655 S
C403   H446    1.083   .     S
C403   C410    1.407   .     A
C404   H430    1.107   .     S
C404   H429    1.112   .     S
C405   H426    1.111   .     S
C405   C252    1.526   1_655 S
C405   H273    1.111   1_655 S
C405   H275    1.111   1_655 S
C406   H438    1.112   .     S
C406   H440    1.107   .     S
C407   H437    1.107   .     S
C407   H436    1.112   .     S
C407   C254    1.538   1_655 S
C407   C256    1.526   1_655 S
C408   H434    1.111   .     S
C409   H418    1.083   .     S
C409   C411    1.408   .     A
C410   N447    1.367   .     A
C410   H419    1.079   .     S
C411   H420    1.080   .     S
C411   N448    1.366   .     A
C412   H421    1.080   .     S
C412   C414    1.408   .     A
C412   N447    1.366   .     A
C413   H422    1.079   .     S
C413   N448    1.367   .     A
C414   H423    1.083   .     S
Cu415  Cu416   2.667   .     S
Cu415  O456    1.941   .     S
Cu415  O452    1.957   .     S
Cu415  O453    1.938   .     S
Cu415  N448    2.003   .     S
Cu415  O449    1.957   .     S
Cu416  N447    2.003   .     S
Cu416  O451    1.957   .     S
Cu416  O450    1.957   .     S
Cu416  O455    1.941   .     S
Cu416  O454    1.938   .     S
H433   C256    1.111   1_655 S
H435   C256    1.111   1_655 S
C457   O527    1.291   .     A
C457   O525    1.291   .     A
C457   C470    1.461   .     S
C458   H500    1.083   .     S
C458   C460    1.406   .     A
C458   C489    1.407   .     A
C459   C479    1.406   .     A
C459   C490    1.406   .     A
C460   C485    1.406   .     A
C460   C3      1.505   1_556 S
C461   C463    1.469   .     S
C461   O531    1.295   .     A
C461   O529    1.287   .     A
C462   O530    1.287   .     A
C462   C464    1.469   .     S
C462   O532    1.295   .     A
C463   C616    1.362   1_455 S
C463   C630    1.531   1_455 S
C464   C539    1.362   .     S
C464   C558    1.531   .     S
C465   C467    1.390   .     A
C465   C476    1.403   .     A
C465   H493    1.083   .     S
C466   C477    1.404   .     A
C466   H504    1.083   .     S
C466   C469    1.390   .     A
C467   C470    1.402   .     A
C467   H515    1.083   .     S
C468   O528    1.290   .     A
C468   C471    1.458   .     S
C468   O526    1.290   .     A
C469   C471    1.401   .     A
C469   H517    1.083   .     S
C470   C472    1.402   .     A
C471   C473    1.401   .     A
C472   H518    1.083   .     S
C472   C474    1.390   .     A
C473   H519    1.083   .     S
C473   C475    1.390   .     A
C474   C476    1.404   .     A
C474   H520    1.083   .     S
C475   C477    1.404   .     A
C475   H521    1.083   .     S
C476   C705    1.470   1_545 S
C477   C704    1.470   .     S
C478   H508    1.107   .     S
C478   H507    1.112   .     S
C478   C539    1.531   .     S
C478   C556    1.538   .     S
C479   H522    1.083   .     S
C479   C486    1.407   .     A
C480   H506    1.107   .     S
C480   H505    1.112   .     S
C480   C630    1.538   1_455 S
C480   C633    1.526   1_455 S
C481   H502    1.111   .     S
C481   C556    1.526   .     S
C481   H577    1.111   .     S
C481   H579    1.111   .     S
C482   H514    1.112   .     S
C482   H516    1.107   .     S
C482   C616    1.531   1_455 S
C482   C635    1.538   1_455 S
C483   H513    1.107   .     S
C483   H512    1.112   .     S
C483   C558    1.538   .     S
C483   C560    1.526   .     S
C484   H510    1.111   .     S
C484   C635    1.526   1_455 S
C484   H661    1.111   1_455 S
C484   H663    1.111   1_455 S
C485   H494    1.083   .     S
C485   C487    1.408   .     A
C486   N523    1.367   .     A
C486   H495    1.079   .     S
C487   H496    1.080   .     S
C487   N524    1.366   .     A
C488   H497    1.080   .     S
C488   C490    1.408   .     A
C488   N523    1.366   .     A
C489   H498    1.079   .     S
C489   N524    1.367   .     A
C490   H499    1.083   .     S
Cu491  Cu492   2.667   .     S
Cu491  O532    1.941   .     S
Cu491  O528    1.957   .     S
Cu491  O529    1.938   .     S
Cu491  N524    2.003   .     S
Cu491  O525    1.957   .     S
Cu492  N523    2.003   .     S
Cu492  O527    1.957   .     S
Cu492  O526    1.957   .     S
Cu492  O531    1.941   .     S
Cu492  O530    1.938   .     S
H501   C633    1.111   1_455 S
H503   C633    1.111   1_455 S
H509   C560    1.111   .     S
H511   C560    1.111   .     S
C533   O603    1.291   .     A
C533   O601    1.291   .     A
C533   C546    1.461   .     S
C534   H576    1.083   .     S
C534   C536    1.406   .     A
C534   C565    1.407   .     A
C535   C555    1.406   .     A
C535   C566    1.406   .     A
C536   C561    1.406   .     A
C536   C79     1.505   1_556 S
C537   C539    1.469   .     S
C537   O607    1.295   .     A
C537   O605    1.287   .     A
C538   O606    1.287   .     A
C538   C540    1.469   .     S
C538   O608    1.295   .     A
C540   C615    1.362   .     S
C540   C634    1.531   .     S
C541   C543    1.390   .     A
C541   C552    1.403   .     A
C541   H569    1.083   .     S
C542   C553    1.404   .     A
C542   H580    1.083   .     S
C542   C545    1.390   .     A
C543   C546    1.402   .     A
C543   H591    1.083   .     S
C544   O604    1.290   .     A
C544   C547    1.458   .     S
C544   O602    1.290   .     A
C545   C547    1.401   .     A
C545   H593    1.083   .     S
C546   C548    1.402   .     A
C547   C549    1.401   .     A
C548   H594    1.083   .     S
C548   C550    1.390   .     A
C549   H595    1.083   .     S
C549   C551    1.390   .     A
C550   C552    1.404   .     A
C550   H596    1.083   .     S
C551   C553    1.404   .     A
C551   H597    1.083   .     S
C552   C781    1.470   1_545 S
C553   C780    1.470   .     S
C554   H584    1.107   .     S
C554   H583    1.112   .     S
C554   C615    1.531   .     S
C554   C632    1.538   .     S
C555   H598    1.083   .     S
C555   C562    1.407   .     A
C556   H582    1.107   .     S
C556   H581    1.112   .     S
C557   H578    1.111   .     S
C557   C632    1.526   .     S
C557   H653    1.111   .     S
C557   H655    1.111   .     S
C558   H590    1.112   .     S
C558   H592    1.107   .     S
C559   H589    1.107   .     S
C559   H588    1.112   .     S
C559   C634    1.538   .     S
C559   C636    1.526   .     S
C560   H586    1.111   .     S
C561   H570    1.083   .     S
C561   C563    1.408   .     A
C562   N599    1.367   .     A
C562   H571    1.079   .     S
C563   H572    1.080   .     S
C563   N600    1.366   .     A
C564   H573    1.080   .     S
C564   C566    1.408   .     A
C564   N599    1.366   .     A
C565   H574    1.079   .     S
C565   N600    1.367   .     A
C566   H575    1.083   .     S
Cu567  Cu568   2.667   .     S
Cu567  O608    1.941   .     S
Cu567  O604    1.957   .     S
Cu567  O605    1.938   .     S
Cu567  N600    2.003   .     S
Cu567  O601    1.957   .     S
Cu568  N599    2.003   .     S
Cu568  O603    1.957   .     S
Cu568  O602    1.957   .     S
Cu568  O607    1.941   .     S
Cu568  O606    1.938   .     S
H585   C636    1.111   .     S
H587   C636    1.111   .     S
C609   O679    1.291   .     A
C609   O677    1.291   .     A
C609   C622    1.461   .     S
C610   H652    1.083   .     S
C610   C612    1.406   .     A
C610   C641    1.407   .     A
C611   C631    1.406   .     A
C611   C642    1.406   .     A
C612   C637    1.406   .     A
C612   C155    1.505   1_556 S
C613   C615    1.469   .     S
C613   O683    1.295   .     A
C613   O681    1.287   .     A
C614   O682    1.287   .     A
C614   C616    1.469   .     S
C614   O684    1.295   .     A
C616   C463    1.362   1_655 S
C616   C482    1.531   1_655 S
C617   C619    1.390   .     A
C617   C628    1.403   .     A
C617   H645    1.083   .     S
C618   C629    1.404   .     A
C618   H656    1.083   .     S
C618   C621    1.390   .     A
C619   C622    1.402   .     A
C619   H667    1.083   .     S
C620   O680    1.290   .     A
C620   C623    1.458   .     S
C620   O678    1.290   .     A
C621   C623    1.401   .     A
C621   H669    1.083   .     S
C622   C624    1.402   .     A
C623   C625    1.401   .     A
C624   H670    1.083   .     S
C624   C626    1.390   .     A
C625   H671    1.083   .     S
C625   C627    1.390   .     A
C626   C628    1.404   .     A
C626   H672    1.083   .     S
C627   C629    1.404   .     A
C627   H673    1.083   .     S
C628   C857    1.470   1_545 S
C629   C856    1.470   .     S
C630   H660    1.107   .     S
C630   H659    1.112   .     S
C630   C463    1.531   1_655 S
C630   C480    1.538   1_655 S
C631   H674    1.083   .     S
C631   C638    1.407   .     A
C632   H658    1.107   .     S
C632   H657    1.112   .     S
C633   H654    1.111   .     S
C633   C480    1.526   1_655 S
C633   H501    1.111   1_655 S
C633   H503    1.111   1_655 S
C634   H666    1.112   .     S
C634   H668    1.107   .     S
C635   H665    1.107   .     S
C635   H664    1.112   .     S
C635   C482    1.538   1_655 S
C635   C484    1.526   1_655 S
C636   H662    1.111   .     S
C637   H646    1.083   .     S
C637   C639    1.408   .     A
C638   N675    1.367   .     A
C638   H647    1.079   .     S
C639   H648    1.080   .     S
C639   N676    1.366   .     A
C640   H649    1.080   .     S
C640   C642    1.408   .     A
C640   N675    1.366   .     A
C641   H650    1.079   .     S
C641   N676    1.367   .     A
C642   H651    1.083   .     S
Cu643  Cu644   2.667   .     S
Cu643  O684    1.941   .     S
Cu643  O680    1.957   .     S
Cu643  O681    1.938   .     S
Cu643  N676    2.003   .     S
Cu643  O677    1.957   .     S
Cu644  N675    2.003   .     S
Cu644  O679    1.957   .     S
Cu644  O678    1.957   .     S
Cu644  O683    1.941   .     S
Cu644  O682    1.938   .     S
H661   C484    1.111   1_655 S
H663   C484    1.111   1_655 S
C685   O755    1.291   .     A
C685   O753    1.291   .     A
C685   C698    1.461   .     S
C686   H728    1.083   .     S
C686   C688    1.406   .     A
C686   C717    1.407   .     A
C687   C707    1.406   .     A
C687   C718    1.406   .     A
C688   C713    1.406   .     A
C688   C231    1.505   1_556 S
C689   C691    1.469   .     S
C689   O759    1.295   .     A
C689   O757    1.287   .     A
C690   O758    1.287   .     A
C690   C692    1.469   .     S
C690   O760    1.295   .     A
C691   C844    1.362   1_455 S
C691   C858    1.531   1_455 S
C692   C767    1.362   .     S
C692   C786    1.531   .     S
C693   C695    1.390   .     A
C693   C704    1.403   .     A
C693   H721    1.083   .     S
C694   C705    1.404   .     A
C694   H732    1.083   .     S
C694   C697    1.390   .     A
C695   C698    1.402   .     A
C695   H743    1.083   .     S
C696   O756    1.290   .     A
C696   C699    1.458   .     S
C696   O754    1.290   .     A
C697   C699    1.401   .     A
C697   H745    1.083   .     S
C698   C700    1.402   .     A
C699   C701    1.401   .     A
C700   H746    1.083   .     S
C700   C702    1.390   .     A
C701   H747    1.083   .     S
C701   C703    1.390   .     A
C702   C704    1.404   .     A
C702   H748    1.083   .     S
C703   C705    1.404   .     A
C703   H749    1.083   .     S
C705   C476    1.470   1_565 S
C706   H736    1.107   .     S
C706   H735    1.112   .     S
C706   C767    1.531   .     S
C706   C784    1.538   .     S
C707   H750    1.083   .     S
C707   C714    1.407   .     A
C708   H734    1.107   .     S
C708   H733    1.112   .     S
C708   C858    1.538   1_455 S
C708   C861    1.526   1_455 S
C709   H730    1.111   .     S
C709   C784    1.526   .     S
C709   H805    1.111   .     S
C709   H807    1.111   .     S
C710   H742    1.112   .     S
C710   H744    1.107   .     S
C710   C844    1.531   1_455 S
C710   C863    1.538   1_455 S
C711   H741    1.107   .     S
C711   H740    1.112   .     S
C711   C786    1.538   .     S
C711   C788    1.526   .     S
C712   H738    1.111   .     S
C712   C863    1.526   1_455 S
C712   H889    1.111   1_455 S
C712   H891    1.111   1_455 S
C713   H722    1.083   .     S
C713   C715    1.408   .     A
C714   N751    1.367   .     A
C714   H723    1.079   .     S
C715   H724    1.080   .     S
C715   N752    1.366   .     A
C716   H725    1.080   .     S
C716   C718    1.408   .     A
C716   N751    1.366   .     A
C717   H726    1.079   .     S
C717   N752    1.367   .     A
C718   H727    1.083   .     S
Cu719  Cu720   2.667   .     S
Cu719  O760    1.941   .     S
Cu719  O756    1.957   .     S
Cu719  O757    1.938   .     S
Cu719  N752    2.003   .     S
Cu719  O753    1.957   .     S
Cu720  N751    2.003   .     S
Cu720  O755    1.957   .     S
Cu720  O754    1.957   .     S
Cu720  O759    1.941   .     S
Cu720  O758    1.938   .     S
H729   C861    1.111   1_455 S
H731   C861    1.111   1_455 S
H737   C788    1.111   .     S
H739   C788    1.111   .     S
C761   O831    1.291   .     A
C761   O829    1.291   .     A
C761   C774    1.461   .     S
C762   H804    1.083   .     S
C762   C764    1.406   .     A
C762   C793    1.407   .     A
C763   C783    1.406   .     A
C763   C794    1.406   .     A
C764   C789    1.406   .     A
C764   C307    1.505   1_556 S
C765   C767    1.469   .     S
C765   O835    1.295   .     A
C765   O833    1.287   .     A
C766   O834    1.287   .     A
C766   C768    1.469   .     S
C766   O836    1.295   .     A
C768   C843    1.362   .     S
C768   C862    1.531   .     S
C769   C771    1.390   .     A
C769   C780    1.403   .     A
C769   H797    1.083   .     S
C770   C781    1.404   .     A
C770   H808    1.083   .     S
C770   C773    1.390   .     A
C771   C774    1.402   .     A
C771   H819    1.083   .     S
C772   O832    1.290   .     A
C772   C775    1.458   .     S
C772   O830    1.290   .     A
C773   C775    1.401   .     A
C773   H821    1.083   .     S
C774   C776    1.402   .     A
C775   C777    1.401   .     A
C776   H822    1.083   .     S
C776   C778    1.390   .     A
C777   H823    1.083   .     S
C777   C779    1.390   .     A
C778   C780    1.404   .     A
C778   H824    1.083   .     S
C779   C781    1.404   .     A
C779   H825    1.083   .     S
C781   C552    1.470   1_565 S
C782   H812    1.107   .     S
C782   H811    1.112   .     S
C782   C843    1.531   .     S
C782   C860    1.538   .     S
C783   H826    1.083   .     S
C783   C790    1.407   .     A
C784   H810    1.107   .     S
C784   H809    1.112   .     S
C785   H806    1.111   .     S
C785   C860    1.526   .     S
C785   H881    1.111   .     S
C785   H883    1.111   .     S
C786   H818    1.112   .     S
C786   H820    1.107   .     S
C787   H817    1.107   .     S
C787   H816    1.112   .     S
C787   C862    1.538   .     S
C787   C864    1.526   .     S
C788   H814    1.111   .     S
C789   H798    1.083   .     S
C789   C791    1.408   .     A
C790   N827    1.367   .     A
C790   H799    1.079   .     S
C791   H800    1.080   .     S
C791   N828    1.366   .     A
C792   H801    1.080   .     S
C792   C794    1.408   .     A
C792   N827    1.366   .     A
C793   H802    1.079   .     S
C793   N828    1.367   .     A
C794   H803    1.083   .     S
Cu795  Cu796   2.667   .     S
Cu795  O836    1.941   .     S
Cu795  O832    1.957   .     S
Cu795  O833    1.938   .     S
Cu795  N828    2.003   .     S
Cu795  O829    1.957   .     S
Cu796  N827    2.003   .     S
Cu796  O831    1.957   .     S
Cu796  O830    1.957   .     S
Cu796  O835    1.941   .     S
Cu796  O834    1.938   .     S
H813   C864    1.111   .     S
H815   C864    1.111   .     S
C837   O907    1.291   .     A
C837   O905    1.291   .     A
C837   C850    1.461   .     S
C838   H880    1.083   .     S
C838   C840    1.406   .     A
C838   C869    1.407   .     A
C839   C859    1.406   .     A
C839   C870    1.406   .     A
C840   C865    1.406   .     A
C840   C383    1.505   1_556 S
C841   C843    1.469   .     S
C841   O911    1.295   .     A
C841   O909    1.287   .     A
C842   O910    1.287   .     A
C842   C844    1.469   .     S
C842   O912    1.295   .     A
C844   C691    1.362   1_655 S
C844   C710    1.531   1_655 S
C845   C847    1.390   .     A
C845   C856    1.403   .     A
C845   H873    1.083   .     S
C846   C857    1.404   .     A
C846   H884    1.083   .     S
C846   C849    1.390   .     A
C847   C850    1.402   .     A
C847   H895    1.083   .     S
C848   O908    1.290   .     A
C848   C851    1.458   .     S
C848   O906    1.290   .     A
C849   C851    1.401   .     A
C849   H897    1.083   .     S
C850   C852    1.402   .     A
C851   C853    1.401   .     A
C852   H898    1.083   .     S
C852   C854    1.390   .     A
C853   H899    1.083   .     S
C853   C855    1.390   .     A
C854   C856    1.404   .     A
C854   H900    1.083   .     S
C855   C857    1.404   .     A
C855   H901    1.083   .     S
C857   C628    1.470   1_565 S
C858   H888    1.107   .     S
C858   H887    1.112   .     S
C858   C691    1.531   1_655 S
C858   C708    1.538   1_655 S
C859   H902    1.083   .     S
C859   C866    1.407   .     A
C860   H886    1.107   .     S
C860   H885    1.112   .     S
C861   H882    1.111   .     S
C861   C708    1.526   1_655 S
C861   H729    1.111   1_655 S
C861   H731    1.111   1_655 S
C862   H894    1.112   .     S
C862   H896    1.107   .     S
C863   H893    1.107   .     S
C863   H892    1.112   .     S
C863   C710    1.538   1_655 S
C863   C712    1.526   1_655 S
C864   H890    1.111   .     S
C865   H874    1.083   .     S
C865   C867    1.408   .     A
C866   N903    1.367   .     A
C866   H875    1.079   .     S
C867   H876    1.080   .     S
C867   N904    1.366   .     A
C868   H877    1.080   .     S
C868   C870    1.408   .     A
C868   N903    1.366   .     A
C869   H878    1.079   .     S
C869   N904    1.367   .     A
C870   H879    1.083   .     S
Cu871  Cu872   2.667   .     S
Cu871  O912    1.941   .     S
Cu871  O908    1.957   .     S
Cu871  O909    1.938   .     S
Cu871  N904    2.003   .     S
Cu871  O905    1.957   .     S
Cu872  N903    2.003   .     S
Cu872  O907    1.957   .     S
Cu872  O906    1.957   .     S
Cu872  O911    1.941   .     S
Cu872  O910    1.938   .     S
H889   C712    1.111   1_655 S
H891   C712    1.111   1_655 S
