data_str_m3_o2_o10_pcu_sym.220
_audit_creation_date              2020-01-03
_audit_creation_method            'Materials Studio'
_symmetry_space_group_name_H-M    'P1'
_symmetry_Int_Tables_number       1
_symmetry_cell_setting            triclinic
loop_
_symmetry_equiv_pos_as_xyz
  x,y,z
_cell_length_a                    25.9514
_cell_length_b                    29.9414
_cell_length_c                    28.5788
_cell_angle_alpha                 89.7185
_cell_angle_beta                  98.6490
_cell_angle_gamma                 91.6812
loop_
_atom_site_label
_atom_site_type_symbol
_atom_site_fract_x
_atom_site_fract_y
_atom_site_fract_z
_atom_site_U_iso_or_equiv
_atom_site_adp_type
_atom_site_occupancy
C1     C     0.16543   0.16406   0.24989   0.00000  Uiso   1.00
C2     C     0.16616   0.33597   0.24979   0.00000  Uiso   1.00
C3     C     0.12123   0.23140   0.04769   0.00000  Uiso   1.00
C4     C     0.18378   0.28775   0.45018   0.00000  Uiso   1.00
C5     C     0.12663   0.22807   0.09780   0.00000  Uiso   1.00
C6     C     0.19225   0.28352   0.40219   0.00000  Uiso   1.00
C7     C     0.20531   0.27135   0.10580   0.00000  Uiso   1.00
C8     C     0.14197   0.21592   0.39522   0.00000  Uiso   1.00
C9     C     0.20513   0.26948   0.05672   0.00000  Uiso   1.00
C10    C     0.14391   0.21445   0.44467   0.00000  Uiso   1.00
C11    C     0.16238   0.25099   0.02618   0.00000  Uiso   1.00
C12    C     0.16291   0.25121   0.47303   0.00000  Uiso   1.00
C13    C     0.06730   0.24999   0.23772   0.00000  Uiso   1.00
C14    C     0.26607   0.25037   0.26226   0.00000  Uiso   1.00
C15    C     0.01261   0.24414   0.23203   0.00000  Uiso   1.00
C16    C     0.32074   0.25693   0.26773   0.00000  Uiso   1.00
C17    C     0.13140   0.04483   0.27482   0.00000  Uiso   1.00
C18    C     0.13580   0.45301   0.21160   0.00000  Uiso   1.00
C19    C     0.12818   0.09142   0.27313   0.00000  Uiso   1.00
C20    C     0.13528   0.40619   0.21173   0.00000  Uiso   1.00
C21    C     0.16376   0.11612   0.24958   0.00000  Uiso   1.00
C22    C     0.16526   0.38395   0.24928   0.00000  Uiso   1.00
C23    C     0.19956   0.09499   0.22603   0.00000  Uiso   1.00
C24    C     0.19491   0.40716   0.28664   0.00000  Uiso   1.00
C25    C     0.20240   0.04910   0.22657   0.00000  Uiso   1.00
C26    C     0.19600   0.45351   0.28701   0.00000  Uiso   1.00
C27    C     0.16793   0.02421   0.25109   0.00000  Uiso   1.00
C28    C     0.16667   0.47605   0.24954   0.00000  Uiso   1.00
H29    H     0.22604   0.11440   0.20751   0.00000  Uiso   1.00
H30    H     0.21784   0.38913   0.31508   0.00000  Uiso   1.00
H31    H     0.23837   0.28381   0.04260   0.00000  Uiso   1.00
H32    H     0.12803   0.18516   0.46040   0.00000  Uiso   1.00
N33    N     0.16667   0.24999   0.12623   0.00000  Uiso   1.00
N34    N     0.16667   0.25001   0.37376   0.00000  Uiso   1.00
O35    O     0.16667   0.18453   0.28974   0.00000  Uiso   1.00
O36    O     0.16666   0.31546   0.21026   0.00000  Uiso   1.00
O37    O     0.16667   0.18453   0.21026   0.00000  Uiso   1.00
O38    O     0.16666   0.31547   0.28974   0.00000  Uiso   1.00
O39    O     0.09058   0.25000   0.28044   0.00000  Uiso   1.00
O40    O     0.24275   0.25000   0.21955   0.00000  Uiso   1.00
O41    O     0.09058   0.24999   0.20096   0.00000  Uiso   1.00
O42    O     0.24275   0.25000   0.29903   0.00000  Uiso   1.00
Zn43   Zn    0.16667   0.25000   0.30307   0.00000  Uiso   1.00
Zn44   Zn    0.16667   0.24999   0.19693   0.00000  Uiso   1.00
N45    N     0.32096   0.21913   0.19201   0.00000  Uiso   1.00
H46    H     0.33204   0.22905   0.16035   0.00000  Uiso   1.00
C47    C     0.32153   0.17125   0.19862   0.00000  Uiso   1.00
H48    H     0.30419   0.16178   0.23064   0.00000  Uiso   1.00
H49    H     0.02879   0.15952   0.20254   0.00000  Uiso   1.00
H50    H     0.29830   0.15463   0.16738   0.00000  Uiso   1.00
N51    N     0.01227   0.28239   0.30750   0.00000  Uiso   1.00
H52    H     0.33253   0.27436   0.33885   0.00000  Uiso   1.00
C53    C     0.01472   0.33007   0.29928   0.00000  Uiso   1.00
H54    H     0.03744   0.34682   0.33069   0.00000  Uiso   1.00
H55    H     0.30812   0.34352   0.29323   0.00000  Uiso   1.00
H56    H     0.03452   0.33764   0.26816   0.00000  Uiso   1.00
O57    O     0.09836   0.01814   0.29757   0.00000  Uiso   1.00
H58    H     0.07582   0.03692   0.31387   0.00000  Uiso   1.00
O59    O     0.10590   0.47462   0.17449   0.00000  Uiso   1.00
H60    H     0.10868   0.00737   0.17869   0.00000  Uiso   1.00
O61    O     0.08923   0.11126   0.29304   0.00000  Uiso   1.00
H62    H     0.08130   0.14033   0.27742   0.00000  Uiso   1.00
O63    O     0.10509   0.38113   0.17663   0.00000  Uiso   1.00
H64    H     0.08600   0.40092   0.15262   0.00000  Uiso   1.00
O65    O     0.23894   0.03032   0.20263   0.00000  Uiso   1.00
H66    H     0.23936   0.49762   0.20756   0.00000  Uiso   1.00
O67    O     0.22539   0.47761   0.32326   0.00000  Uiso   1.00
H68    H     0.24356   0.45658   0.34664   0.00000  Uiso   1.00
O69    O     0.07525   0.21561   0.02163   0.00000  Uiso   1.00
H70    H     0.06866   0.23312   0.49196   0.00000  Uiso   1.00
O71    O     0.19518   0.32725   0.47490   0.00000  Uiso   1.00
H72    H     0.19906   0.35176   0.45215   0.00000  Uiso   1.00
N73    N     0.08984   0.20188   0.11882   0.00000  Uiso   1.00
H74    H     0.05187   0.20975   0.10621   0.00000  Uiso   1.00
C75    C     0.09739   0.15426   0.11641   0.00000  Uiso   1.00
H76    H     0.08793   0.14234   0.07927   0.00000  Uiso   1.00
H77    H     0.07133   0.13623   0.13800   0.00000  Uiso   1.00
H78    H     0.13834   0.14610   0.13028   0.00000  Uiso   1.00
N79    N     0.23028   0.31239   0.38540   0.00000  Uiso   1.00
H80    H     0.23245   0.30980   0.35024   0.00000  Uiso   1.00
C81    C     0.28224   0.31128   0.41245   0.00000  Uiso   1.00
H82    H     0.30888   0.33424   0.39615   0.00000  Uiso   1.00
H83    H     0.29728   0.27689   0.41272   0.00000  Uiso   1.00
H84    H     0.28277   0.32245   0.44942   0.00000  Uiso   1.00
O85    O     0.24545   0.29514   0.13216   0.00000  Uiso   1.00
H86    H     0.23267   0.30568   0.16079   0.00000  Uiso   1.00
O87    O     0.11526   0.18165   0.36971   0.00000  Uiso   1.00
H88    H     0.10114   0.19392   0.33861   0.00000  Uiso   1.00
C89    C     0.49876   0.16406   0.24989   0.00000  Uiso   1.00
C90    C     0.49949   0.33597   0.24979   0.00000  Uiso   1.00
C91    C     0.45457   0.23140   0.04769   0.00000  Uiso   1.00
C92    C     0.51712   0.28775   0.45018   0.00000  Uiso   1.00
C93    C     0.45996   0.22807   0.09780   0.00000  Uiso   1.00
C94    C     0.52559   0.28352   0.40219   0.00000  Uiso   1.00
C95    C     0.53864   0.27135   0.10580   0.00000  Uiso   1.00
C96    C     0.47530   0.21592   0.39522   0.00000  Uiso   1.00
C97    C     0.53847   0.26948   0.05672   0.00000  Uiso   1.00
C98    C     0.47725   0.21445   0.44467   0.00000  Uiso   1.00
C99    C     0.49572   0.25099   0.02618   0.00000  Uiso   1.00
C100   C     0.49624   0.25121   0.47303   0.00000  Uiso   1.00
C101   C     0.40063   0.24999   0.23772   0.00000  Uiso   1.00
C102   C     0.59941   0.25037   0.26226   0.00000  Uiso   1.00
C103   C     0.34594   0.24414   0.23203   0.00000  Uiso   1.00
C104   C     0.65407   0.25693   0.26773   0.00000  Uiso   1.00
C105   C     0.46473   0.04483   0.27482   0.00000  Uiso   1.00
C106   C     0.46913   0.45301   0.21160   0.00000  Uiso   1.00
C107   C     0.46151   0.09142   0.27313   0.00000  Uiso   1.00
C108   C     0.46861   0.40619   0.21173   0.00000  Uiso   1.00
C109   C     0.49709   0.11612   0.24958   0.00000  Uiso   1.00
C110   C     0.49859   0.38395   0.24928   0.00000  Uiso   1.00
C111   C     0.53289   0.09499   0.22603   0.00000  Uiso   1.00
C112   C     0.52824   0.40716   0.28664   0.00000  Uiso   1.00
C113   C     0.53573   0.04910   0.22657   0.00000  Uiso   1.00
C114   C     0.52933   0.45351   0.28701   0.00000  Uiso   1.00
C115   C     0.50126   0.02421   0.25109   0.00000  Uiso   1.00
C116   C     0.50000   0.47605   0.24954   0.00000  Uiso   1.00
H117   H     0.55937   0.11440   0.20751   0.00000  Uiso   1.00
H118   H     0.55118   0.38913   0.31508   0.00000  Uiso   1.00
H119   H     0.57170   0.28381   0.04260   0.00000  Uiso   1.00
H120   H     0.46137   0.18516   0.46040   0.00000  Uiso   1.00
N121   N     0.50000   0.24999   0.12623   0.00000  Uiso   1.00
N122   N     0.50000   0.25001   0.37376   0.00000  Uiso   1.00
O123   O     0.50000   0.18453   0.28974   0.00000  Uiso   1.00
O124   O     0.50000   0.31546   0.21026   0.00000  Uiso   1.00
O125   O     0.50000   0.18453   0.21026   0.00000  Uiso   1.00
O126   O     0.50000   0.31547   0.28974   0.00000  Uiso   1.00
O127   O     0.42392   0.25000   0.28044   0.00000  Uiso   1.00
O128   O     0.57608   0.25000   0.21955   0.00000  Uiso   1.00
O129   O     0.42392   0.24999   0.20096   0.00000  Uiso   1.00
O130   O     0.57608   0.25000   0.29903   0.00000  Uiso   1.00
Zn131  Zn    0.50000   0.25000   0.30307   0.00000  Uiso   1.00
Zn132  Zn    0.50000   0.24999   0.19693   0.00000  Uiso   1.00
N133   N     0.65429   0.21913   0.19201   0.00000  Uiso   1.00
H134   H     0.66537   0.22905   0.16035   0.00000  Uiso   1.00
C135   C     0.65486   0.17125   0.19862   0.00000  Uiso   1.00
H136   H     0.63752   0.16178   0.23064   0.00000  Uiso   1.00
H137   H     0.36212   0.15952   0.20254   0.00000  Uiso   1.00
H138   H     0.63164   0.15463   0.16738   0.00000  Uiso   1.00
N139   N     0.34560   0.28239   0.30750   0.00000  Uiso   1.00
H140   H     0.66586   0.27436   0.33885   0.00000  Uiso   1.00
C141   C     0.34806   0.33007   0.29928   0.00000  Uiso   1.00
H142   H     0.37077   0.34682   0.33069   0.00000  Uiso   1.00
H143   H     0.64145   0.34352   0.29323   0.00000  Uiso   1.00
H144   H     0.36785   0.33764   0.26816   0.00000  Uiso   1.00
O145   O     0.43169   0.01814   0.29757   0.00000  Uiso   1.00
H146   H     0.40916   0.03692   0.31387   0.00000  Uiso   1.00
O147   O     0.43923   0.47462   0.17449   0.00000  Uiso   1.00
H148   H     0.44201   0.00737   0.17869   0.00000  Uiso   1.00
O149   O     0.42256   0.11126   0.29304   0.00000  Uiso   1.00
H150   H     0.41464   0.14033   0.27742   0.00000  Uiso   1.00
O151   O     0.43842   0.38113   0.17663   0.00000  Uiso   1.00
H152   H     0.41933   0.40092   0.15262   0.00000  Uiso   1.00
O153   O     0.57227   0.03032   0.20263   0.00000  Uiso   1.00
H154   H     0.57269   0.49762   0.20756   0.00000  Uiso   1.00
O155   O     0.55872   0.47761   0.32326   0.00000  Uiso   1.00
H156   H     0.57689   0.45658   0.34664   0.00000  Uiso   1.00
O157   O     0.40859   0.21561   0.02163   0.00000  Uiso   1.00
H158   H     0.40199   0.23312   0.49196   0.00000  Uiso   1.00
O159   O     0.52851   0.32725   0.47490   0.00000  Uiso   1.00
H160   H     0.53240   0.35176   0.45215   0.00000  Uiso   1.00
N161   N     0.42317   0.20188   0.11882   0.00000  Uiso   1.00
H162   H     0.38521   0.20975   0.10621   0.00000  Uiso   1.00
C163   C     0.43072   0.15426   0.11641   0.00000  Uiso   1.00
H164   H     0.42126   0.14234   0.07927   0.00000  Uiso   1.00
H165   H     0.40467   0.13623   0.13800   0.00000  Uiso   1.00
H166   H     0.47167   0.14610   0.13028   0.00000  Uiso   1.00
N167   N     0.56361   0.31239   0.38540   0.00000  Uiso   1.00
H168   H     0.56578   0.30980   0.35024   0.00000  Uiso   1.00
C169   C     0.61558   0.31128   0.41245   0.00000  Uiso   1.00
H170   H     0.64221   0.33424   0.39615   0.00000  Uiso   1.00
H171   H     0.63061   0.27689   0.41272   0.00000  Uiso   1.00
H172   H     0.61610   0.32245   0.44942   0.00000  Uiso   1.00
O173   O     0.57879   0.29514   0.13216   0.00000  Uiso   1.00
H174   H     0.56601   0.30568   0.16079   0.00000  Uiso   1.00
O175   O     0.44860   0.18165   0.36971   0.00000  Uiso   1.00
H176   H     0.43448   0.19392   0.33861   0.00000  Uiso   1.00
C177   C     0.83209   0.16406   0.24989   0.00000  Uiso   1.00
C178   C     0.83283   0.33597   0.24979   0.00000  Uiso   1.00
C179   C     0.78790   0.23140   0.04769   0.00000  Uiso   1.00
C180   C     0.85045   0.28775   0.45018   0.00000  Uiso   1.00
C181   C     0.79329   0.22807   0.09780   0.00000  Uiso   1.00
C182   C     0.85892   0.28352   0.40219   0.00000  Uiso   1.00
C183   C     0.87197   0.27135   0.10580   0.00000  Uiso   1.00
C184   C     0.80863   0.21592   0.39522   0.00000  Uiso   1.00
C185   C     0.87180   0.26948   0.05672   0.00000  Uiso   1.00
C186   C     0.81058   0.21445   0.44467   0.00000  Uiso   1.00
C187   C     0.82905   0.25099   0.02618   0.00000  Uiso   1.00
C188   C     0.82957   0.25121   0.47303   0.00000  Uiso   1.00
C189   C     0.73396   0.24999   0.23772   0.00000  Uiso   1.00
C190   C     0.93274   0.25037   0.26226   0.00000  Uiso   1.00
C191   C     0.67927   0.24414   0.23203   0.00000  Uiso   1.00
C192   C     0.98740   0.25693   0.26773   0.00000  Uiso   1.00
C193   C     0.79807   0.04483   0.27482   0.00000  Uiso   1.00
C194   C     0.80247   0.45301   0.21160   0.00000  Uiso   1.00
C195   C     0.79484   0.09142   0.27313   0.00000  Uiso   1.00
C196   C     0.80194   0.40619   0.21173   0.00000  Uiso   1.00
C197   C     0.83042   0.11612   0.24958   0.00000  Uiso   1.00
C198   C     0.83192   0.38395   0.24928   0.00000  Uiso   1.00
C199   C     0.86623   0.09499   0.22603   0.00000  Uiso   1.00
C200   C     0.86157   0.40716   0.28664   0.00000  Uiso   1.00
C201   C     0.86907   0.04910   0.22657   0.00000  Uiso   1.00
C202   C     0.86266   0.45351   0.28701   0.00000  Uiso   1.00
C203   C     0.83460   0.02421   0.25109   0.00000  Uiso   1.00
C204   C     0.83333   0.47605   0.24954   0.00000  Uiso   1.00
H205   H     0.89270   0.11440   0.20751   0.00000  Uiso   1.00
H206   H     0.88451   0.38913   0.31508   0.00000  Uiso   1.00
H207   H     0.90503   0.28381   0.04260   0.00000  Uiso   1.00
H208   H     0.79470   0.18516   0.46040   0.00000  Uiso   1.00
N209   N     0.83333   0.24999   0.12623   0.00000  Uiso   1.00
N210   N     0.83333   0.25001   0.37376   0.00000  Uiso   1.00
O211   O     0.83334   0.18453   0.28974   0.00000  Uiso   1.00
O212   O     0.83333   0.31546   0.21026   0.00000  Uiso   1.00
O213   O     0.83334   0.18453   0.21026   0.00000  Uiso   1.00
O214   O     0.83333   0.31547   0.28974   0.00000  Uiso   1.00
O215   O     0.75725   0.25000   0.28044   0.00000  Uiso   1.00
O216   O     0.90942   0.25000   0.21955   0.00000  Uiso   1.00
O217   O     0.75725   0.24999   0.20096   0.00000  Uiso   1.00
O218   O     0.90942   0.25000   0.29903   0.00000  Uiso   1.00
Zn219  Zn    0.83333   0.25000   0.30307   0.00000  Uiso   1.00
Zn220  Zn    0.83333   0.24999   0.19693   0.00000  Uiso   1.00
N221   N     0.98762   0.21913   0.19201   0.00000  Uiso   1.00
H222   H     0.99870   0.22905   0.16035   0.00000  Uiso   1.00
C223   C     0.98819   0.17125   0.19862   0.00000  Uiso   1.00
H224   H     0.97086   0.16178   0.23064   0.00000  Uiso   1.00
H225   H     0.69546   0.15952   0.20254   0.00000  Uiso   1.00
H226   H     0.96497   0.15463   0.16738   0.00000  Uiso   1.00
N227   N     0.67893   0.28239   0.30750   0.00000  Uiso   1.00
H228   H     0.99920   0.27436   0.33885   0.00000  Uiso   1.00
C229   C     0.68139   0.33007   0.29928   0.00000  Uiso   1.00
H230   H     0.70410   0.34682   0.33069   0.00000  Uiso   1.00
H231   H     0.97479   0.34352   0.29323   0.00000  Uiso   1.00
H232   H     0.70118   0.33764   0.26816   0.00000  Uiso   1.00
O233   O     0.76502   0.01814   0.29757   0.00000  Uiso   1.00
H234   H     0.74249   0.03692   0.31387   0.00000  Uiso   1.00
O235   O     0.77256   0.47462   0.17449   0.00000  Uiso   1.00
H236   H     0.77535   0.00737   0.17869   0.00000  Uiso   1.00
O237   O     0.75589   0.11126   0.29304   0.00000  Uiso   1.00
H238   H     0.74797   0.14033   0.27742   0.00000  Uiso   1.00
O239   O     0.77175   0.38113   0.17663   0.00000  Uiso   1.00
H240   H     0.75266   0.40092   0.15262   0.00000  Uiso   1.00
O241   O     0.90561   0.03032   0.20263   0.00000  Uiso   1.00
H242   H     0.90602   0.49762   0.20756   0.00000  Uiso   1.00
O243   O     0.89205   0.47761   0.32326   0.00000  Uiso   1.00
H244   H     0.91023   0.45658   0.34664   0.00000  Uiso   1.00
O245   O     0.74192   0.21561   0.02163   0.00000  Uiso   1.00
H246   H     0.73533   0.23312   0.49196   0.00000  Uiso   1.00
O247   O     0.86184   0.32725   0.47490   0.00000  Uiso   1.00
H248   H     0.86573   0.35176   0.45215   0.00000  Uiso   1.00
N249   N     0.75650   0.20188   0.11882   0.00000  Uiso   1.00
H250   H     0.71854   0.20975   0.10621   0.00000  Uiso   1.00
C251   C     0.76405   0.15426   0.11641   0.00000  Uiso   1.00
H252   H     0.75459   0.14234   0.07927   0.00000  Uiso   1.00
H253   H     0.73800   0.13623   0.13800   0.00000  Uiso   1.00
H254   H     0.80500   0.14610   0.13028   0.00000  Uiso   1.00
N255   N     0.89694   0.31239   0.38540   0.00000  Uiso   1.00
H256   H     0.89912   0.30980   0.35024   0.00000  Uiso   1.00
C257   C     0.94891   0.31128   0.41245   0.00000  Uiso   1.00
H258   H     0.97554   0.33424   0.39615   0.00000  Uiso   1.00
H259   H     0.96394   0.27689   0.41272   0.00000  Uiso   1.00
H260   H     0.94943   0.32245   0.44942   0.00000  Uiso   1.00
O261   O     0.91212   0.29514   0.13216   0.00000  Uiso   1.00
H262   H     0.89934   0.30568   0.16079   0.00000  Uiso   1.00
O263   O     0.78193   0.18165   0.36971   0.00000  Uiso   1.00
H264   H     0.76781   0.19392   0.33861   0.00000  Uiso   1.00
C265   C     0.16543   0.66406   0.24989   0.00000  Uiso   1.00
C266   C     0.16616   0.83597   0.24979   0.00000  Uiso   1.00
C267   C     0.12123   0.73140   0.04769   0.00000  Uiso   1.00
C268   C     0.18378   0.78775   0.45018   0.00000  Uiso   1.00
C269   C     0.12663   0.72807   0.09780   0.00000  Uiso   1.00
C270   C     0.19225   0.78352   0.40219   0.00000  Uiso   1.00
C271   C     0.20531   0.77135   0.10580   0.00000  Uiso   1.00
C272   C     0.14197   0.71592   0.39522   0.00000  Uiso   1.00
C273   C     0.20513   0.76948   0.05672   0.00000  Uiso   1.00
C274   C     0.14391   0.71445   0.44467   0.00000  Uiso   1.00
C275   C     0.16238   0.75099   0.02618   0.00000  Uiso   1.00
C276   C     0.16291   0.75121   0.47303   0.00000  Uiso   1.00
C277   C     0.06730   0.74999   0.23772   0.00000  Uiso   1.00
C278   C     0.26607   0.75037   0.26226   0.00000  Uiso   1.00
C279   C     0.01261   0.74414   0.23203   0.00000  Uiso   1.00
C280   C     0.32074   0.75693   0.26773   0.00000  Uiso   1.00
C281   C     0.13140   0.54483   0.27482   0.00000  Uiso   1.00
C282   C     0.13580   0.95301   0.21160   0.00000  Uiso   1.00
C283   C     0.12818   0.59142   0.27313   0.00000  Uiso   1.00
C284   C     0.13528   0.90619   0.21173   0.00000  Uiso   1.00
C285   C     0.16376   0.61612   0.24958   0.00000  Uiso   1.00
C286   C     0.16526   0.88395   0.24928   0.00000  Uiso   1.00
C287   C     0.19956   0.59499   0.22603   0.00000  Uiso   1.00
C288   C     0.19491   0.90716   0.28664   0.00000  Uiso   1.00
C289   C     0.20240   0.54910   0.22657   0.00000  Uiso   1.00
C290   C     0.19600   0.95351   0.28701   0.00000  Uiso   1.00
C291   C     0.16793   0.52421   0.25109   0.00000  Uiso   1.00
C292   C     0.16667   0.97605   0.24954   0.00000  Uiso   1.00
H293   H     0.22604   0.61440   0.20751   0.00000  Uiso   1.00
H294   H     0.21784   0.88913   0.31508   0.00000  Uiso   1.00
H295   H     0.23837   0.78381   0.04260   0.00000  Uiso   1.00
H296   H     0.12803   0.68516   0.46040   0.00000  Uiso   1.00
N297   N     0.16667   0.74999   0.12623   0.00000  Uiso   1.00
N298   N     0.16667   0.75001   0.37376   0.00000  Uiso   1.00
O299   O     0.16667   0.68453   0.28974   0.00000  Uiso   1.00
O300   O     0.16666   0.81546   0.21026   0.00000  Uiso   1.00
O301   O     0.16667   0.68453   0.21026   0.00000  Uiso   1.00
O302   O     0.16666   0.81547   0.28974   0.00000  Uiso   1.00
O303   O     0.09058   0.75000   0.28044   0.00000  Uiso   1.00
O304   O     0.24275   0.75000   0.21955   0.00000  Uiso   1.00
O305   O     0.09058   0.74999   0.20096   0.00000  Uiso   1.00
O306   O     0.24275   0.75000   0.29903   0.00000  Uiso   1.00
Zn307  Zn    0.16667   0.75000   0.30307   0.00000  Uiso   1.00
Zn308  Zn    0.16667   0.74999   0.19693   0.00000  Uiso   1.00
N309   N     0.32096   0.71913   0.19201   0.00000  Uiso   1.00
H310   H     0.33204   0.72905   0.16035   0.00000  Uiso   1.00
C311   C     0.32153   0.67125   0.19862   0.00000  Uiso   1.00
H312   H     0.30419   0.66178   0.23064   0.00000  Uiso   1.00
H313   H     0.02879   0.65952   0.20254   0.00000  Uiso   1.00
H314   H     0.29830   0.65463   0.16738   0.00000  Uiso   1.00
N315   N     0.01227   0.78239   0.30750   0.00000  Uiso   1.00
H316   H     0.33253   0.77436   0.33885   0.00000  Uiso   1.00
C317   C     0.01472   0.83007   0.29928   0.00000  Uiso   1.00
H318   H     0.03744   0.84682   0.33069   0.00000  Uiso   1.00
H319   H     0.30812   0.84352   0.29323   0.00000  Uiso   1.00
H320   H     0.03452   0.83764   0.26816   0.00000  Uiso   1.00
O321   O     0.09836   0.51814   0.29757   0.00000  Uiso   1.00
H322   H     0.07582   0.53692   0.31387   0.00000  Uiso   1.00
O323   O     0.10590   0.97462   0.17449   0.00000  Uiso   1.00
H324   H     0.10868   0.50737   0.17869   0.00000  Uiso   1.00
O325   O     0.08923   0.61126   0.29304   0.00000  Uiso   1.00
H326   H     0.08130   0.64033   0.27742   0.00000  Uiso   1.00
O327   O     0.10509   0.88113   0.17663   0.00000  Uiso   1.00
H328   H     0.08600   0.90092   0.15262   0.00000  Uiso   1.00
O329   O     0.23894   0.53032   0.20263   0.00000  Uiso   1.00
H330   H     0.23936   0.99762   0.20756   0.00000  Uiso   1.00
O331   O     0.22539   0.97761   0.32326   0.00000  Uiso   1.00
H332   H     0.24356   0.95658   0.34664   0.00000  Uiso   1.00
O333   O     0.07525   0.71561   0.02163   0.00000  Uiso   1.00
H334   H     0.06866   0.73312   0.49196   0.00000  Uiso   1.00
O335   O     0.19518   0.82725   0.47490   0.00000  Uiso   1.00
H336   H     0.19906   0.85176   0.45215   0.00000  Uiso   1.00
N337   N     0.08984   0.70188   0.11882   0.00000  Uiso   1.00
H338   H     0.05187   0.70975   0.10621   0.00000  Uiso   1.00
C339   C     0.09739   0.65426   0.11641   0.00000  Uiso   1.00
H340   H     0.08793   0.64234   0.07927   0.00000  Uiso   1.00
H341   H     0.07133   0.63623   0.13800   0.00000  Uiso   1.00
H342   H     0.13834   0.64610   0.13028   0.00000  Uiso   1.00
N343   N     0.23028   0.81239   0.38540   0.00000  Uiso   1.00
H344   H     0.23245   0.80980   0.35024   0.00000  Uiso   1.00
C345   C     0.28224   0.81128   0.41245   0.00000  Uiso   1.00
H346   H     0.30888   0.83424   0.39615   0.00000  Uiso   1.00
H347   H     0.29728   0.77689   0.41272   0.00000  Uiso   1.00
H348   H     0.28277   0.82245   0.44942   0.00000  Uiso   1.00
O349   O     0.24545   0.79514   0.13216   0.00000  Uiso   1.00
H350   H     0.23267   0.80568   0.16079   0.00000  Uiso   1.00
O351   O     0.11526   0.68165   0.36971   0.00000  Uiso   1.00
H352   H     0.10114   0.69392   0.33861   0.00000  Uiso   1.00
C353   C     0.49876   0.66406   0.24989   0.00000  Uiso   1.00
C354   C     0.49949   0.83597   0.24979   0.00000  Uiso   1.00
C355   C     0.45457   0.73140   0.04769   0.00000  Uiso   1.00
C356   C     0.51712   0.78775   0.45018   0.00000  Uiso   1.00
C357   C     0.45996   0.72807   0.09780   0.00000  Uiso   1.00
C358   C     0.52559   0.78352   0.40219   0.00000  Uiso   1.00
C359   C     0.53864   0.77135   0.10580   0.00000  Uiso   1.00
C360   C     0.47530   0.71592   0.39522   0.00000  Uiso   1.00
C361   C     0.53847   0.76948   0.05672   0.00000  Uiso   1.00
C362   C     0.47725   0.71445   0.44467   0.00000  Uiso   1.00
C363   C     0.49572   0.75099   0.02618   0.00000  Uiso   1.00
C364   C     0.49624   0.75121   0.47303   0.00000  Uiso   1.00
C365   C     0.40063   0.74999   0.23772   0.00000  Uiso   1.00
C366   C     0.59941   0.75037   0.26226   0.00000  Uiso   1.00
C367   C     0.34594   0.74414   0.23203   0.00000  Uiso   1.00
C368   C     0.65407   0.75693   0.26773   0.00000  Uiso   1.00
C369   C     0.46473   0.54483   0.27482   0.00000  Uiso   1.00
C370   C     0.46913   0.95301   0.21160   0.00000  Uiso   1.00
C371   C     0.46151   0.59142   0.27313   0.00000  Uiso   1.00
C372   C     0.46861   0.90619   0.21173   0.00000  Uiso   1.00
C373   C     0.49709   0.61612   0.24958   0.00000  Uiso   1.00
C374   C     0.49859   0.88395   0.24928   0.00000  Uiso   1.00
C375   C     0.53289   0.59499   0.22603   0.00000  Uiso   1.00
C376   C     0.52824   0.90716   0.28664   0.00000  Uiso   1.00
C377   C     0.53573   0.54910   0.22657   0.00000  Uiso   1.00
C378   C     0.52933   0.95351   0.28701   0.00000  Uiso   1.00
C379   C     0.50126   0.52421   0.25109   0.00000  Uiso   1.00
C380   C     0.50000   0.97605   0.24954   0.00000  Uiso   1.00
H381   H     0.55937   0.61440   0.20751   0.00000  Uiso   1.00
H382   H     0.55118   0.88913   0.31508   0.00000  Uiso   1.00
H383   H     0.57170   0.78381   0.04260   0.00000  Uiso   1.00
H384   H     0.46137   0.68516   0.46040   0.00000  Uiso   1.00
N385   N     0.50000   0.74999   0.12623   0.00000  Uiso   1.00
N386   N     0.50000   0.75001   0.37376   0.00000  Uiso   1.00
O387   O     0.50000   0.68453   0.28974   0.00000  Uiso   1.00
O388   O     0.50000   0.81546   0.21026   0.00000  Uiso   1.00
O389   O     0.50000   0.68453   0.21026   0.00000  Uiso   1.00
O390   O     0.50000   0.81547   0.28974   0.00000  Uiso   1.00
O391   O     0.42392   0.75000   0.28044   0.00000  Uiso   1.00
O392   O     0.57608   0.75000   0.21955   0.00000  Uiso   1.00
O393   O     0.42392   0.74999   0.20096   0.00000  Uiso   1.00
O394   O     0.57608   0.75000   0.29903   0.00000  Uiso   1.00
Zn395  Zn    0.50000   0.75000   0.30307   0.00000  Uiso   1.00
Zn396  Zn    0.50000   0.74999   0.19693   0.00000  Uiso   1.00
N397   N     0.65429   0.71913   0.19201   0.00000  Uiso   1.00
H398   H     0.66537   0.72905   0.16035   0.00000  Uiso   1.00
C399   C     0.65486   0.67125   0.19862   0.00000  Uiso   1.00
H400   H     0.63752   0.66178   0.23064   0.00000  Uiso   1.00
H401   H     0.36212   0.65952   0.20254   0.00000  Uiso   1.00
H402   H     0.63164   0.65463   0.16738   0.00000  Uiso   1.00
N403   N     0.34560   0.78239   0.30750   0.00000  Uiso   1.00
H404   H     0.66586   0.77436   0.33885   0.00000  Uiso   1.00
C405   C     0.34806   0.83007   0.29928   0.00000  Uiso   1.00
H406   H     0.37077   0.84682   0.33069   0.00000  Uiso   1.00
H407   H     0.64145   0.84352   0.29323   0.00000  Uiso   1.00
H408   H     0.36785   0.83764   0.26816   0.00000  Uiso   1.00
O409   O     0.43169   0.51814   0.29757   0.00000  Uiso   1.00
H410   H     0.40916   0.53692   0.31387   0.00000  Uiso   1.00
O411   O     0.43923   0.97462   0.17449   0.00000  Uiso   1.00
H412   H     0.44201   0.50737   0.17869   0.00000  Uiso   1.00
O413   O     0.42256   0.61126   0.29304   0.00000  Uiso   1.00
H414   H     0.41464   0.64033   0.27742   0.00000  Uiso   1.00
O415   O     0.43842   0.88113   0.17663   0.00000  Uiso   1.00
H416   H     0.41933   0.90092   0.15262   0.00000  Uiso   1.00
O417   O     0.57227   0.53032   0.20263   0.00000  Uiso   1.00
H418   H     0.57269   0.99762   0.20756   0.00000  Uiso   1.00
O419   O     0.55872   0.97761   0.32326   0.00000  Uiso   1.00
H420   H     0.57689   0.95658   0.34664   0.00000  Uiso   1.00
O421   O     0.40859   0.71561   0.02163   0.00000  Uiso   1.00
H422   H     0.40199   0.73312   0.49196   0.00000  Uiso   1.00
O423   O     0.52851   0.82725   0.47490   0.00000  Uiso   1.00
H424   H     0.53240   0.85176   0.45215   0.00000  Uiso   1.00
N425   N     0.42317   0.70188   0.11882   0.00000  Uiso   1.00
H426   H     0.38521   0.70975   0.10621   0.00000  Uiso   1.00
C427   C     0.43072   0.65426   0.11641   0.00000  Uiso   1.00
H428   H     0.42126   0.64234   0.07927   0.00000  Uiso   1.00
H429   H     0.40467   0.63623   0.13800   0.00000  Uiso   1.00
H430   H     0.47167   0.64610   0.13028   0.00000  Uiso   1.00
N431   N     0.56361   0.81239   0.38540   0.00000  Uiso   1.00
H432   H     0.56578   0.80980   0.35024   0.00000  Uiso   1.00
C433   C     0.61558   0.81128   0.41245   0.00000  Uiso   1.00
H434   H     0.64221   0.83424   0.39615   0.00000  Uiso   1.00
H435   H     0.63061   0.77689   0.41272   0.00000  Uiso   1.00
H436   H     0.61610   0.82245   0.44942   0.00000  Uiso   1.00
O437   O     0.57879   0.79514   0.13216   0.00000  Uiso   1.00
H438   H     0.56601   0.80568   0.16079   0.00000  Uiso   1.00
O439   O     0.44860   0.68165   0.36971   0.00000  Uiso   1.00
H440   H     0.43448   0.69392   0.33861   0.00000  Uiso   1.00
C441   C     0.83209   0.66406   0.24989   0.00000  Uiso   1.00
C442   C     0.83283   0.83597   0.24979   0.00000  Uiso   1.00
C443   C     0.78790   0.73140   0.04769   0.00000  Uiso   1.00
C444   C     0.85045   0.78775   0.45018   0.00000  Uiso   1.00
C445   C     0.79329   0.72807   0.09780   0.00000  Uiso   1.00
C446   C     0.85892   0.78352   0.40219   0.00000  Uiso   1.00
C447   C     0.87197   0.77135   0.10580   0.00000  Uiso   1.00
C448   C     0.80863   0.71592   0.39522   0.00000  Uiso   1.00
C449   C     0.87180   0.76948   0.05672   0.00000  Uiso   1.00
C450   C     0.81058   0.71445   0.44467   0.00000  Uiso   1.00
C451   C     0.82905   0.75099   0.02618   0.00000  Uiso   1.00
C452   C     0.82957   0.75121   0.47303   0.00000  Uiso   1.00
C453   C     0.73396   0.74999   0.23772   0.00000  Uiso   1.00
C454   C     0.93274   0.75037   0.26226   0.00000  Uiso   1.00
C455   C     0.67927   0.74414   0.23203   0.00000  Uiso   1.00
C456   C     0.98740   0.75693   0.26773   0.00000  Uiso   1.00
C457   C     0.79807   0.54483   0.27482   0.00000  Uiso   1.00
C458   C     0.80247   0.95301   0.21160   0.00000  Uiso   1.00
C459   C     0.79484   0.59142   0.27313   0.00000  Uiso   1.00
C460   C     0.80194   0.90619   0.21173   0.00000  Uiso   1.00
C461   C     0.83042   0.61612   0.24958   0.00000  Uiso   1.00
C462   C     0.83192   0.88395   0.24928   0.00000  Uiso   1.00
C463   C     0.86623   0.59499   0.22603   0.00000  Uiso   1.00
C464   C     0.86157   0.90716   0.28664   0.00000  Uiso   1.00
C465   C     0.86907   0.54910   0.22657   0.00000  Uiso   1.00
C466   C     0.86266   0.95351   0.28701   0.00000  Uiso   1.00
C467   C     0.83460   0.52421   0.25109   0.00000  Uiso   1.00
C468   C     0.83333   0.97605   0.24954   0.00000  Uiso   1.00
H469   H     0.89270   0.61440   0.20751   0.00000  Uiso   1.00
H470   H     0.88451   0.88913   0.31508   0.00000  Uiso   1.00
H471   H     0.90503   0.78381   0.04260   0.00000  Uiso   1.00
H472   H     0.79470   0.68516   0.46040   0.00000  Uiso   1.00
N473   N     0.83333   0.74999   0.12623   0.00000  Uiso   1.00
N474   N     0.83333   0.75001   0.37376   0.00000  Uiso   1.00
O475   O     0.83334   0.68453   0.28974   0.00000  Uiso   1.00
O476   O     0.83333   0.81546   0.21026   0.00000  Uiso   1.00
O477   O     0.83334   0.68453   0.21026   0.00000  Uiso   1.00
O478   O     0.83333   0.81547   0.28974   0.00000  Uiso   1.00
O479   O     0.75725   0.75000   0.28044   0.00000  Uiso   1.00
O480   O     0.90942   0.75000   0.21955   0.00000  Uiso   1.00
O481   O     0.75725   0.74999   0.20096   0.00000  Uiso   1.00
O482   O     0.90942   0.75000   0.29903   0.00000  Uiso   1.00
Zn483  Zn    0.83333   0.75000   0.30307   0.00000  Uiso   1.00
Zn484  Zn    0.83333   0.74999   0.19693   0.00000  Uiso   1.00
N485   N     0.98762   0.71913   0.19201   0.00000  Uiso   1.00
H486   H     0.99870   0.72905   0.16035   0.00000  Uiso   1.00
C487   C     0.98819   0.67125   0.19862   0.00000  Uiso   1.00
H488   H     0.97086   0.66178   0.23064   0.00000  Uiso   1.00
H489   H     0.69546   0.65952   0.20254   0.00000  Uiso   1.00
H490   H     0.96497   0.65463   0.16738   0.00000  Uiso   1.00
N491   N     0.67893   0.78239   0.30750   0.00000  Uiso   1.00
H492   H     0.99920   0.77436   0.33885   0.00000  Uiso   1.00
C493   C     0.68139   0.83007   0.29928   0.00000  Uiso   1.00
H494   H     0.70410   0.84682   0.33069   0.00000  Uiso   1.00
H495   H     0.97479   0.84352   0.29323   0.00000  Uiso   1.00
H496   H     0.70118   0.83764   0.26816   0.00000  Uiso   1.00
O497   O     0.76502   0.51814   0.29757   0.00000  Uiso   1.00
H498   H     0.74249   0.53692   0.31387   0.00000  Uiso   1.00
O499   O     0.77256   0.97462   0.17449   0.00000  Uiso   1.00
H500   H     0.77535   0.50737   0.17869   0.00000  Uiso   1.00
O501   O     0.75589   0.61126   0.29304   0.00000  Uiso   1.00
H502   H     0.74797   0.64033   0.27742   0.00000  Uiso   1.00
O503   O     0.77175   0.88113   0.17663   0.00000  Uiso   1.00
H504   H     0.75266   0.90092   0.15262   0.00000  Uiso   1.00
O505   O     0.90561   0.53032   0.20263   0.00000  Uiso   1.00
H506   H     0.90602   0.99762   0.20756   0.00000  Uiso   1.00
O507   O     0.89205   0.97761   0.32326   0.00000  Uiso   1.00
H508   H     0.91023   0.95658   0.34664   0.00000  Uiso   1.00
O509   O     0.74192   0.71561   0.02163   0.00000  Uiso   1.00
H510   H     0.73533   0.73312   0.49196   0.00000  Uiso   1.00
O511   O     0.86184   0.82725   0.47490   0.00000  Uiso   1.00
H512   H     0.86573   0.85176   0.45215   0.00000  Uiso   1.00
N513   N     0.75650   0.70188   0.11882   0.00000  Uiso   1.00
H514   H     0.71854   0.70975   0.10621   0.00000  Uiso   1.00
C515   C     0.76405   0.65426   0.11641   0.00000  Uiso   1.00
H516   H     0.75459   0.64234   0.07927   0.00000  Uiso   1.00
H517   H     0.73800   0.63623   0.13800   0.00000  Uiso   1.00
H518   H     0.80500   0.64610   0.13028   0.00000  Uiso   1.00
N519   N     0.89694   0.81239   0.38540   0.00000  Uiso   1.00
H520   H     0.89912   0.80980   0.35024   0.00000  Uiso   1.00
C521   C     0.94891   0.81128   0.41245   0.00000  Uiso   1.00
H522   H     0.97554   0.83424   0.39615   0.00000  Uiso   1.00
H523   H     0.96394   0.77689   0.41272   0.00000  Uiso   1.00
H524   H     0.94943   0.82245   0.44942   0.00000  Uiso   1.00
O525   O     0.91212   0.79514   0.13216   0.00000  Uiso   1.00
H526   H     0.89934   0.80568   0.16079   0.00000  Uiso   1.00
O527   O     0.78193   0.68165   0.36971   0.00000  Uiso   1.00
H528   H     0.76781   0.69392   0.33861   0.00000  Uiso   1.00
C529   C     0.16543   0.16406   0.74989   0.00000  Uiso   1.00
C530   C     0.16616   0.33597   0.74979   0.00000  Uiso   1.00
C531   C     0.12123   0.23140   0.54769   0.00000  Uiso   1.00
C532   C     0.18378   0.28775   0.95018   0.00000  Uiso   1.00
C533   C     0.12663   0.22807   0.59780   0.00000  Uiso   1.00
C534   C     0.19225   0.28352   0.90219   0.00000  Uiso   1.00
C535   C     0.20531   0.27135   0.60580   0.00000  Uiso   1.00
C536   C     0.14197   0.21592   0.89522   0.00000  Uiso   1.00
C537   C     0.20513   0.26948   0.55672   0.00000  Uiso   1.00
C538   C     0.14391   0.21445   0.94467   0.00000  Uiso   1.00
C539   C     0.16238   0.25099   0.52618   0.00000  Uiso   1.00
C540   C     0.16291   0.25121   0.97303   0.00000  Uiso   1.00
C541   C     0.06730   0.24999   0.73772   0.00000  Uiso   1.00
C542   C     0.26607   0.25037   0.76226   0.00000  Uiso   1.00
C543   C     0.01261   0.24414   0.73203   0.00000  Uiso   1.00
C544   C     0.32074   0.25693   0.76773   0.00000  Uiso   1.00
C545   C     0.13140   0.04483   0.77482   0.00000  Uiso   1.00
C546   C     0.13580   0.45301   0.71160   0.00000  Uiso   1.00
C547   C     0.12818   0.09142   0.77313   0.00000  Uiso   1.00
C548   C     0.13528   0.40619   0.71173   0.00000  Uiso   1.00
C549   C     0.16376   0.11612   0.74958   0.00000  Uiso   1.00
C550   C     0.16526   0.38395   0.74928   0.00000  Uiso   1.00
C551   C     0.19956   0.09499   0.72603   0.00000  Uiso   1.00
C552   C     0.19491   0.40716   0.78664   0.00000  Uiso   1.00
C553   C     0.20240   0.04910   0.72657   0.00000  Uiso   1.00
C554   C     0.19600   0.45351   0.78701   0.00000  Uiso   1.00
C555   C     0.16793   0.02421   0.75109   0.00000  Uiso   1.00
C556   C     0.16667   0.47605   0.74954   0.00000  Uiso   1.00
H557   H     0.22604   0.11440   0.70751   0.00000  Uiso   1.00
H558   H     0.21784   0.38913   0.81508   0.00000  Uiso   1.00
H559   H     0.23837   0.28381   0.54260   0.00000  Uiso   1.00
H560   H     0.12803   0.18516   0.96040   0.00000  Uiso   1.00
N561   N     0.16667   0.24999   0.62623   0.00000  Uiso   1.00
N562   N     0.16667   0.25001   0.87376   0.00000  Uiso   1.00
O563   O     0.16667   0.18453   0.78974   0.00000  Uiso   1.00
O564   O     0.16666   0.31546   0.71026   0.00000  Uiso   1.00
O565   O     0.16667   0.18453   0.71026   0.00000  Uiso   1.00
O566   O     0.16666   0.31547   0.78974   0.00000  Uiso   1.00
O567   O     0.09058   0.25000   0.78044   0.00000  Uiso   1.00
O568   O     0.24275   0.25000   0.71955   0.00000  Uiso   1.00
O569   O     0.09058   0.24999   0.70096   0.00000  Uiso   1.00
O570   O     0.24275   0.25000   0.79903   0.00000  Uiso   1.00
Zn571  Zn    0.16667   0.25000   0.80307   0.00000  Uiso   1.00
Zn572  Zn    0.16667   0.24999   0.69693   0.00000  Uiso   1.00
N573   N     0.32096   0.21913   0.69201   0.00000  Uiso   1.00
H574   H     0.33204   0.22905   0.66035   0.00000  Uiso   1.00
C575   C     0.32153   0.17125   0.69862   0.00000  Uiso   1.00
H576   H     0.30419   0.16178   0.73064   0.00000  Uiso   1.00
H577   H     0.02879   0.15952   0.70254   0.00000  Uiso   1.00
H578   H     0.29830   0.15463   0.66738   0.00000  Uiso   1.00
N579   N     0.01227   0.28239   0.80750   0.00000  Uiso   1.00
H580   H     0.33253   0.27436   0.83885   0.00000  Uiso   1.00
C581   C     0.01472   0.33007   0.79928   0.00000  Uiso   1.00
H582   H     0.03744   0.34682   0.83069   0.00000  Uiso   1.00
H583   H     0.30812   0.34352   0.79323   0.00000  Uiso   1.00
H584   H     0.03452   0.33764   0.76816   0.00000  Uiso   1.00
O585   O     0.09836   0.01814   0.79757   0.00000  Uiso   1.00
H586   H     0.07582   0.03692   0.81387   0.00000  Uiso   1.00
O587   O     0.10590   0.47462   0.67449   0.00000  Uiso   1.00
H588   H     0.10868   0.00737   0.67869   0.00000  Uiso   1.00
O589   O     0.08923   0.11126   0.79304   0.00000  Uiso   1.00
H590   H     0.08130   0.14033   0.77742   0.00000  Uiso   1.00
O591   O     0.10509   0.38113   0.67663   0.00000  Uiso   1.00
H592   H     0.08600   0.40092   0.65262   0.00000  Uiso   1.00
O593   O     0.23894   0.03032   0.70263   0.00000  Uiso   1.00
H594   H     0.23936   0.49762   0.70756   0.00000  Uiso   1.00
O595   O     0.22539   0.47761   0.82326   0.00000  Uiso   1.00
H596   H     0.24356   0.45658   0.84664   0.00000  Uiso   1.00
O597   O     0.07525   0.21561   0.52163   0.00000  Uiso   1.00
H598   H     0.06866   0.23312   0.99196   0.00000  Uiso   1.00
O599   O     0.19518   0.32725   0.97490   0.00000  Uiso   1.00
H600   H     0.19906   0.35176   0.95215   0.00000  Uiso   1.00
N601   N     0.08984   0.20188   0.61882   0.00000  Uiso   1.00
H602   H     0.05187   0.20975   0.60621   0.00000  Uiso   1.00
C603   C     0.09739   0.15426   0.61641   0.00000  Uiso   1.00
H604   H     0.08793   0.14234   0.57927   0.00000  Uiso   1.00
H605   H     0.07133   0.13623   0.63800   0.00000  Uiso   1.00
H606   H     0.13834   0.14610   0.63028   0.00000  Uiso   1.00
N607   N     0.23028   0.31239   0.88540   0.00000  Uiso   1.00
H608   H     0.23245   0.30980   0.85024   0.00000  Uiso   1.00
C609   C     0.28224   0.31128   0.91245   0.00000  Uiso   1.00
H610   H     0.30888   0.33424   0.89615   0.00000  Uiso   1.00
H611   H     0.29728   0.27689   0.91272   0.00000  Uiso   1.00
H612   H     0.28277   0.32245   0.94942   0.00000  Uiso   1.00
O613   O     0.24545   0.29514   0.63216   0.00000  Uiso   1.00
H614   H     0.23267   0.30568   0.66079   0.00000  Uiso   1.00
O615   O     0.11526   0.18165   0.86971   0.00000  Uiso   1.00
H616   H     0.10114   0.19392   0.83861   0.00000  Uiso   1.00
C617   C     0.49876   0.16406   0.74989   0.00000  Uiso   1.00
C618   C     0.49949   0.33597   0.74979   0.00000  Uiso   1.00
C619   C     0.45457   0.23140   0.54769   0.00000  Uiso   1.00
C620   C     0.51712   0.28775   0.95018   0.00000  Uiso   1.00
C621   C     0.45996   0.22807   0.59780   0.00000  Uiso   1.00
C622   C     0.52559   0.28352   0.90219   0.00000  Uiso   1.00
C623   C     0.53864   0.27135   0.60580   0.00000  Uiso   1.00
C624   C     0.47530   0.21592   0.89522   0.00000  Uiso   1.00
C625   C     0.53847   0.26948   0.55672   0.00000  Uiso   1.00
C626   C     0.47725   0.21445   0.94467   0.00000  Uiso   1.00
C627   C     0.49572   0.25099   0.52618   0.00000  Uiso   1.00
C628   C     0.49624   0.25121   0.97303   0.00000  Uiso   1.00
C629   C     0.40063   0.24999   0.73772   0.00000  Uiso   1.00
C630   C     0.59941   0.25037   0.76226   0.00000  Uiso   1.00
C631   C     0.34594   0.24414   0.73203   0.00000  Uiso   1.00
C632   C     0.65407   0.25693   0.76773   0.00000  Uiso   1.00
C633   C     0.46473   0.04483   0.77482   0.00000  Uiso   1.00
C634   C     0.46913   0.45301   0.71160   0.00000  Uiso   1.00
C635   C     0.46151   0.09142   0.77313   0.00000  Uiso   1.00
C636   C     0.46861   0.40619   0.71173   0.00000  Uiso   1.00
C637   C     0.49709   0.11612   0.74958   0.00000  Uiso   1.00
C638   C     0.49859   0.38395   0.74928   0.00000  Uiso   1.00
C639   C     0.53289   0.09499   0.72603   0.00000  Uiso   1.00
C640   C     0.52824   0.40716   0.78664   0.00000  Uiso   1.00
C641   C     0.53573   0.04910   0.72657   0.00000  Uiso   1.00
C642   C     0.52933   0.45351   0.78701   0.00000  Uiso   1.00
C643   C     0.50126   0.02421   0.75109   0.00000  Uiso   1.00
C644   C     0.50000   0.47605   0.74954   0.00000  Uiso   1.00
H645   H     0.55937   0.11440   0.70751   0.00000  Uiso   1.00
H646   H     0.55118   0.38913   0.81508   0.00000  Uiso   1.00
H647   H     0.57170   0.28381   0.54260   0.00000  Uiso   1.00
H648   H     0.46137   0.18516   0.96040   0.00000  Uiso   1.00
N649   N     0.50000   0.24999   0.62623   0.00000  Uiso   1.00
N650   N     0.50000   0.25001   0.87376   0.00000  Uiso   1.00
O651   O     0.50000   0.18453   0.78974   0.00000  Uiso   1.00
O652   O     0.50000   0.31546   0.71026   0.00000  Uiso   1.00
O653   O     0.50000   0.18453   0.71026   0.00000  Uiso   1.00
O654   O     0.50000   0.31547   0.78974   0.00000  Uiso   1.00
O655   O     0.42392   0.25000   0.78044   0.00000  Uiso   1.00
O656   O     0.57608   0.25000   0.71955   0.00000  Uiso   1.00
O657   O     0.42392   0.24999   0.70096   0.00000  Uiso   1.00
O658   O     0.57608   0.25000   0.79903   0.00000  Uiso   1.00
Zn659  Zn    0.50000   0.25000   0.80307   0.00000  Uiso   1.00
Zn660  Zn    0.50000   0.24999   0.69693   0.00000  Uiso   1.00
N661   N     0.65429   0.21913   0.69201   0.00000  Uiso   1.00
H662   H     0.66537   0.22905   0.66035   0.00000  Uiso   1.00
C663   C     0.65486   0.17125   0.69862   0.00000  Uiso   1.00
H664   H     0.63752   0.16178   0.73064   0.00000  Uiso   1.00
H665   H     0.36212   0.15952   0.70254   0.00000  Uiso   1.00
H666   H     0.63164   0.15463   0.66738   0.00000  Uiso   1.00
N667   N     0.34560   0.28239   0.80750   0.00000  Uiso   1.00
H668   H     0.66586   0.27436   0.83885   0.00000  Uiso   1.00
C669   C     0.34806   0.33007   0.79928   0.00000  Uiso   1.00
H670   H     0.37077   0.34682   0.83069   0.00000  Uiso   1.00
H671   H     0.64145   0.34352   0.79323   0.00000  Uiso   1.00
H672   H     0.36785   0.33764   0.76816   0.00000  Uiso   1.00
O673   O     0.43169   0.01814   0.79757   0.00000  Uiso   1.00
H674   H     0.40916   0.03692   0.81387   0.00000  Uiso   1.00
O675   O     0.43923   0.47462   0.67449   0.00000  Uiso   1.00
H676   H     0.44201   0.00737   0.67869   0.00000  Uiso   1.00
O677   O     0.42256   0.11126   0.79304   0.00000  Uiso   1.00
H678   H     0.41464   0.14033   0.77742   0.00000  Uiso   1.00
O679   O     0.43842   0.38113   0.67663   0.00000  Uiso   1.00
H680   H     0.41933   0.40092   0.65262   0.00000  Uiso   1.00
O681   O     0.57227   0.03032   0.70263   0.00000  Uiso   1.00
H682   H     0.57269   0.49762   0.70756   0.00000  Uiso   1.00
O683   O     0.55872   0.47761   0.82326   0.00000  Uiso   1.00
H684   H     0.57689   0.45658   0.84664   0.00000  Uiso   1.00
O685   O     0.40859   0.21561   0.52163   0.00000  Uiso   1.00
H686   H     0.40199   0.23312   0.99196   0.00000  Uiso   1.00
O687   O     0.52851   0.32725   0.97490   0.00000  Uiso   1.00
H688   H     0.53240   0.35176   0.95215   0.00000  Uiso   1.00
N689   N     0.42317   0.20188   0.61882   0.00000  Uiso   1.00
H690   H     0.38521   0.20975   0.60621   0.00000  Uiso   1.00
C691   C     0.43072   0.15426   0.61641   0.00000  Uiso   1.00
H692   H     0.42126   0.14234   0.57927   0.00000  Uiso   1.00
H693   H     0.40467   0.13623   0.63800   0.00000  Uiso   1.00
H694   H     0.47167   0.14610   0.63028   0.00000  Uiso   1.00
N695   N     0.56361   0.31239   0.88540   0.00000  Uiso   1.00
H696   H     0.56578   0.30980   0.85024   0.00000  Uiso   1.00
C697   C     0.61558   0.31128   0.91245   0.00000  Uiso   1.00
H698   H     0.64221   0.33424   0.89615   0.00000  Uiso   1.00
H699   H     0.63061   0.27689   0.91272   0.00000  Uiso   1.00
H700   H     0.61610   0.32245   0.94942   0.00000  Uiso   1.00
O701   O     0.57879   0.29514   0.63216   0.00000  Uiso   1.00
H702   H     0.56601   0.30568   0.66079   0.00000  Uiso   1.00
O703   O     0.44860   0.18165   0.86971   0.00000  Uiso   1.00
H704   H     0.43448   0.19392   0.83861   0.00000  Uiso   1.00
C705   C     0.83209   0.16406   0.74989   0.00000  Uiso   1.00
C706   C     0.83283   0.33597   0.74979   0.00000  Uiso   1.00
C707   C     0.78790   0.23140   0.54769   0.00000  Uiso   1.00
C708   C     0.85045   0.28775   0.95018   0.00000  Uiso   1.00
C709   C     0.79329   0.22807   0.59780   0.00000  Uiso   1.00
C710   C     0.85892   0.28352   0.90219   0.00000  Uiso   1.00
C711   C     0.87197   0.27135   0.60580   0.00000  Uiso   1.00
C712   C     0.80863   0.21592   0.89522   0.00000  Uiso   1.00
C713   C     0.87180   0.26948   0.55672   0.00000  Uiso   1.00
C714   C     0.81058   0.21445   0.94467   0.00000  Uiso   1.00
C715   C     0.82905   0.25099   0.52618   0.00000  Uiso   1.00
C716   C     0.82957   0.25121   0.97303   0.00000  Uiso   1.00
C717   C     0.73396   0.24999   0.73772   0.00000  Uiso   1.00
C718   C     0.93274   0.25037   0.76226   0.00000  Uiso   1.00
C719   C     0.67927   0.24414   0.73203   0.00000  Uiso   1.00
C720   C     0.98740   0.25693   0.76773   0.00000  Uiso   1.00
C721   C     0.79807   0.04483   0.77482   0.00000  Uiso   1.00
C722   C     0.80247   0.45301   0.71160   0.00000  Uiso   1.00
C723   C     0.79484   0.09142   0.77313   0.00000  Uiso   1.00
C724   C     0.80194   0.40619   0.71173   0.00000  Uiso   1.00
C725   C     0.83042   0.11612   0.74958   0.00000  Uiso   1.00
C726   C     0.83192   0.38395   0.74928   0.00000  Uiso   1.00
C727   C     0.86623   0.09499   0.72603   0.00000  Uiso   1.00
C728   C     0.86157   0.40716   0.78664   0.00000  Uiso   1.00
C729   C     0.86907   0.04910   0.72657   0.00000  Uiso   1.00
C730   C     0.86266   0.45351   0.78701   0.00000  Uiso   1.00
C731   C     0.83460   0.02421   0.75109   0.00000  Uiso   1.00
C732   C     0.83333   0.47605   0.74954   0.00000  Uiso   1.00
H733   H     0.89270   0.11440   0.70751   0.00000  Uiso   1.00
H734   H     0.88451   0.38913   0.81508   0.00000  Uiso   1.00
H735   H     0.90503   0.28381   0.54260   0.00000  Uiso   1.00
H736   H     0.79470   0.18516   0.96040   0.00000  Uiso   1.00
N737   N     0.83333   0.24999   0.62623   0.00000  Uiso   1.00
N738   N     0.83333   0.25001   0.87376   0.00000  Uiso   1.00
O739   O     0.83334   0.18453   0.78974   0.00000  Uiso   1.00
O740   O     0.83333   0.31546   0.71026   0.00000  Uiso   1.00
O741   O     0.83334   0.18453   0.71026   0.00000  Uiso   1.00
O742   O     0.83333   0.31547   0.78974   0.00000  Uiso   1.00
O743   O     0.75725   0.25000   0.78044   0.00000  Uiso   1.00
O744   O     0.90942   0.25000   0.71955   0.00000  Uiso   1.00
O745   O     0.75725   0.24999   0.70096   0.00000  Uiso   1.00
O746   O     0.90942   0.25000   0.79903   0.00000  Uiso   1.00
Zn747  Zn    0.83333   0.25000   0.80307   0.00000  Uiso   1.00
Zn748  Zn    0.83333   0.24999   0.69693   0.00000  Uiso   1.00
N749   N     0.98762   0.21913   0.69201   0.00000  Uiso   1.00
H750   H     0.99870   0.22905   0.66035   0.00000  Uiso   1.00
C751   C     0.98819   0.17125   0.69862   0.00000  Uiso   1.00
H752   H     0.97086   0.16178   0.73064   0.00000  Uiso   1.00
H753   H     0.69546   0.15952   0.70254   0.00000  Uiso   1.00
H754   H     0.96497   0.15463   0.66738   0.00000  Uiso   1.00
N755   N     0.67893   0.28239   0.80750   0.00000  Uiso   1.00
H756   H     0.99920   0.27436   0.83885   0.00000  Uiso   1.00
C757   C     0.68139   0.33007   0.79928   0.00000  Uiso   1.00
H758   H     0.70410   0.34682   0.83069   0.00000  Uiso   1.00
H759   H     0.97479   0.34352   0.79323   0.00000  Uiso   1.00
H760   H     0.70118   0.33764   0.76816   0.00000  Uiso   1.00
O761   O     0.76502   0.01814   0.79757   0.00000  Uiso   1.00
H762   H     0.74249   0.03692   0.81387   0.00000  Uiso   1.00
O763   O     0.77256   0.47462   0.67449   0.00000  Uiso   1.00
H764   H     0.77535   0.00737   0.67869   0.00000  Uiso   1.00
O765   O     0.75589   0.11126   0.79304   0.00000  Uiso   1.00
H766   H     0.74797   0.14033   0.77742   0.00000  Uiso   1.00
O767   O     0.77175   0.38113   0.67663   0.00000  Uiso   1.00
H768   H     0.75266   0.40092   0.65262   0.00000  Uiso   1.00
O769   O     0.90561   0.03032   0.70263   0.00000  Uiso   1.00
H770   H     0.90602   0.49762   0.70756   0.00000  Uiso   1.00
O771   O     0.89205   0.47761   0.82326   0.00000  Uiso   1.00
H772   H     0.91023   0.45658   0.84664   0.00000  Uiso   1.00
O773   O     0.74192   0.21561   0.52163   0.00000  Uiso   1.00
H774   H     0.73533   0.23312   0.99196   0.00000  Uiso   1.00
O775   O     0.86184   0.32725   0.97490   0.00000  Uiso   1.00
H776   H     0.86573   0.35176   0.95215   0.00000  Uiso   1.00
N777   N     0.75650   0.20188   0.61882   0.00000  Uiso   1.00
H778   H     0.71854   0.20975   0.60621   0.00000  Uiso   1.00
C779   C     0.76405   0.15426   0.61641   0.00000  Uiso   1.00
H780   H     0.75459   0.14234   0.57927   0.00000  Uiso   1.00
H781   H     0.73800   0.13623   0.63800   0.00000  Uiso   1.00
H782   H     0.80500   0.14610   0.63028   0.00000  Uiso   1.00
N783   N     0.89694   0.31239   0.88540   0.00000  Uiso   1.00
H784   H     0.89912   0.30980   0.85024   0.00000  Uiso   1.00
C785   C     0.94891   0.31128   0.91245   0.00000  Uiso   1.00
H786   H     0.97554   0.33424   0.89615   0.00000  Uiso   1.00
H787   H     0.96394   0.27689   0.91272   0.00000  Uiso   1.00
H788   H     0.94943   0.32245   0.94942   0.00000  Uiso   1.00
O789   O     0.91212   0.29514   0.63216   0.00000  Uiso   1.00
H790   H     0.89934   0.30568   0.66079   0.00000  Uiso   1.00
O791   O     0.78193   0.18165   0.86971   0.00000  Uiso   1.00
H792   H     0.76781   0.19392   0.83861   0.00000  Uiso   1.00
C793   C     0.16543   0.66406   0.74989   0.00000  Uiso   1.00
C794   C     0.16616   0.83597   0.74979   0.00000  Uiso   1.00
C795   C     0.12123   0.73140   0.54769   0.00000  Uiso   1.00
C796   C     0.18378   0.78775   0.95018   0.00000  Uiso   1.00
C797   C     0.12663   0.72807   0.59780   0.00000  Uiso   1.00
C798   C     0.19225   0.78352   0.90219   0.00000  Uiso   1.00
C799   C     0.20531   0.77135   0.60580   0.00000  Uiso   1.00
C800   C     0.14197   0.71592   0.89522   0.00000  Uiso   1.00
C801   C     0.20513   0.76948   0.55672   0.00000  Uiso   1.00
C802   C     0.14391   0.71445   0.94467   0.00000  Uiso   1.00
C803   C     0.16238   0.75099   0.52618   0.00000  Uiso   1.00
C804   C     0.16291   0.75121   0.97303   0.00000  Uiso   1.00
C805   C     0.06730   0.74999   0.73772   0.00000  Uiso   1.00
C806   C     0.26607   0.75037   0.76226   0.00000  Uiso   1.00
C807   C     0.01261   0.74414   0.73203   0.00000  Uiso   1.00
C808   C     0.32074   0.75693   0.76773   0.00000  Uiso   1.00
C809   C     0.13140   0.54483   0.77482   0.00000  Uiso   1.00
C810   C     0.13580   0.95301   0.71160   0.00000  Uiso   1.00
C811   C     0.12818   0.59142   0.77313   0.00000  Uiso   1.00
C812   C     0.13528   0.90619   0.71173   0.00000  Uiso   1.00
C813   C     0.16376   0.61612   0.74958   0.00000  Uiso   1.00
C814   C     0.16526   0.88395   0.74928   0.00000  Uiso   1.00
C815   C     0.19956   0.59499   0.72603   0.00000  Uiso   1.00
C816   C     0.19491   0.90716   0.78664   0.00000  Uiso   1.00
C817   C     0.20240   0.54910   0.72657   0.00000  Uiso   1.00
C818   C     0.19600   0.95351   0.78701   0.00000  Uiso   1.00
C819   C     0.16793   0.52421   0.75109   0.00000  Uiso   1.00
C820   C     0.16667   0.97605   0.74954   0.00000  Uiso   1.00
H821   H     0.22604   0.61440   0.70751   0.00000  Uiso   1.00
H822   H     0.21784   0.88913   0.81508   0.00000  Uiso   1.00
H823   H     0.23837   0.78381   0.54260   0.00000  Uiso   1.00
H824   H     0.12803   0.68516   0.96040   0.00000  Uiso   1.00
N825   N     0.16667   0.74999   0.62623   0.00000  Uiso   1.00
N826   N     0.16667   0.75001   0.87376   0.00000  Uiso   1.00
O827   O     0.16667   0.68453   0.78974   0.00000  Uiso   1.00
O828   O     0.16666   0.81546   0.71026   0.00000  Uiso   1.00
O829   O     0.16667   0.68453   0.71026   0.00000  Uiso   1.00
O830   O     0.16666   0.81547   0.78974   0.00000  Uiso   1.00
O831   O     0.09058   0.75000   0.78044   0.00000  Uiso   1.00
O832   O     0.24275   0.75000   0.71955   0.00000  Uiso   1.00
O833   O     0.09058   0.74999   0.70096   0.00000  Uiso   1.00
O834   O     0.24275   0.75000   0.79903   0.00000  Uiso   1.00
Zn835  Zn    0.16667   0.75000   0.80307   0.00000  Uiso   1.00
Zn836  Zn    0.16667   0.74999   0.69693   0.00000  Uiso   1.00
N837   N     0.32096   0.71913   0.69201   0.00000  Uiso   1.00
H838   H     0.33204   0.72905   0.66035   0.00000  Uiso   1.00
C839   C     0.32153   0.67125   0.69862   0.00000  Uiso   1.00
H840   H     0.30419   0.66178   0.73064   0.00000  Uiso   1.00
H841   H     0.02879   0.65952   0.70254   0.00000  Uiso   1.00
H842   H     0.29830   0.65463   0.66738   0.00000  Uiso   1.00
N843   N     0.01227   0.78239   0.80750   0.00000  Uiso   1.00
H844   H     0.33253   0.77436   0.83885   0.00000  Uiso   1.00
C845   C     0.01472   0.83007   0.79928   0.00000  Uiso   1.00
H846   H     0.03744   0.84682   0.83069   0.00000  Uiso   1.00
H847   H     0.30812   0.84352   0.79323   0.00000  Uiso   1.00
H848   H     0.03452   0.83764   0.76816   0.00000  Uiso   1.00
O849   O     0.09836   0.51814   0.79757   0.00000  Uiso   1.00
H850   H     0.07582   0.53692   0.81387   0.00000  Uiso   1.00
O851   O     0.10590   0.97462   0.67449   0.00000  Uiso   1.00
H852   H     0.10868   0.50737   0.67869   0.00000  Uiso   1.00
O853   O     0.08923   0.61126   0.79304   0.00000  Uiso   1.00
H854   H     0.08130   0.64033   0.77742   0.00000  Uiso   1.00
O855   O     0.10509   0.88113   0.67663   0.00000  Uiso   1.00
H856   H     0.08600   0.90092   0.65262   0.00000  Uiso   1.00
O857   O     0.23894   0.53032   0.70263   0.00000  Uiso   1.00
H858   H     0.23936   0.99762   0.70756   0.00000  Uiso   1.00
O859   O     0.22539   0.97761   0.82326   0.00000  Uiso   1.00
H860   H     0.24356   0.95658   0.84664   0.00000  Uiso   1.00
O861   O     0.07525   0.71561   0.52163   0.00000  Uiso   1.00
H862   H     0.06866   0.73312   0.99196   0.00000  Uiso   1.00
O863   O     0.19518   0.82725   0.97490   0.00000  Uiso   1.00
H864   H     0.19906   0.85176   0.95215   0.00000  Uiso   1.00
N865   N     0.08984   0.70188   0.61882   0.00000  Uiso   1.00
H866   H     0.05187   0.70975   0.60621   0.00000  Uiso   1.00
C867   C     0.09739   0.65426   0.61641   0.00000  Uiso   1.00
H868   H     0.08793   0.64234   0.57927   0.00000  Uiso   1.00
H869   H     0.07133   0.63623   0.63800   0.00000  Uiso   1.00
H870   H     0.13834   0.64610   0.63028   0.00000  Uiso   1.00
N871   N     0.23028   0.81239   0.88540   0.00000  Uiso   1.00
H872   H     0.23245   0.80980   0.85024   0.00000  Uiso   1.00
C873   C     0.28224   0.81128   0.91245   0.00000  Uiso   1.00
H874   H     0.30888   0.83424   0.89615   0.00000  Uiso   1.00
H875   H     0.29728   0.77689   0.91272   0.00000  Uiso   1.00
H876   H     0.28277   0.82245   0.94942   0.00000  Uiso   1.00
O877   O     0.24545   0.79514   0.63216   0.00000  Uiso   1.00
H878   H     0.23267   0.80568   0.66079   0.00000  Uiso   1.00
O879   O     0.11526   0.68165   0.86971   0.00000  Uiso   1.00
H880   H     0.10114   0.69392   0.83861   0.00000  Uiso   1.00
C881   C     0.49876   0.66406   0.74989   0.00000  Uiso   1.00
C882   C     0.49949   0.83597   0.74979   0.00000  Uiso   1.00
C883   C     0.45457   0.73140   0.54769   0.00000  Uiso   1.00
C884   C     0.51712   0.78775   0.95018   0.00000  Uiso   1.00
C885   C     0.45996   0.72807   0.59780   0.00000  Uiso   1.00
C886   C     0.52559   0.78352   0.90219   0.00000  Uiso   1.00
C887   C     0.53864   0.77135   0.60580   0.00000  Uiso   1.00
C888   C     0.47530   0.71592   0.89522   0.00000  Uiso   1.00
C889   C     0.53847   0.76948   0.55672   0.00000  Uiso   1.00
C890   C     0.47725   0.71445   0.94467   0.00000  Uiso   1.00
C891   C     0.49572   0.75099   0.52618   0.00000  Uiso   1.00
C892   C     0.49624   0.75121   0.97303   0.00000  Uiso   1.00
C893   C     0.40063   0.74999   0.73772   0.00000  Uiso   1.00
C894   C     0.59941   0.75037   0.76226   0.00000  Uiso   1.00
C895   C     0.34594   0.74414   0.73203   0.00000  Uiso   1.00
C896   C     0.65407   0.75693   0.76773   0.00000  Uiso   1.00
C897   C     0.46473   0.54483   0.77482   0.00000  Uiso   1.00
C898   C     0.46913   0.95301   0.71160   0.00000  Uiso   1.00
C899   C     0.46151   0.59142   0.77313   0.00000  Uiso   1.00
C900   C     0.46861   0.90619   0.71173   0.00000  Uiso   1.00
C901   C     0.49709   0.61612   0.74958   0.00000  Uiso   1.00
C902   C     0.49859   0.88395   0.74928   0.00000  Uiso   1.00
C903   C     0.53289   0.59499   0.72603   0.00000  Uiso   1.00
C904   C     0.52824   0.90716   0.78664   0.00000  Uiso   1.00
C905   C     0.53573   0.54910   0.72657   0.00000  Uiso   1.00
C906   C     0.52933   0.95351   0.78701   0.00000  Uiso   1.00
C907   C     0.50126   0.52421   0.75109   0.00000  Uiso   1.00
C908   C     0.50000   0.97605   0.74954   0.00000  Uiso   1.00
H909   H     0.55937   0.61440   0.70751   0.00000  Uiso   1.00
H910   H     0.55118   0.88913   0.81508   0.00000  Uiso   1.00
H911   H     0.57170   0.78381   0.54260   0.00000  Uiso   1.00
H912   H     0.46137   0.68516   0.96040   0.00000  Uiso   1.00
N913   N     0.50000   0.74999   0.62623   0.00000  Uiso   1.00
N914   N     0.50000   0.75001   0.87376   0.00000  Uiso   1.00
O915   O     0.50000   0.68453   0.78974   0.00000  Uiso   1.00
O916   O     0.50000   0.81546   0.71026   0.00000  Uiso   1.00
O917   O     0.50000   0.68453   0.71026   0.00000  Uiso   1.00
O918   O     0.50000   0.81547   0.78974   0.00000  Uiso   1.00
O919   O     0.42392   0.75000   0.78044   0.00000  Uiso   1.00
O920   O     0.57608   0.75000   0.71955   0.00000  Uiso   1.00
O921   O     0.42392   0.74999   0.70096   0.00000  Uiso   1.00
O922   O     0.57608   0.75000   0.79903   0.00000  Uiso   1.00
Zn923  Zn    0.50000   0.75000   0.80307   0.00000  Uiso   1.00
Zn924  Zn    0.50000   0.74999   0.69693   0.00000  Uiso   1.00
N925   N     0.65429   0.71913   0.69201   0.00000  Uiso   1.00
H926   H     0.66537   0.72905   0.66035   0.00000  Uiso   1.00
C927   C     0.65486   0.67125   0.69862   0.00000  Uiso   1.00
H928   H     0.63752   0.66178   0.73064   0.00000  Uiso   1.00
H929   H     0.36212   0.65952   0.70254   0.00000  Uiso   1.00
H930   H     0.63164   0.65463   0.66738   0.00000  Uiso   1.00
N931   N     0.34560   0.78239   0.80750   0.00000  Uiso   1.00
H932   H     0.66586   0.77436   0.83885   0.00000  Uiso   1.00
C933   C     0.34806   0.83007   0.79928   0.00000  Uiso   1.00
H934   H     0.37077   0.84682   0.83069   0.00000  Uiso   1.00
H935   H     0.64145   0.84352   0.79323   0.00000  Uiso   1.00
H936   H     0.36785   0.83764   0.76816   0.00000  Uiso   1.00
O937   O     0.43169   0.51814   0.79757   0.00000  Uiso   1.00
H938   H     0.40916   0.53692   0.81387   0.00000  Uiso   1.00
O939   O     0.43923   0.97462   0.67449   0.00000  Uiso   1.00
H940   H     0.44201   0.50737   0.67869   0.00000  Uiso   1.00
O941   O     0.42256   0.61126   0.79304   0.00000  Uiso   1.00
H942   H     0.41464   0.64033   0.77742   0.00000  Uiso   1.00
O943   O     0.43842   0.88113   0.67663   0.00000  Uiso   1.00
H944   H     0.41933   0.90092   0.65262   0.00000  Uiso   1.00
O945   O     0.57227   0.53032   0.70263   0.00000  Uiso   1.00
H946   H     0.57269   0.99762   0.70756   0.00000  Uiso   1.00
O947   O     0.55872   0.97761   0.82326   0.00000  Uiso   1.00
H948   H     0.57689   0.95658   0.84664   0.00000  Uiso   1.00
O949   O     0.40859   0.71561   0.52163   0.00000  Uiso   1.00
H950   H     0.40199   0.73312   0.99196   0.00000  Uiso   1.00
O951   O     0.52851   0.82725   0.97490   0.00000  Uiso   1.00
H952   H     0.53240   0.85176   0.95215   0.00000  Uiso   1.00
N953   N     0.42317   0.70188   0.61882   0.00000  Uiso   1.00
H954   H     0.38521   0.70975   0.60621   0.00000  Uiso   1.00
C955   C     0.43072   0.65426   0.61641   0.00000  Uiso   1.00
H956   H     0.42126   0.64234   0.57927   0.00000  Uiso   1.00
H957   H     0.40467   0.63623   0.63800   0.00000  Uiso   1.00
H958   H     0.47167   0.64610   0.63028   0.00000  Uiso   1.00
N959   N     0.56361   0.81239   0.88540   0.00000  Uiso   1.00
H960   H     0.56578   0.80980   0.85024   0.00000  Uiso   1.00
C961   C     0.61558   0.81128   0.91245   0.00000  Uiso   1.00
H962   H     0.64221   0.83424   0.89615   0.00000  Uiso   1.00
H963   H     0.63061   0.77689   0.91272   0.00000  Uiso   1.00
H964   H     0.61610   0.82245   0.94942   0.00000  Uiso   1.00
O965   O     0.57879   0.79514   0.63216   0.00000  Uiso   1.00
H966   H     0.56601   0.80568   0.66079   0.00000  Uiso   1.00
O967   O     0.44860   0.68165   0.86971   0.00000  Uiso   1.00
H968   H     0.43448   0.69392   0.83861   0.00000  Uiso   1.00
C969   C     0.83209   0.66406   0.74989   0.00000  Uiso   1.00
C970   C     0.83283   0.83597   0.74979   0.00000  Uiso   1.00
C971   C     0.78790   0.73140   0.54769   0.00000  Uiso   1.00
C972   C     0.85045   0.78775   0.95018   0.00000  Uiso   1.00
C973   C     0.79329   0.72807   0.59780   0.00000  Uiso   1.00
C974   C     0.85892   0.78352   0.90219   0.00000  Uiso   1.00
C975   C     0.87197   0.77135   0.60580   0.00000  Uiso   1.00
C976   C     0.80863   0.71592   0.89522   0.00000  Uiso   1.00
C977   C     0.87180   0.76948   0.55672   0.00000  Uiso   1.00
C978   C     0.81058   0.71445   0.94467   0.00000  Uiso   1.00
C979   C     0.82905   0.75099   0.52618   0.00000  Uiso   1.00
C980   C     0.82957   0.75121   0.97303   0.00000  Uiso   1.00
C981   C     0.73396   0.74999   0.73772   0.00000  Uiso   1.00
C982   C     0.93274   0.75037   0.76226   0.00000  Uiso   1.00
C983   C     0.67927   0.74414   0.73203   0.00000  Uiso   1.00
C984   C     0.98740   0.75693   0.76773   0.00000  Uiso   1.00
C985   C     0.79807   0.54483   0.77482   0.00000  Uiso   1.00
C986   C     0.80247   0.95301   0.71160   0.00000  Uiso   1.00
C987   C     0.79484   0.59142   0.77313   0.00000  Uiso   1.00
C988   C     0.80194   0.90619   0.71173   0.00000  Uiso   1.00
C989   C     0.83042   0.61612   0.74958   0.00000  Uiso   1.00
C990   C     0.83192   0.88395   0.74928   0.00000  Uiso   1.00
C991   C     0.86623   0.59499   0.72603   0.00000  Uiso   1.00
C992   C     0.86157   0.90716   0.78664   0.00000  Uiso   1.00
C993   C     0.86907   0.54910   0.72657   0.00000  Uiso   1.00
C994   C     0.86266   0.95351   0.78701   0.00000  Uiso   1.00
C995   C     0.83460   0.52421   0.75109   0.00000  Uiso   1.00
C996   C     0.83333   0.97605   0.74954   0.00000  Uiso   1.00
H997   H     0.89270   0.61440   0.70751   0.00000  Uiso   1.00
H998   H     0.88451   0.88913   0.81508   0.00000  Uiso   1.00
H999   H     0.90503   0.78381   0.54260   0.00000  Uiso   1.00
H1000  H     0.79470   0.68516   0.96040   0.00000  Uiso   1.00
N1001  N     0.83333   0.74999   0.62623   0.00000  Uiso   1.00
N1002  N     0.83333   0.75001   0.87376   0.00000  Uiso   1.00
O1003  O     0.83334   0.68453   0.78974   0.00000  Uiso   1.00
O1004  O     0.83333   0.81546   0.71026   0.00000  Uiso   1.00
O1005  O     0.83334   0.68453   0.71026   0.00000  Uiso   1.00
O1006  O     0.83333   0.81547   0.78974   0.00000  Uiso   1.00
O1007  O     0.75725   0.75000   0.78044   0.00000  Uiso   1.00
O1008  O     0.90942   0.75000   0.71955   0.00000  Uiso   1.00
O1009  O     0.75725   0.74999   0.70096   0.00000  Uiso   1.00
O1010  O     0.90942   0.75000   0.79903   0.00000  Uiso   1.00
Zn1011 Zn    0.83333   0.75000   0.80307   0.00000  Uiso   1.00
Zn1012 Zn    0.83333   0.74999   0.69693   0.00000  Uiso   1.00
N1013  N     0.98762   0.71913   0.69201   0.00000  Uiso   1.00
H1014  H     0.99870   0.72905   0.66035   0.00000  Uiso   1.00
C1015  C     0.98819   0.67125   0.69862   0.00000  Uiso   1.00
H1016  H     0.97086   0.66178   0.73064   0.00000  Uiso   1.00
H1017  H     0.69546   0.65952   0.70254   0.00000  Uiso   1.00
H1018  H     0.96497   0.65463   0.66738   0.00000  Uiso   1.00
N1019  N     0.67893   0.78239   0.80750   0.00000  Uiso   1.00
H1020  H     0.99920   0.77436   0.83885   0.00000  Uiso   1.00
C1021  C     0.68139   0.83007   0.79928   0.00000  Uiso   1.00
H1022  H     0.70410   0.84682   0.83069   0.00000  Uiso   1.00
H1023  H     0.97479   0.84352   0.79323   0.00000  Uiso   1.00
H1024  H     0.70118   0.83764   0.76816   0.00000  Uiso   1.00
O1025  O     0.76502   0.51814   0.79757   0.00000  Uiso   1.00
H1026  H     0.74249   0.53692   0.81387   0.00000  Uiso   1.00
O1027  O     0.77256   0.97462   0.67449   0.00000  Uiso   1.00
H1028  H     0.77535   0.50737   0.67869   0.00000  Uiso   1.00
O1029  O     0.75589   0.61126   0.79304   0.00000  Uiso   1.00
H1030  H     0.74797   0.64033   0.77742   0.00000  Uiso   1.00
O1031  O     0.77175   0.88113   0.67663   0.00000  Uiso   1.00
H1032  H     0.75266   0.90092   0.65262   0.00000  Uiso   1.00
O1033  O     0.90561   0.53032   0.70263   0.00000  Uiso   1.00
H1034  H     0.90602   0.99762   0.70756   0.00000  Uiso   1.00
O1035  O     0.89205   0.97761   0.82326   0.00000  Uiso   1.00
H1036  H     0.91023   0.95658   0.84664   0.00000  Uiso   1.00
O1037  O     0.74192   0.71561   0.52163   0.00000  Uiso   1.00
H1038  H     0.73533   0.73312   0.99196   0.00000  Uiso   1.00
O1039  O     0.86184   0.82725   0.97490   0.00000  Uiso   1.00
H1040  H     0.86573   0.85176   0.95215   0.00000  Uiso   1.00
N1041  N     0.75650   0.70188   0.61882   0.00000  Uiso   1.00
H1042  H     0.71854   0.70975   0.60621   0.00000  Uiso   1.00
C1043  C     0.76405   0.65426   0.61641   0.00000  Uiso   1.00
H1044  H     0.75459   0.64234   0.57927   0.00000  Uiso   1.00
H1045  H     0.73800   0.63623   0.63800   0.00000  Uiso   1.00
H1046  H     0.80500   0.64610   0.63028   0.00000  Uiso   1.00
N1047  N     0.89694   0.81239   0.88540   0.00000  Uiso   1.00
H1048  H     0.89912   0.80980   0.85024   0.00000  Uiso   1.00
C1049  C     0.94891   0.81128   0.91245   0.00000  Uiso   1.00
H1050  H     0.97554   0.83424   0.89615   0.00000  Uiso   1.00
H1051  H     0.96394   0.77689   0.91272   0.00000  Uiso   1.00
H1052  H     0.94943   0.82245   0.94942   0.00000  Uiso   1.00
O1053  O     0.91212   0.79514   0.63216   0.00000  Uiso   1.00
H1054  H     0.89934   0.80568   0.66079   0.00000  Uiso   1.00
O1055  O     0.78193   0.68165   0.86971   0.00000  Uiso   1.00
H1056  H     0.76781   0.69392   0.83861   0.00000  Uiso   1.00
loop_
_geom_bond_atom_site_label_1
_geom_bond_atom_site_label_2
_geom_bond_distance
_geom_bond_site_symmetry_2
_ccdc_geom_bond_type
C1     C21     1.435   .     S
C1     O37     1.289   .     A
C1     O35     1.292   .     A
C2     C22     1.437   .     S
C2     O38     1.292   .     A
C2     O36     1.291   .     A
C3     O69     1.380   .     S
C3     C5      1.421   .     A
C3     C11     1.421   .     A
C4     C12     1.408   .     A
C4     C6      1.428   .     A
C4     O71     1.382   .     S
C5     N33     1.372   .     A
C5     N73     1.418   .     S
C6     N34     1.384   .     A
C6     N79     1.428   .     S
C7     N33     1.375   .     A
C7     C9      1.403   .     A
C7     O85     1.373   .     S
C8     N34     1.379   .     A
C8     O87     1.371   .     S
C8     C10     1.407   .     A
C9     C11     1.406   .     A
C9     H31     1.083   .     S
C10    C12     1.403   .     A
C10    H32     1.083   .     S
C11    C540    1.521   1_554 S
C12    C539    1.521   .     S
C13    O41     1.288   .     A
C13    C15     1.410   .     S
C13    O39     1.278   .     A
C14    O42     1.289   .     A
C14    C16     1.412   .     S
C14    O40     1.278   .     A
C15    C192    1.354   1_455 S
C15    N221    1.430   1_455 S
C16    C103    1.354   .     S
C16    N139    1.431   .     S
C17    C27     1.404   .     A
C17    C19     1.400   .     A
C17    O57     1.385   .     S
C18    C20     1.401   .     A
C18    C28     1.417   .     A
C18    O59     1.386   .     S
C19    C21     1.412   .     A
C19    O61     1.382   .     S
C20    C22     1.405   .     A
C20    O63     1.386   .     S
C21    C23     1.394   .     A
C22    C24     1.394   .     A
C23    H29     1.083   .     S
C23    C25     1.378   .     A
C24    C26     1.387   .     A
C24    H30     1.084   .     S
C25    O65     1.383   .     S
C25    C27     1.411   .     A
C26    O67     1.383   .     S
C26    C28     1.400   .     A
C27    C292    1.442   1_545 S
C28    C291    1.442   .     S
N33    Zn44    2.020   .     S
N34    Zn43    2.020   .     S
O35    Zn43    1.999   .     S
O36    Zn44    1.999   .     S
O37    Zn44    1.995   .     S
O38    Zn43    1.995   .     S
O39    Zn43    1.983   .     S
O40    Zn44    1.983   .     S
O41    Zn44    1.995   .     S
O42    Zn43    1.995   .     S
N45    H46     1.030   .     S
N45    C47     1.445   .     S
N45    C103    1.430   .     S
C47    H50     1.110   .     S
C47    H48     1.111   .     S
C47    H137    1.110   .     S
H49    C223    1.110   1_455 S
N51    C53     1.447   .     S
N51    C192    1.431   1_455 S
N51    H228    1.030   1_455 S
H52    N139    1.030   .     S
C53    H54     1.110   .     S
C53    H56     1.111   .     S
C53    H231    1.112   1_455 S
H55    C141    1.112   .     S
O57    H58     0.990   .     S
O59    H324    0.988   .     S
H60    O323    0.988   1_545 S
O61    H62     0.989   .     S
O63    H64     0.989   .     S
O65    H330    0.988   1_545 S
H66    O329    0.988   .     S
O67    H68     0.992   .     S
O69    H598    0.990   1_554 S
H70    O597    0.990   .     S
O71    H72     0.991   .     S
N73    C75     1.448   .     S
N73    H74     1.031   .     S
C75    H76     1.111   .     S
C75    H77     1.109   .     S
C75    H78     1.111   .     S
N79    H80     1.018   .     S
N79    C81     1.451   .     S
C81    H82     1.110   .     S
C81    H83     1.111   .     S
C81    H84     1.108   .     S
O85    H86     0.985   .     S
O87    H88     0.983   .     S
C89    C109    1.435   .     S
C89    O125    1.289   .     A
C89    O123    1.292   .     A
C90    C110    1.437   .     S
C90    O126    1.292   .     A
C90    O124    1.291   .     A
C91    O157    1.380   .     S
C91    C93     1.421   .     A
C91    C99     1.421   .     A
C92    C100    1.408   .     A
C92    C94     1.428   .     A
C92    O159    1.382   .     S
C93    N121    1.372   .     A
C93    N161    1.418   .     S
C94    N122    1.384   .     A
C94    N167    1.428   .     S
C95    N121    1.375   .     A
C95    C97     1.403   .     A
C95    O173    1.373   .     S
C96    N122    1.379   .     A
C96    O175    1.371   .     S
C96    C98     1.407   .     A
C97    C99     1.406   .     A
C97    H119    1.083   .     S
C98    C100    1.403   .     A
C98    H120    1.083   .     S
C99    C628    1.521   1_554 S
C100   C627    1.521   .     S
C101   O129    1.288   .     A
C101   C103    1.410   .     S
C101   O127    1.278   .     A
C102   O130    1.289   .     A
C102   C104    1.412   .     S
C102   O128    1.278   .     A
C104   C191    1.354   .     S
C104   N227    1.431   .     S
C105   C115    1.404   .     A
C105   C107    1.400   .     A
C105   O145    1.385   .     S
C106   C108    1.401   .     A
C106   C116    1.417   .     A
C106   O147    1.386   .     S
C107   C109    1.412   .     A
C107   O149    1.382   .     S
C108   C110    1.405   .     A
C108   O151    1.386   .     S
C109   C111    1.394   .     A
C110   C112    1.394   .     A
C111   H117    1.083   .     S
C111   C113    1.378   .     A
C112   C114    1.387   .     A
C112   H118    1.084   .     S
C113   O153    1.383   .     S
C113   C115    1.411   .     A
C114   O155    1.383   .     S
C114   C116    1.400   .     A
C115   C380    1.442   1_545 S
C116   C379    1.442   .     S
N121   Zn132   2.020   .     S
N122   Zn131   2.020   .     S
O123   Zn131   1.999   .     S
O124   Zn132   1.999   .     S
O125   Zn132   1.995   .     S
O126   Zn131   1.995   .     S
O127   Zn131   1.983   .     S
O128   Zn132   1.983   .     S
O129   Zn132   1.995   .     S
O130   Zn131   1.995   .     S
N133   H134    1.030   .     S
N133   C135    1.445   .     S
N133   C191    1.430   .     S
C135   H138    1.110   .     S
C135   H136    1.111   .     S
C135   H225    1.110   .     S
N139   C141    1.447   .     S
H140   N227    1.030   .     S
C141   H142    1.110   .     S
C141   H144    1.111   .     S
H143   C229    1.112   .     S
O145   H146    0.990   .     S
O147   H412    0.988   .     S
H148   O411    0.988   1_545 S
O149   H150    0.989   .     S
O151   H152    0.989   .     S
O153   H418    0.988   1_545 S
H154   O417    0.988   .     S
O155   H156    0.992   .     S
O157   H686    0.990   1_554 S
H158   O685    0.990   .     S
O159   H160    0.991   .     S
N161   C163    1.448   .     S
N161   H162    1.031   .     S
C163   H164    1.111   .     S
C163   H165    1.109   .     S
C163   H166    1.111   .     S
N167   H168    1.018   .     S
N167   C169    1.451   .     S
C169   H170    1.110   .     S
C169   H171    1.111   .     S
C169   H172    1.108   .     S
O173   H174    0.985   .     S
O175   H176    0.983   .     S
C177   C197    1.435   .     S
C177   O213    1.289   .     A
C177   O211    1.292   .     A
C178   C198    1.437   .     S
C178   O214    1.292   .     A
C178   O212    1.291   .     A
C179   O245    1.380   .     S
C179   C181    1.421   .     A
C179   C187    1.421   .     A
C180   C188    1.408   .     A
C180   C182    1.428   .     A
C180   O247    1.382   .     S
C181   N209    1.372   .     A
C181   N249    1.418   .     S
C182   N210    1.384   .     A
C182   N255    1.428   .     S
C183   N209    1.375   .     A
C183   C185    1.403   .     A
C183   O261    1.373   .     S
C184   N210    1.379   .     A
C184   O263    1.371   .     S
C184   C186    1.407   .     A
C185   C187    1.406   .     A
C185   H207    1.083   .     S
C186   C188    1.403   .     A
C186   H208    1.083   .     S
C187   C716    1.521   1_554 S
C188   C715    1.521   .     S
C189   O217    1.288   .     A
C189   C191    1.410   .     S
C189   O215    1.278   .     A
C190   O218    1.289   .     A
C190   C192    1.412   .     S
C190   O216    1.278   .     A
C192   C15     1.354   1_655 S
C192   N51     1.431   1_655 S
C193   C203    1.404   .     A
C193   C195    1.400   .     A
C193   O233    1.385   .     S
C194   C196    1.401   .     A
C194   C204    1.417   .     A
C194   O235    1.386   .     S
C195   C197    1.412   .     A
C195   O237    1.382   .     S
C196   C198    1.405   .     A
C196   O239    1.386   .     S
C197   C199    1.394   .     A
C198   C200    1.394   .     A
C199   H205    1.083   .     S
C199   C201    1.378   .     A
C200   C202    1.387   .     A
C200   H206    1.084   .     S
C201   O241    1.383   .     S
C201   C203    1.411   .     A
C202   O243    1.383   .     S
C202   C204    1.400   .     A
C203   C468    1.442   1_545 S
C204   C467    1.442   .     S
N209   Zn220   2.020   .     S
N210   Zn219   2.020   .     S
O211   Zn219   1.999   .     S
O212   Zn220   1.999   .     S
O213   Zn220   1.995   .     S
O214   Zn219   1.995   .     S
O215   Zn219   1.983   .     S
O216   Zn220   1.983   .     S
O217   Zn220   1.995   .     S
O218   Zn219   1.995   .     S
N221   H222    1.030   .     S
N221   C223    1.445   .     S
N221   C15     1.430   1_655 S
C223   H226    1.110   .     S
C223   H224    1.111   .     S
C223   H49     1.110   1_655 S
N227   C229    1.447   .     S
H228   N51     1.030   1_655 S
C229   H230    1.110   .     S
C229   H232    1.111   .     S
H231   C53     1.112   1_655 S
O233   H234    0.990   .     S
O235   H500    0.988   .     S
H236   O499    0.988   1_545 S
O237   H238    0.989   .     S
O239   H240    0.989   .     S
O241   H506    0.988   1_545 S
H242   O505    0.988   .     S
O243   H244    0.992   .     S
O245   H774    0.990   1_554 S
H246   O773    0.990   .     S
O247   H248    0.991   .     S
N249   C251    1.448   .     S
N249   H250    1.031   .     S
C251   H252    1.111   .     S
C251   H253    1.109   .     S
C251   H254    1.111   .     S
N255   H256    1.018   .     S
N255   C257    1.451   .     S
C257   H258    1.110   .     S
C257   H259    1.111   .     S
C257   H260    1.108   .     S
O261   H262    0.985   .     S
O263   H264    0.983   .     S
C265   C285    1.435   .     S
C265   O301    1.289   .     A
C265   O299    1.292   .     A
C266   C286    1.437   .     S
C266   O302    1.292   .     A
C266   O300    1.291   .     A
C267   O333    1.380   .     S
C267   C269    1.421   .     A
C267   C275    1.421   .     A
C268   C276    1.408   .     A
C268   C270    1.428   .     A
C268   O335    1.382   .     S
C269   N297    1.372   .     A
C269   N337    1.418   .     S
C270   N298    1.384   .     A
C270   N343    1.428   .     S
C271   N297    1.375   .     A
C271   C273    1.403   .     A
C271   O349    1.373   .     S
C272   N298    1.379   .     A
C272   O351    1.371   .     S
C272   C274    1.407   .     A
C273   C275    1.406   .     A
C273   H295    1.083   .     S
C274   C276    1.403   .     A
C274   H296    1.083   .     S
C275   C804    1.521   1_554 S
C276   C803    1.521   .     S
C277   O305    1.288   .     A
C277   C279    1.410   .     S
C277   O303    1.278   .     A
C278   O306    1.289   .     A
C278   C280    1.412   .     S
C278   O304    1.278   .     A
C279   C456    1.354   1_455 S
C279   N485    1.430   1_455 S
C280   C367    1.354   .     S
C280   N403    1.431   .     S
C281   C291    1.404   .     A
C281   C283    1.400   .     A
C281   O321    1.385   .     S
C282   C284    1.401   .     A
C282   C292    1.417   .     A
C282   O323    1.386   .     S
C283   C285    1.412   .     A
C283   O325    1.382   .     S
C284   C286    1.405   .     A
C284   O327    1.386   .     S
C285   C287    1.394   .     A
C286   C288    1.394   .     A
C287   H293    1.083   .     S
C287   C289    1.378   .     A
C288   C290    1.387   .     A
C288   H294    1.084   .     S
C289   O329    1.383   .     S
C289   C291    1.411   .     A
C290   O331    1.383   .     S
C290   C292    1.400   .     A
C292   C27     1.442   1_565 S
N297   Zn308   2.020   .     S
N298   Zn307   2.020   .     S
O299   Zn307   1.999   .     S
O300   Zn308   1.999   .     S
O301   Zn308   1.995   .     S
O302   Zn307   1.995   .     S
O303   Zn307   1.983   .     S
O304   Zn308   1.983   .     S
O305   Zn308   1.995   .     S
O306   Zn307   1.995   .     S
N309   H310    1.030   .     S
N309   C311    1.445   .     S
N309   C367    1.430   .     S
C311   H314    1.110   .     S
C311   H312    1.111   .     S
C311   H401    1.110   .     S
H313   C487    1.110   1_455 S
N315   C317    1.447   .     S
N315   C456    1.431   1_455 S
N315   H492    1.030   1_455 S
H316   N403    1.030   .     S
C317   H318    1.110   .     S
C317   H320    1.111   .     S
C317   H495    1.112   1_455 S
H319   C405    1.112   .     S
O321   H322    0.990   .     S
O323   H60     0.988   1_565 S
O325   H326    0.989   .     S
O327   H328    0.989   .     S
H330   O65     0.988   1_565 S
O331   H332    0.992   .     S
O333   H862    0.990   1_554 S
H334   O861    0.990   .     S
O335   H336    0.991   .     S
N337   C339    1.448   .     S
N337   H338    1.031   .     S
C339   H340    1.111   .     S
C339   H341    1.109   .     S
C339   H342    1.111   .     S
N343   H344    1.018   .     S
N343   C345    1.451   .     S
C345   H346    1.110   .     S
C345   H347    1.111   .     S
C345   H348    1.108   .     S
O349   H350    0.985   .     S
O351   H352    0.983   .     S
C353   C373    1.435   .     S
C353   O389    1.289   .     A
C353   O387    1.292   .     A
C354   C374    1.437   .     S
C354   O390    1.292   .     A
C354   O388    1.291   .     A
C355   O421    1.380   .     S
C355   C357    1.421   .     A
C355   C363    1.421   .     A
C356   C364    1.408   .     A
C356   C358    1.428   .     A
C356   O423    1.382   .     S
C357   N385    1.372   .     A
C357   N425    1.418   .     S
C358   N386    1.384   .     A
C358   N431    1.428   .     S
C359   N385    1.375   .     A
C359   C361    1.403   .     A
C359   O437    1.373   .     S
C360   N386    1.379   .     A
C360   O439    1.371   .     S
C360   C362    1.407   .     A
C361   C363    1.406   .     A
C361   H383    1.083   .     S
C362   C364    1.403   .     A
C362   H384    1.083   .     S
C363   C892    1.521   1_554 S
C364   C891    1.521   .     S
C365   O393    1.288   .     A
C365   C367    1.410   .     S
C365   O391    1.278   .     A
C366   O394    1.289   .     A
C366   C368    1.412   .     S
C366   O392    1.278   .     A
C368   C455    1.354   .     S
C368   N491    1.431   .     S
C369   C379    1.404   .     A
C369   C371    1.400   .     A
C369   O409    1.385   .     S
C370   C372    1.401   .     A
C370   C380    1.417   .     A
C370   O411    1.386   .     S
C371   C373    1.412   .     A
C371   O413    1.382   .     S
C372   C374    1.405   .     A
C372   O415    1.386   .     S
C373   C375    1.394   .     A
C374   C376    1.394   .     A
C375   H381    1.083   .     S
C375   C377    1.378   .     A
C376   C378    1.387   .     A
C376   H382    1.084   .     S
C377   O417    1.383   .     S
C377   C379    1.411   .     A
C378   O419    1.383   .     S
C378   C380    1.400   .     A
C380   C115    1.442   1_565 S
N385   Zn396   2.020   .     S
N386   Zn395   2.020   .     S
O387   Zn395   1.999   .     S
O388   Zn396   1.999   .     S
O389   Zn396   1.995   .     S
O390   Zn395   1.995   .     S
O391   Zn395   1.983   .     S
O392   Zn396   1.983   .     S
O393   Zn396   1.995   .     S
O394   Zn395   1.995   .     S
N397   H398    1.030   .     S
N397   C399    1.445   .     S
N397   C455    1.430   .     S
C399   H402    1.110   .     S
C399   H400    1.111   .     S
C399   H489    1.110   .     S
N403   C405    1.447   .     S
H404   N491    1.030   .     S
C405   H406    1.110   .     S
C405   H408    1.111   .     S
H407   C493    1.112   .     S
O409   H410    0.990   .     S
O411   H148    0.988   1_565 S
O413   H414    0.989   .     S
O415   H416    0.989   .     S
H418   O153    0.988   1_565 S
O419   H420    0.992   .     S
O421   H950    0.990   1_554 S
H422   O949    0.990   .     S
O423   H424    0.991   .     S
N425   C427    1.448   .     S
N425   H426    1.031   .     S
C427   H428    1.111   .     S
C427   H429    1.109   .     S
C427   H430    1.111   .     S
N431   H432    1.018   .     S
N431   C433    1.451   .     S
C433   H434    1.110   .     S
C433   H435    1.111   .     S
C433   H436    1.108   .     S
O437   H438    0.985   .     S
O439   H440    0.983   .     S
C441   C461    1.435   .     S
C441   O477    1.289   .     A
C441   O475    1.292   .     A
C442   C462    1.437   .     S
C442   O478    1.292   .     A
C442   O476    1.291   .     A
C443   O509    1.380   .     S
C443   C445    1.421   .     A
C443   C451    1.421   .     A
C444   C452    1.408   .     A
C444   C446    1.428   .     A
C444   O511    1.382   .     S
C445   N473    1.372   .     A
C445   N513    1.418   .     S
C446   N474    1.384   .     A
C446   N519    1.428   .     S
C447   N473    1.375   .     A
C447   C449    1.403   .     A
C447   O525    1.373   .     S
C448   N474    1.379   .     A
C448   O527    1.371   .     S
C448   C450    1.407   .     A
C449   C451    1.406   .     A
C449   H471    1.083   .     S
C450   C452    1.403   .     A
C450   H472    1.083   .     S
C451   C980    1.521   1_554 S
C452   C979    1.521   .     S
C453   O481    1.288   .     A
C453   C455    1.410   .     S
C453   O479    1.278   .     A
C454   O482    1.289   .     A
C454   C456    1.412   .     S
C454   O480    1.278   .     A
C456   C279    1.354   1_655 S
C456   N315    1.431   1_655 S
C457   C467    1.404   .     A
C457   C459    1.400   .     A
C457   O497    1.385   .     S
C458   C460    1.401   .     A
C458   C468    1.417   .     A
C458   O499    1.386   .     S
C459   C461    1.412   .     A
C459   O501    1.382   .     S
C460   C462    1.405   .     A
C460   O503    1.386   .     S
C461   C463    1.394   .     A
C462   C464    1.394   .     A
C463   H469    1.083   .     S
C463   C465    1.378   .     A
C464   C466    1.387   .     A
C464   H470    1.084   .     S
C465   O505    1.383   .     S
C465   C467    1.411   .     A
C466   O507    1.383   .     S
C466   C468    1.400   .     A
C468   C203    1.442   1_565 S
N473   Zn484   2.020   .     S
N474   Zn483   2.020   .     S
O475   Zn483   1.999   .     S
O476   Zn484   1.999   .     S
O477   Zn484   1.995   .     S
O478   Zn483   1.995   .     S
O479   Zn483   1.983   .     S
O480   Zn484   1.983   .     S
O481   Zn484   1.995   .     S
O482   Zn483   1.995   .     S
N485   H486    1.030   .     S
N485   C487    1.445   .     S
N485   C279    1.430   1_655 S
C487   H490    1.110   .     S
C487   H488    1.111   .     S
C487   H313    1.110   1_655 S
N491   C493    1.447   .     S
H492   N315    1.030   1_655 S
C493   H494    1.110   .     S
C493   H496    1.111   .     S
H495   C317    1.112   1_655 S
O497   H498    0.990   .     S
O499   H236    0.988   1_565 S
O501   H502    0.989   .     S
O503   H504    0.989   .     S
H506   O241    0.988   1_565 S
O507   H508    0.992   .     S
O509   H1038   0.990   1_554 S
H510   O1037   0.990   .     S
O511   H512    0.991   .     S
N513   C515    1.448   .     S
N513   H514    1.031   .     S
C515   H516    1.111   .     S
C515   H517    1.109   .     S
C515   H518    1.111   .     S
N519   H520    1.018   .     S
N519   C521    1.451   .     S
C521   H522    1.110   .     S
C521   H523    1.111   .     S
C521   H524    1.108   .     S
O525   H526    0.985   .     S
O527   H528    0.983   .     S
C529   C549    1.435   .     S
C529   O565    1.289   .     A
C529   O563    1.292   .     A
C530   C550    1.437   .     S
C530   O566    1.292   .     A
C530   O564    1.291   .     A
C531   O597    1.380   .     S
C531   C533    1.421   .     A
C531   C539    1.421   .     A
C532   C540    1.408   .     A
C532   C534    1.428   .     A
C532   O599    1.382   .     S
C533   N561    1.372   .     A
C533   N601    1.418   .     S
C534   N562    1.384   .     A
C534   N607    1.428   .     S
C535   N561    1.375   .     A
C535   C537    1.403   .     A
C535   O613    1.373   .     S
C536   N562    1.379   .     A
C536   O615    1.371   .     S
C536   C538    1.407   .     A
C537   C539    1.406   .     A
C537   H559    1.083   .     S
C538   C540    1.403   .     A
C538   H560    1.083   .     S
C540   C11     1.521   1_556 S
C541   O569    1.288   .     A
C541   C543    1.410   .     S
C541   O567    1.278   .     A
C542   O570    1.289   .     A
C542   C544    1.412   .     S
C542   O568    1.278   .     A
C543   C720    1.354   1_455 S
C543   N749    1.430   1_455 S
C544   C631    1.354   .     S
C544   N667    1.431   .     S
C545   C555    1.404   .     A
C545   C547    1.400   .     A
C545   O585    1.385   .     S
C546   C548    1.401   .     A
C546   C556    1.417   .     A
C546   O587    1.386   .     S
C547   C549    1.412   .     A
C547   O589    1.382   .     S
C548   C550    1.405   .     A
C548   O591    1.386   .     S
C549   C551    1.394   .     A
C550   C552    1.394   .     A
C551   H557    1.083   .     S
C551   C553    1.378   .     A
C552   C554    1.387   .     A
C552   H558    1.084   .     S
C553   O593    1.383   .     S
C553   C555    1.411   .     A
C554   O595    1.383   .     S
C554   C556    1.400   .     A
C555   C820    1.442   1_545 S
C556   C819    1.442   .     S
N561   Zn572   2.020   .     S
N562   Zn571   2.020   .     S
O563   Zn571   1.999   .     S
O564   Zn572   1.999   .     S
O565   Zn572   1.995   .     S
O566   Zn571   1.995   .     S
O567   Zn571   1.983   .     S
O568   Zn572   1.983   .     S
O569   Zn572   1.995   .     S
O570   Zn571   1.995   .     S
N573   H574    1.030   .     S
N573   C575    1.445   .     S
N573   C631    1.430   .     S
C575   H578    1.110   .     S
C575   H576    1.111   .     S
C575   H665    1.110   .     S
H577   C751    1.110   1_455 S
N579   C581    1.447   .     S
N579   C720    1.431   1_455 S
N579   H756    1.030   1_455 S
H580   N667    1.030   .     S
C581   H582    1.110   .     S
C581   H584    1.111   .     S
C581   H759    1.112   1_455 S
H583   C669    1.112   .     S
O585   H586    0.990   .     S
O587   H852    0.988   .     S
H588   O851    0.988   1_545 S
O589   H590    0.989   .     S
O591   H592    0.989   .     S
O593   H858    0.988   1_545 S
H594   O857    0.988   .     S
O595   H596    0.992   .     S
H598   O69     0.990   1_556 S
O599   H600    0.991   .     S
N601   C603    1.448   .     S
N601   H602    1.031   .     S
C603   H604    1.111   .     S
C603   H605    1.109   .     S
C603   H606    1.111   .     S
N607   H608    1.018   .     S
N607   C609    1.451   .     S
C609   H610    1.110   .     S
C609   H611    1.111   .     S
C609   H612    1.108   .     S
O613   H614    0.985   .     S
O615   H616    0.983   .     S
C617   C637    1.435   .     S
C617   O653    1.289   .     A
C617   O651    1.292   .     A
C618   C638    1.437   .     S
C618   O654    1.292   .     A
C618   O652    1.291   .     A
C619   O685    1.380   .     S
C619   C621    1.421   .     A
C619   C627    1.421   .     A
C620   C628    1.408   .     A
C620   C622    1.428   .     A
C620   O687    1.382   .     S
C621   N649    1.372   .     A
C621   N689    1.418   .     S
C622   N650    1.384   .     A
C622   N695    1.428   .     S
C623   N649    1.375   .     A
C623   C625    1.403   .     A
C623   O701    1.373   .     S
C624   N650    1.379   .     A
C624   O703    1.371   .     S
C624   C626    1.407   .     A
C625   C627    1.406   .     A
C625   H647    1.083   .     S
C626   C628    1.403   .     A
C626   H648    1.083   .     S
C628   C99     1.521   1_556 S
C629   O657    1.288   .     A
C629   C631    1.410   .     S
C629   O655    1.278   .     A
C630   O658    1.289   .     A
C630   C632    1.412   .     S
C630   O656    1.278   .     A
C632   C719    1.354   .     S
C632   N755    1.431   .     S
C633   C643    1.404   .     A
C633   C635    1.400   .     A
C633   O673    1.385   .     S
C634   C636    1.401   .     A
C634   C644    1.417   .     A
C634   O675    1.386   .     S
C635   C637    1.412   .     A
C635   O677    1.382   .     S
C636   C638    1.405   .     A
C636   O679    1.386   .     S
C637   C639    1.394   .     A
C638   C640    1.394   .     A
C639   H645    1.083   .     S
C639   C641    1.378   .     A
C640   C642    1.387   .     A
C640   H646    1.084   .     S
C641   O681    1.383   .     S
C641   C643    1.411   .     A
C642   O683    1.383   .     S
C642   C644    1.400   .     A
C643   C908    1.442   1_545 S
C644   C907    1.442   .     S
N649   Zn660   2.020   .     S
N650   Zn659   2.020   .     S
O651   Zn659   1.999   .     S
O652   Zn660   1.999   .     S
O653   Zn660   1.995   .     S
O654   Zn659   1.995   .     S
O655   Zn659   1.983   .     S
O656   Zn660   1.983   .     S
O657   Zn660   1.995   .     S
O658   Zn659   1.995   .     S
N661   H662    1.030   .     S
N661   C663    1.445   .     S
N661   C719    1.430   .     S
C663   H666    1.110   .     S
C663   H664    1.111   .     S
C663   H753    1.110   .     S
N667   C669    1.447   .     S
H668   N755    1.030   .     S
C669   H670    1.110   .     S
C669   H672    1.111   .     S
H671   C757    1.112   .     S
O673   H674    0.990   .     S
O675   H940    0.988   .     S
H676   O939    0.988   1_545 S
O677   H678    0.989   .     S
O679   H680    0.989   .     S
O681   H946    0.988   1_545 S
H682   O945    0.988   .     S
O683   H684    0.992   .     S
H686   O157    0.990   1_556 S
O687   H688    0.991   .     S
N689   C691    1.448   .     S
N689   H690    1.031   .     S
C691   H692    1.111   .     S
C691   H693    1.109   .     S
C691   H694    1.111   .     S
N695   H696    1.018   .     S
N695   C697    1.451   .     S
C697   H698    1.110   .     S
C697   H699    1.111   .     S
C697   H700    1.108   .     S
O701   H702    0.985   .     S
O703   H704    0.983   .     S
C705   C725    1.435   .     S
C705   O741    1.289   .     A
C705   O739    1.292   .     A
C706   C726    1.437   .     S
C706   O742    1.292   .     A
C706   O740    1.291   .     A
C707   O773    1.380   .     S
C707   C709    1.421   .     A
C707   C715    1.421   .     A
C708   C716    1.408   .     A
C708   C710    1.428   .     A
C708   O775    1.382   .     S
C709   N737    1.372   .     A
C709   N777    1.418   .     S
C710   N738    1.384   .     A
C710   N783    1.428   .     S
C711   N737    1.375   .     A
C711   C713    1.403   .     A
C711   O789    1.373   .     S
C712   N738    1.379   .     A
C712   O791    1.371   .     S
C712   C714    1.407   .     A
C713   C715    1.406   .     A
C713   H735    1.083   .     S
C714   C716    1.403   .     A
C714   H736    1.083   .     S
C716   C187    1.521   1_556 S
C717   O745    1.288   .     A
C717   C719    1.410   .     S
C717   O743    1.278   .     A
C718   O746    1.289   .     A
C718   C720    1.412   .     S
C718   O744    1.278   .     A
C720   C543    1.354   1_655 S
C720   N579    1.431   1_655 S
C721   C731    1.404   .     A
C721   C723    1.400   .     A
C721   O761    1.385   .     S
C722   C724    1.401   .     A
C722   C732    1.417   .     A
C722   O763    1.386   .     S
C723   C725    1.412   .     A
C723   O765    1.382   .     S
C724   C726    1.405   .     A
C724   O767    1.386   .     S
C725   C727    1.394   .     A
C726   C728    1.394   .     A
C727   H733    1.083   .     S
C727   C729    1.378   .     A
C728   C730    1.387   .     A
C728   H734    1.084   .     S
C729   O769    1.383   .     S
C729   C731    1.411   .     A
C730   O771    1.383   .     S
C730   C732    1.400   .     A
C731   C996    1.442   1_545 S
C732   C995    1.442   .     S
N737   Zn748   2.020   .     S
N738   Zn747   2.020   .     S
O739   Zn747   1.999   .     S
O740   Zn748   1.999   .     S
O741   Zn748   1.995   .     S
O742   Zn747   1.995   .     S
O743   Zn747   1.983   .     S
O744   Zn748   1.983   .     S
O745   Zn748   1.995   .     S
O746   Zn747   1.995   .     S
N749   H750    1.030   .     S
N749   C751    1.445   .     S
N749   C543    1.430   1_655 S
C751   H754    1.110   .     S
C751   H752    1.111   .     S
C751   H577    1.110   1_655 S
N755   C757    1.447   .     S
H756   N579    1.030   1_655 S
C757   H758    1.110   .     S
C757   H760    1.111   .     S
H759   C581    1.112   1_655 S
O761   H762    0.990   .     S
O763   H1028   0.988   .     S
H764   O1027   0.988   1_545 S
O765   H766    0.989   .     S
O767   H768    0.989   .     S
O769   H1034   0.988   1_545 S
H770   O1033   0.988   .     S
O771   H772    0.992   .     S
H774   O245    0.990   1_556 S
O775   H776    0.991   .     S
N777   C779    1.448   .     S
N777   H778    1.031   .     S
C779   H780    1.111   .     S
C779   H781    1.109   .     S
C779   H782    1.111   .     S
N783   H784    1.018   .     S
N783   C785    1.451   .     S
C785   H786    1.110   .     S
C785   H787    1.111   .     S
C785   H788    1.108   .     S
O789   H790    0.985   .     S
O791   H792    0.983   .     S
C793   C813    1.435   .     S
C793   O829    1.289   .     A
C793   O827    1.292   .     A
C794   C814    1.437   .     S
C794   O830    1.292   .     A
C794   O828    1.291   .     A
C795   O861    1.380   .     S
C795   C797    1.421   .     A
C795   C803    1.421   .     A
C796   C804    1.408   .     A
C796   C798    1.428   .     A
C796   O863    1.382   .     S
C797   N825    1.372   .     A
C797   N865    1.418   .     S
C798   N826    1.384   .     A
C798   N871    1.428   .     S
C799   N825    1.375   .     A
C799   C801    1.403   .     A
C799   O877    1.373   .     S
C800   N826    1.379   .     A
C800   O879    1.371   .     S
C800   C802    1.407   .     A
C801   C803    1.406   .     A
C801   H823    1.083   .     S
C802   C804    1.403   .     A
C802   H824    1.083   .     S
C804   C275    1.521   1_556 S
C805   O833    1.288   .     A
C805   C807    1.410   .     S
C805   O831    1.278   .     A
C806   O834    1.289   .     A
C806   C808    1.412   .     S
C806   O832    1.278   .     A
C807   C984    1.354   1_455 S
C807   N1013   1.430   1_455 S
C808   C895    1.354   .     S
C808   N931    1.431   .     S
C809   C819    1.404   .     A
C809   C811    1.400   .     A
C809   O849    1.385   .     S
C810   C812    1.401   .     A
C810   C820    1.417   .     A
C810   O851    1.386   .     S
C811   C813    1.412   .     A
C811   O853    1.382   .     S
C812   C814    1.405   .     A
C812   O855    1.386   .     S
C813   C815    1.394   .     A
C814   C816    1.394   .     A
C815   H821    1.083   .     S
C815   C817    1.378   .     A
C816   C818    1.387   .     A
C816   H822    1.084   .     S
C817   O857    1.383   .     S
C817   C819    1.411   .     A
C818   O859    1.383   .     S
C818   C820    1.400   .     A
C820   C555    1.442   1_565 S
N825   Zn836   2.020   .     S
N826   Zn835   2.020   .     S
O827   Zn835   1.999   .     S
O828   Zn836   1.999   .     S
O829   Zn836   1.995   .     S
O830   Zn835   1.995   .     S
O831   Zn835   1.983   .     S
O832   Zn836   1.983   .     S
O833   Zn836   1.995   .     S
O834   Zn835   1.995   .     S
N837   H838    1.030   .     S
N837   C839    1.445   .     S
N837   C895    1.430   .     S
C839   H842    1.110   .     S
C839   H840    1.111   .     S
C839   H929    1.110   .     S
H841   C1015   1.110   1_455 S
N843   C845    1.447   .     S
N843   C984    1.431   1_455 S
N843   H1020   1.030   1_455 S
H844   N931    1.030   .     S
C845   H846    1.110   .     S
C845   H848    1.111   .     S
C845   H1023   1.112   1_455 S
H847   C933    1.112   .     S
O849   H850    0.990   .     S
O851   H588    0.988   1_565 S
O853   H854    0.989   .     S
O855   H856    0.989   .     S
H858   O593    0.988   1_565 S
O859   H860    0.992   .     S
H862   O333    0.990   1_556 S
O863   H864    0.991   .     S
N865   C867    1.448   .     S
N865   H866    1.031   .     S
C867   H868    1.111   .     S
C867   H869    1.109   .     S
C867   H870    1.111   .     S
N871   H872    1.018   .     S
N871   C873    1.451   .     S
C873   H874    1.110   .     S
C873   H875    1.111   .     S
C873   H876    1.108   .     S
O877   H878    0.985   .     S
O879   H880    0.983   .     S
C881   C901    1.435   .     S
C881   O917    1.289   .     A
C881   O915    1.292   .     A
C882   C902    1.437   .     S
C882   O918    1.292   .     A
C882   O916    1.291   .     A
C883   O949    1.380   .     S
C883   C885    1.421   .     A
C883   C891    1.421   .     A
C884   C892    1.408   .     A
C884   C886    1.428   .     A
C884   O951    1.382   .     S
C885   N913    1.372   .     A
C885   N953    1.418   .     S
C886   N914    1.384   .     A
C886   N959    1.428   .     S
C887   N913    1.375   .     A
C887   C889    1.403   .     A
C887   O965    1.373   .     S
C888   N914    1.379   .     A
C888   O967    1.371   .     S
C888   C890    1.407   .     A
C889   C891    1.406   .     A
C889   H911    1.083   .     S
C890   C892    1.403   .     A
C890   H912    1.083   .     S
C892   C363    1.521   1_556 S
C893   O921    1.288   .     A
C893   C895    1.410   .     S
C893   O919    1.278   .     A
C894   O922    1.289   .     A
C894   C896    1.412   .     S
C894   O920    1.278   .     A
C896   C983    1.354   .     S
C896   N1019   1.431   .     S
C897   C907    1.404   .     A
C897   C899    1.400   .     A
C897   O937    1.385   .     S
C898   C900    1.401   .     A
C898   C908    1.417   .     A
C898   O939    1.386   .     S
C899   C901    1.412   .     A
C899   O941    1.382   .     S
C900   C902    1.405   .     A
C900   O943    1.386   .     S
C901   C903    1.394   .     A
C902   C904    1.394   .     A
C903   H909    1.083   .     S
C903   C905    1.378   .     A
C904   C906    1.387   .     A
C904   H910    1.084   .     S
C905   O945    1.383   .     S
C905   C907    1.411   .     A
C906   O947    1.383   .     S
C906   C908    1.400   .     A
C908   C643    1.442   1_565 S
N913   Zn924   2.020   .     S
N914   Zn923   2.020   .     S
O915   Zn923   1.999   .     S
O916   Zn924   1.999   .     S
O917   Zn924   1.995   .     S
O918   Zn923   1.995   .     S
O919   Zn923   1.983   .     S
O920   Zn924   1.983   .     S
O921   Zn924   1.995   .     S
O922   Zn923   1.995   .     S
N925   H926    1.030   .     S
N925   C927    1.445   .     S
N925   C983    1.430   .     S
C927   H930    1.110   .     S
C927   H928    1.111   .     S
C927   H1017   1.110   .     S
N931   C933    1.447   .     S
H932   N1019   1.030   .     S
C933   H934    1.110   .     S
C933   H936    1.111   .     S
H935   C1021   1.112   .     S
O937   H938    0.990   .     S
O939   H676    0.988   1_565 S
O941   H942    0.989   .     S
O943   H944    0.989   .     S
H946   O681    0.988   1_565 S
O947   H948    0.992   .     S
H950   O421    0.990   1_556 S
O951   H952    0.991   .     S
N953   C955    1.448   .     S
N953   H954    1.031   .     S
C955   H956    1.111   .     S
C955   H957    1.109   .     S
C955   H958    1.111   .     S
N959   H960    1.018   .     S
N959   C961    1.451   .     S
C961   H962    1.110   .     S
C961   H963    1.111   .     S
C961   H964    1.108   .     S
O965   H966    0.985   .     S
O967   H968    0.983   .     S
C969   C989    1.435   .     S
C969   O1005   1.289   .     A
C969   O1003   1.292   .     A
C970   C990    1.437   .     S
C970   O1006   1.292   .     A
C970   O1004   1.291   .     A
C971   O1037   1.380   .     S
C971   C973    1.421   .     A
C971   C979    1.421   .     A
C972   C980    1.408   .     A
C972   C974    1.428   .     A
C972   O1039   1.382   .     S
C973   N1001   1.372   .     A
C973   N1041   1.418   .     S
C974   N1002   1.384   .     A
C974   N1047   1.428   .     S
C975   N1001   1.375   .     A
C975   C977    1.403   .     A
C975   O1053   1.373   .     S
C976   N1002   1.379   .     A
C976   O1055   1.371   .     S
C976   C978    1.407   .     A
C977   C979    1.406   .     A
C977   H999    1.083   .     S
C978   C980    1.403   .     A
C978   H1000   1.083   .     S
C980   C451    1.521   1_556 S
C981   O1009   1.288   .     A
C981   C983    1.410   .     S
C981   O1007   1.278   .     A
C982   O1010   1.289   .     A
C982   C984    1.412   .     S
C982   O1008   1.278   .     A
C984   C807    1.354   1_655 S
C984   N843    1.431   1_655 S
C985   C995    1.404   .     A
C985   C987    1.400   .     A
C985   O1025   1.385   .     S
C986   C988    1.401   .     A
C986   C996    1.417   .     A
C986   O1027   1.386   .     S
C987   C989    1.412   .     A
C987   O1029   1.382   .     S
C988   C990    1.405   .     A
C988   O1031   1.386   .     S
C989   C991    1.394   .     A
C990   C992    1.394   .     A
C991   H997    1.083   .     S
C991   C993    1.378   .     A
C992   C994    1.387   .     A
C992   H998    1.084   .     S
C993   O1033   1.383   .     S
C993   C995    1.411   .     A
C994   O1035   1.383   .     S
C994   C996    1.400   .     A
C996   C731    1.442   1_565 S
N1001  Zn1012  2.020   .     S
N1002  Zn1011  2.020   .     S
O1003  Zn1011  1.999   .     S
O1004  Zn1012  1.999   .     S
O1005  Zn1012  1.995   .     S
O1006  Zn1011  1.995   .     S
O1007  Zn1011  1.983   .     S
O1008  Zn1012  1.983   .     S
O1009  Zn1012  1.995   .     S
O1010  Zn1011  1.995   .     S
N1013  H1014   1.030   .     S
N1013  C1015   1.445   .     S
N1013  C807    1.430   1_655 S
C1015  H1018   1.110   .     S
C1015  H1016   1.111   .     S
C1015  H841    1.110   1_655 S
N1019  C1021   1.447   .     S
H1020  N843    1.030   1_655 S
C1021  H1022   1.110   .     S
C1021  H1024   1.111   .     S
H1023  C845    1.112   1_655 S
O1025  H1026   0.990   .     S
O1027  H764    0.988   1_565 S
O1029  H1030   0.989   .     S
O1031  H1032   0.989   .     S
H1034  O769    0.988   1_565 S
O1035  H1036   0.992   .     S
H1038  O509    0.990   1_556 S
O1039  H1040   0.991   .     S
N1041  C1043   1.448   .     S
N1041  H1042   1.031   .     S
C1043  H1044   1.111   .     S
C1043  H1045   1.109   .     S
C1043  H1046   1.111   .     S
N1047  H1048   1.018   .     S
N1047  C1049   1.451   .     S
C1049  H1050   1.110   .     S
C1049  H1051   1.111   .     S
C1049  H1052   1.108   .     S
O1053  H1054   0.985   .     S
O1055  H1056   0.983   .     S
