data_str_m2_o1_o18_pcu_sym.163
_audit_creation_date              2020-01-03
_audit_creation_method            'Materials Studio'
_symmetry_space_group_name_H-M    'P1'
_symmetry_Int_Tables_number       1
_symmetry_cell_setting            triclinic
loop_
_symmetry_equiv_pos_as_xyz
  x,y,z
_cell_length_a                    28.9232
_cell_length_b                    32.2733
_cell_length_c                    30.4512
_cell_angle_alpha                 86.9261
_cell_angle_beta                  74.1886
_cell_angle_gamma                 88.0877
loop_
_atom_site_label
_atom_site_type_symbol
_atom_site_fract_x
_atom_site_fract_y
_atom_site_fract_z
_atom_site_U_iso_or_equiv
_atom_site_adp_type
_atom_site_occupancy
C1     C     0.00045   0.08750   0.25009   0.00000  Uiso   1.00
C2     C     0.33290   0.24584   0.24972   0.00000  Uiso   1.00
C3     C     0.19435   0.15109   0.05375   0.00000  Uiso   1.00
C4     C     0.14791   0.12065   0.45839   0.00000  Uiso   1.00
C5     C     0.24238   0.15895   0.03126   0.00000  Uiso   1.00
C6     C     0.09931   0.11537   0.48130   0.00000  Uiso   1.00
C7     C     0.29379   0.02144   0.27668   0.00000  Uiso   1.00
C8     C     0.03939   0.31192   0.22276   0.00000  Uiso   1.00
C9     C     0.29309   0.31190   0.27626   0.00000  Uiso   1.00
C10    C     0.03999   0.02147   0.22302   0.00000  Uiso   1.00
C11    C     0.33249   0.29053   0.24919   0.00000  Uiso   1.00
C12    C     0.00077   0.04282   0.25036   0.00000  Uiso   1.00
C13    C     0.18667   0.13685   0.27379   0.00000  Uiso   1.00
C14    C     0.14657   0.19671   0.22661   0.00000  Uiso   1.00
C15    C     0.13770   0.13575   0.27370   0.00000  Uiso   1.00
C16    C     0.19589   0.19703   0.22549   0.00000  Uiso   1.00
C17    C     0.30610   0.16758   0.33663   0.00000  Uiso   1.00
C18    C     0.02721   0.16457   0.16376   0.00000  Uiso   1.00
C19    C     0.29130   0.16725   0.38752   0.00000  Uiso   1.00
C20    C     0.04201   0.15550   0.11471   0.00000  Uiso   1.00
C21    C     0.30612   0.17135   0.46215   0.00000  Uiso   1.00
C22    C     0.03241   0.12080   0.04881   0.00000  Uiso   1.00
C23    C     0.32343   0.17389   0.41436   0.00000  Uiso   1.00
C24    C     0.01408   0.13119   0.09453   0.00000  Uiso   1.00
C25    C     0.24286   0.15952   0.40987   0.00000  Uiso   1.00
C26    C     0.08867   0.16566   0.08952   0.00000  Uiso   1.00
C27    C     0.22648   0.15292   0.45754   0.00000  Uiso   1.00
C28    C     0.11024   0.14739   0.04782   0.00000  Uiso   1.00
C29    C     0.25829   0.16129   0.48369   0.00000  Uiso   1.00
C30    C     0.08032   0.12873   0.02543   0.00000  Uiso   1.00
C31    C     0.17843   0.14093   0.48013   0.00000  Uiso   1.00
C32    C     0.16064   0.14768   0.02770   0.00000  Uiso   1.00
Cu33   Cu    0.04689   0.16667   0.25000   0.00000  Uiso   1.00
Cu34   Cu    0.28645   0.16666   0.25000   0.00000  Uiso   1.00
H35    H     0.26768   0.16278   0.05118   0.00000  Uiso   1.00
H36    H     0.07639   0.09951   0.46497   0.00000  Uiso   1.00
H37    H     0.10925   0.18572   0.10412   0.00000  Uiso   1.00
H38    H     0.21758   0.15971   0.38966   0.00000  Uiso   1.00
H39    H     0.33013   0.17727   0.48284   0.00000  Uiso   1.00
H40    H     0.01037   0.10396   0.03242   0.00000  Uiso   1.00
H41    H     0.26320   0.03790   0.29785   0.00000  Uiso   1.00
H42    H     0.06997   0.29545   0.20159   0.00000  Uiso   1.00
H43    H     0.26235   0.29542   0.29751   0.00000  Uiso   1.00
H44    H     0.07053   0.03796   0.20142   0.00000  Uiso   1.00
H45    H     0.20218   0.11300   0.29197   0.00000  Uiso   1.00
H46    H     0.13114   0.22071   0.20851   0.00000  Uiso   1.00
N47    N     0.11736   0.16668   0.24999   0.00000  Uiso   1.00
N48    N     0.21597   0.16666   0.25001   0.00000  Uiso   1.00
O49    O     0.03958   0.10655   0.25000   0.00000  Uiso   1.00
O50    O     0.29375   0.22678   0.25000   0.00000  Uiso   1.00
O51    O     0.29372   0.10654   0.25000   0.00000  Uiso   1.00
O52    O     0.03961   0.22679   0.24999   0.00000  Uiso   1.00
O53    O     0.01852   0.16668   0.31491   0.00000  Uiso   1.00
O54    O     0.31481   0.16666   0.18508   0.00000  Uiso   1.00
O55    O     0.27267   0.16667   0.31492   0.00000  Uiso   1.00
O56    O     0.06067   0.16667   0.18508   0.00000  Uiso   1.00
C57    C     0.30032   0.11324   0.12155   0.00000  Uiso   1.00
H58    H     0.30517   0.09504   0.15202   0.00000  Uiso   1.00
H59    H     0.27352   0.13864   0.13240   0.00000  Uiso   1.00
H60    H     0.28640   0.09170   0.10116   0.00000  Uiso   1.00
C61    C     0.04187   0.18565   0.39382   0.00000  Uiso   1.00
H62    H     0.04388   0.21339   0.37022   0.00000  Uiso   1.00
H63    H     0.05955   0.19346   0.42036   0.00000  Uiso   1.00
H64    H     0.06269   0.15942   0.37540   0.00000  Uiso   1.00
C65    C     0.18325   0.13927   0.10426   0.00000  Uiso   1.00
H66    H     0.18462   0.16692   0.12403   0.00000  Uiso   1.00
H67    H     0.14865   0.12335   0.11802   0.00000  Uiso   1.00
H68    H     0.20975   0.11573   0.11005   0.00000  Uiso   1.00
C69    C     0.16639   0.09706   0.41539   0.00000  Uiso   1.00
H70    H     0.16034   0.11595   0.38588   0.00000  Uiso   1.00
H71    H     0.20483   0.08791   0.40940   0.00000  Uiso   1.00
H72    H     0.14695   0.06748   0.41823   0.00000  Uiso   1.00
S73    S     0.10926   0.08900   0.30012   0.00000  Uiso   1.00
O74    O     0.11116   0.05957   0.26312   0.00000  Uiso   1.00
O75    O     0.13684   0.06878   0.33103   0.00000  Uiso   1.00
O76    O     0.05235   0.09534   0.33175   0.00000  Uiso   1.00
H77    H     0.04031   0.06687   0.34048   0.00000  Uiso   1.00
S78    S     0.22587   0.24120   0.19385   0.00000  Uiso   1.00
O79    O     0.27727   0.23343   0.16859   0.00000  Uiso   1.00
O80    O     0.20034   0.25654   0.15899   0.00000  Uiso   1.00
O81    O     0.22283   0.27928   0.23006   0.00000  Uiso   1.00
H82    H     0.18810   0.28592   0.24189   0.00000  Uiso   1.00
C83    C     0.33379   0.08750   0.25009   0.00000  Uiso   1.00
C84    C     0.66623   0.24584   0.24972   0.00000  Uiso   1.00
C85    C     0.52769   0.15109   0.05375   0.00000  Uiso   1.00
C86    C     0.48124   0.12065   0.45839   0.00000  Uiso   1.00
C87    C     0.57571   0.15895   0.03126   0.00000  Uiso   1.00
C88    C     0.43265   0.11537   0.48130   0.00000  Uiso   1.00
C89    C     0.62713   0.02144   0.27668   0.00000  Uiso   1.00
C90    C     0.37273   0.31192   0.22276   0.00000  Uiso   1.00
C91    C     0.62643   0.31190   0.27626   0.00000  Uiso   1.00
C92    C     0.37333   0.02147   0.22302   0.00000  Uiso   1.00
C93    C     0.66583   0.29053   0.24919   0.00000  Uiso   1.00
C94    C     0.33410   0.04282   0.25036   0.00000  Uiso   1.00
C95    C     0.52001   0.13685   0.27379   0.00000  Uiso   1.00
C96    C     0.47990   0.19671   0.22661   0.00000  Uiso   1.00
C97    C     0.47103   0.13575   0.27370   0.00000  Uiso   1.00
C98    C     0.52923   0.19703   0.22549   0.00000  Uiso   1.00
C99    C     0.63944   0.16758   0.33663   0.00000  Uiso   1.00
C100   C     0.36054   0.16457   0.16376   0.00000  Uiso   1.00
C101   C     0.62463   0.16725   0.38752   0.00000  Uiso   1.00
C102   C     0.37535   0.15550   0.11471   0.00000  Uiso   1.00
C103   C     0.63945   0.17135   0.46215   0.00000  Uiso   1.00
C104   C     0.36574   0.12080   0.04881   0.00000  Uiso   1.00
C105   C     0.65676   0.17389   0.41436   0.00000  Uiso   1.00
C106   C     0.34742   0.13119   0.09453   0.00000  Uiso   1.00
C107   C     0.57620   0.15952   0.40987   0.00000  Uiso   1.00
C108   C     0.42201   0.16566   0.08952   0.00000  Uiso   1.00
C109   C     0.55981   0.15292   0.45754   0.00000  Uiso   1.00
C110   C     0.44358   0.14739   0.04782   0.00000  Uiso   1.00
C111   C     0.59162   0.16129   0.48369   0.00000  Uiso   1.00
C112   C     0.41365   0.12873   0.02543   0.00000  Uiso   1.00
C113   C     0.51177   0.14093   0.48013   0.00000  Uiso   1.00
C114   C     0.49398   0.14768   0.02770   0.00000  Uiso   1.00
Cu115  Cu    0.38022   0.16667   0.25000   0.00000  Uiso   1.00
Cu116  Cu    0.61978   0.16666   0.25000   0.00000  Uiso   1.00
H117   H     0.60101   0.16278   0.05118   0.00000  Uiso   1.00
H118   H     0.40972   0.09951   0.46497   0.00000  Uiso   1.00
H119   H     0.44258   0.18572   0.10412   0.00000  Uiso   1.00
H120   H     0.55091   0.15971   0.38966   0.00000  Uiso   1.00
H121   H     0.66346   0.17727   0.48284   0.00000  Uiso   1.00
H122   H     0.34370   0.10396   0.03242   0.00000  Uiso   1.00
H123   H     0.59654   0.03790   0.29785   0.00000  Uiso   1.00
H124   H     0.40331   0.29545   0.20159   0.00000  Uiso   1.00
H125   H     0.59568   0.29542   0.29751   0.00000  Uiso   1.00
H126   H     0.40387   0.03796   0.20142   0.00000  Uiso   1.00
H127   H     0.53551   0.11300   0.29197   0.00000  Uiso   1.00
H128   H     0.46448   0.22071   0.20851   0.00000  Uiso   1.00
N129   N     0.45069   0.16668   0.24999   0.00000  Uiso   1.00
N130   N     0.54931   0.16666   0.25001   0.00000  Uiso   1.00
O131   O     0.37291   0.10655   0.25000   0.00000  Uiso   1.00
O132   O     0.62709   0.22678   0.25000   0.00000  Uiso   1.00
O133   O     0.62706   0.10654   0.25000   0.00000  Uiso   1.00
O134   O     0.37294   0.22679   0.24999   0.00000  Uiso   1.00
O135   O     0.35186   0.16668   0.31491   0.00000  Uiso   1.00
O136   O     0.64814   0.16666   0.18508   0.00000  Uiso   1.00
O137   O     0.60600   0.16667   0.31492   0.00000  Uiso   1.00
O138   O     0.39400   0.16667   0.18508   0.00000  Uiso   1.00
C139   C     0.63365   0.11324   0.12155   0.00000  Uiso   1.00
H140   H     0.63850   0.09504   0.15202   0.00000  Uiso   1.00
H141   H     0.60685   0.13864   0.13240   0.00000  Uiso   1.00
H142   H     0.61974   0.09170   0.10116   0.00000  Uiso   1.00
C143   C     0.37520   0.18565   0.39382   0.00000  Uiso   1.00
H144   H     0.37721   0.21339   0.37022   0.00000  Uiso   1.00
H145   H     0.39289   0.19346   0.42036   0.00000  Uiso   1.00
H146   H     0.39603   0.15942   0.37540   0.00000  Uiso   1.00
C147   C     0.51659   0.13927   0.10426   0.00000  Uiso   1.00
H148   H     0.51796   0.16692   0.12403   0.00000  Uiso   1.00
H149   H     0.48198   0.12335   0.11802   0.00000  Uiso   1.00
H150   H     0.54309   0.11573   0.11005   0.00000  Uiso   1.00
C151   C     0.49972   0.09706   0.41539   0.00000  Uiso   1.00
H152   H     0.49368   0.11595   0.38588   0.00000  Uiso   1.00
H153   H     0.53816   0.08791   0.40940   0.00000  Uiso   1.00
H154   H     0.48028   0.06748   0.41823   0.00000  Uiso   1.00
S155   S     0.44259   0.08900   0.30012   0.00000  Uiso   1.00
O156   O     0.44450   0.05957   0.26312   0.00000  Uiso   1.00
O157   O     0.47017   0.06878   0.33103   0.00000  Uiso   1.00
O158   O     0.38568   0.09534   0.33175   0.00000  Uiso   1.00
H159   H     0.37364   0.06687   0.34048   0.00000  Uiso   1.00
S160   S     0.55920   0.24120   0.19385   0.00000  Uiso   1.00
O161   O     0.61060   0.23343   0.16859   0.00000  Uiso   1.00
O162   O     0.53368   0.25654   0.15899   0.00000  Uiso   1.00
O163   O     0.55617   0.27928   0.23006   0.00000  Uiso   1.00
H164   H     0.52144   0.28592   0.24189   0.00000  Uiso   1.00
C165   C     0.66712   0.08750   0.25009   0.00000  Uiso   1.00
C166   C     0.99957   0.24584   0.24972   0.00000  Uiso   1.00
C167   C     0.86102   0.15109   0.05375   0.00000  Uiso   1.00
C168   C     0.81457   0.12065   0.45839   0.00000  Uiso   1.00
C169   C     0.90905   0.15895   0.03126   0.00000  Uiso   1.00
C170   C     0.76598   0.11537   0.48130   0.00000  Uiso   1.00
C171   C     0.96046   0.02144   0.27668   0.00000  Uiso   1.00
C172   C     0.70606   0.31192   0.22276   0.00000  Uiso   1.00
C173   C     0.95976   0.31190   0.27626   0.00000  Uiso   1.00
C174   C     0.70666   0.02147   0.22302   0.00000  Uiso   1.00
C175   C     0.99916   0.29053   0.24919   0.00000  Uiso   1.00
C176   C     0.66743   0.04282   0.25036   0.00000  Uiso   1.00
C177   C     0.85334   0.13685   0.27379   0.00000  Uiso   1.00
C178   C     0.81323   0.19671   0.22661   0.00000  Uiso   1.00
C179   C     0.80437   0.13575   0.27370   0.00000  Uiso   1.00
C180   C     0.86256   0.19703   0.22549   0.00000  Uiso   1.00
C181   C     0.97277   0.16758   0.33663   0.00000  Uiso   1.00
C182   C     0.69388   0.16457   0.16376   0.00000  Uiso   1.00
C183   C     0.95797   0.16725   0.38752   0.00000  Uiso   1.00
C184   C     0.70868   0.15550   0.11471   0.00000  Uiso   1.00
C185   C     0.97279   0.17135   0.46215   0.00000  Uiso   1.00
C186   C     0.69908   0.12080   0.04881   0.00000  Uiso   1.00
C187   C     0.99010   0.17389   0.41436   0.00000  Uiso   1.00
C188   C     0.68075   0.13119   0.09453   0.00000  Uiso   1.00
C189   C     0.90953   0.15952   0.40987   0.00000  Uiso   1.00
C190   C     0.75534   0.16566   0.08952   0.00000  Uiso   1.00
C191   C     0.89315   0.15292   0.45754   0.00000  Uiso   1.00
C192   C     0.77691   0.14739   0.04782   0.00000  Uiso   1.00
C193   C     0.92496   0.16129   0.48369   0.00000  Uiso   1.00
C194   C     0.74698   0.12873   0.02543   0.00000  Uiso   1.00
C195   C     0.84510   0.14093   0.48013   0.00000  Uiso   1.00
C196   C     0.82731   0.14768   0.02770   0.00000  Uiso   1.00
Cu197  Cu    0.71355   0.16667   0.25000   0.00000  Uiso   1.00
Cu198  Cu    0.95311   0.16666   0.25000   0.00000  Uiso   1.00
H199   H     0.93435   0.16278   0.05118   0.00000  Uiso   1.00
H200   H     0.74306   0.09951   0.46497   0.00000  Uiso   1.00
H201   H     0.77591   0.18572   0.10412   0.00000  Uiso   1.00
H202   H     0.88425   0.15971   0.38966   0.00000  Uiso   1.00
H203   H     0.99680   0.17727   0.48284   0.00000  Uiso   1.00
H204   H     0.67703   0.10396   0.03242   0.00000  Uiso   1.00
H205   H     0.92987   0.03790   0.29785   0.00000  Uiso   1.00
H206   H     0.73664   0.29545   0.20159   0.00000  Uiso   1.00
H207   H     0.92901   0.29542   0.29751   0.00000  Uiso   1.00
H208   H     0.73720   0.03796   0.20142   0.00000  Uiso   1.00
H209   H     0.86884   0.11300   0.29197   0.00000  Uiso   1.00
H210   H     0.79781   0.22071   0.20851   0.00000  Uiso   1.00
N211   N     0.78403   0.16668   0.24999   0.00000  Uiso   1.00
N212   N     0.88264   0.16666   0.25001   0.00000  Uiso   1.00
O213   O     0.70625   0.10655   0.25000   0.00000  Uiso   1.00
O214   O     0.96042   0.22678   0.25000   0.00000  Uiso   1.00
O215   O     0.96039   0.10654   0.25000   0.00000  Uiso   1.00
O216   O     0.70628   0.22679   0.24999   0.00000  Uiso   1.00
O217   O     0.68519   0.16668   0.31491   0.00000  Uiso   1.00
O218   O     0.98148   0.16666   0.18508   0.00000  Uiso   1.00
O219   O     0.93933   0.16667   0.31492   0.00000  Uiso   1.00
O220   O     0.72733   0.16667   0.18508   0.00000  Uiso   1.00
C221   C     0.96698   0.11324   0.12155   0.00000  Uiso   1.00
H222   H     0.97183   0.09504   0.15202   0.00000  Uiso   1.00
H223   H     0.94018   0.13864   0.13240   0.00000  Uiso   1.00
H224   H     0.95307   0.09170   0.10116   0.00000  Uiso   1.00
C225   C     0.70853   0.18565   0.39382   0.00000  Uiso   1.00
H226   H     0.71054   0.21339   0.37022   0.00000  Uiso   1.00
H227   H     0.72622   0.19346   0.42036   0.00000  Uiso   1.00
H228   H     0.72936   0.15942   0.37540   0.00000  Uiso   1.00
C229   C     0.84992   0.13927   0.10426   0.00000  Uiso   1.00
H230   H     0.85129   0.16692   0.12403   0.00000  Uiso   1.00
H231   H     0.81531   0.12335   0.11802   0.00000  Uiso   1.00
H232   H     0.87642   0.11573   0.11005   0.00000  Uiso   1.00
C233   C     0.83305   0.09706   0.41539   0.00000  Uiso   1.00
H234   H     0.82701   0.11595   0.38588   0.00000  Uiso   1.00
H235   H     0.87150   0.08791   0.40940   0.00000  Uiso   1.00
H236   H     0.81362   0.06748   0.41823   0.00000  Uiso   1.00
S237   S     0.77593   0.08900   0.30012   0.00000  Uiso   1.00
O238   O     0.77783   0.05957   0.26312   0.00000  Uiso   1.00
O239   O     0.80350   0.06878   0.33103   0.00000  Uiso   1.00
O240   O     0.71901   0.09534   0.33175   0.00000  Uiso   1.00
H241   H     0.70697   0.06687   0.34048   0.00000  Uiso   1.00
S242   S     0.89254   0.24120   0.19385   0.00000  Uiso   1.00
O243   O     0.94394   0.23343   0.16859   0.00000  Uiso   1.00
O244   O     0.86701   0.25654   0.15899   0.00000  Uiso   1.00
O245   O     0.88950   0.27928   0.23006   0.00000  Uiso   1.00
H246   H     0.85477   0.28592   0.24189   0.00000  Uiso   1.00
C247   C     0.00045   0.42084   0.25009   0.00000  Uiso   1.00
C248   C     0.33290   0.57917   0.24972   0.00000  Uiso   1.00
C249   C     0.19435   0.48443   0.05375   0.00000  Uiso   1.00
C250   C     0.14791   0.45399   0.45839   0.00000  Uiso   1.00
C251   C     0.24238   0.49228   0.03126   0.00000  Uiso   1.00
C252   C     0.09931   0.44870   0.48130   0.00000  Uiso   1.00
C253   C     0.29379   0.35477   0.27668   0.00000  Uiso   1.00
C254   C     0.03939   0.64525   0.22276   0.00000  Uiso   1.00
C255   C     0.29309   0.64523   0.27626   0.00000  Uiso   1.00
C256   C     0.03999   0.35480   0.22302   0.00000  Uiso   1.00
C257   C     0.33249   0.62386   0.24919   0.00000  Uiso   1.00
C258   C     0.00077   0.37615   0.25036   0.00000  Uiso   1.00
C259   C     0.18667   0.47018   0.27379   0.00000  Uiso   1.00
C260   C     0.14657   0.53004   0.22661   0.00000  Uiso   1.00
C261   C     0.13770   0.46909   0.27370   0.00000  Uiso   1.00
C262   C     0.19589   0.53036   0.22549   0.00000  Uiso   1.00
C263   C     0.30610   0.50091   0.33663   0.00000  Uiso   1.00
C264   C     0.02721   0.49790   0.16376   0.00000  Uiso   1.00
C265   C     0.29130   0.50058   0.38752   0.00000  Uiso   1.00
C266   C     0.04201   0.48884   0.11471   0.00000  Uiso   1.00
C267   C     0.30612   0.50468   0.46215   0.00000  Uiso   1.00
C268   C     0.03241   0.45414   0.04881   0.00000  Uiso   1.00
C269   C     0.32343   0.50722   0.41436   0.00000  Uiso   1.00
C270   C     0.01408   0.46452   0.09453   0.00000  Uiso   1.00
C271   C     0.24286   0.49285   0.40987   0.00000  Uiso   1.00
C272   C     0.08867   0.49899   0.08952   0.00000  Uiso   1.00
C273   C     0.22648   0.48626   0.45754   0.00000  Uiso   1.00
C274   C     0.11024   0.48073   0.04782   0.00000  Uiso   1.00
C275   C     0.25829   0.49463   0.48369   0.00000  Uiso   1.00
C276   C     0.08032   0.46206   0.02543   0.00000  Uiso   1.00
C277   C     0.17843   0.47427   0.48013   0.00000  Uiso   1.00
C278   C     0.16064   0.48102   0.02770   0.00000  Uiso   1.00
Cu279  Cu    0.04689   0.50001   0.25000   0.00000  Uiso   1.00
Cu280  Cu    0.28645   0.49999   0.25000   0.00000  Uiso   1.00
H281   H     0.26768   0.49611   0.05118   0.00000  Uiso   1.00
H282   H     0.07639   0.43284   0.46497   0.00000  Uiso   1.00
H283   H     0.10925   0.51905   0.10412   0.00000  Uiso   1.00
H284   H     0.21758   0.49305   0.38966   0.00000  Uiso   1.00
H285   H     0.33013   0.51060   0.48284   0.00000  Uiso   1.00
H286   H     0.01037   0.43729   0.03242   0.00000  Uiso   1.00
H287   H     0.26320   0.37123   0.29785   0.00000  Uiso   1.00
H288   H     0.06997   0.62879   0.20159   0.00000  Uiso   1.00
H289   H     0.26235   0.62875   0.29751   0.00000  Uiso   1.00
H290   H     0.07053   0.37130   0.20142   0.00000  Uiso   1.00
H291   H     0.20218   0.44633   0.29197   0.00000  Uiso   1.00
H292   H     0.13114   0.55405   0.20851   0.00000  Uiso   1.00
N293   N     0.11736   0.50001   0.24999   0.00000  Uiso   1.00
N294   N     0.21597   0.49999   0.25001   0.00000  Uiso   1.00
O295   O     0.03958   0.43989   0.25000   0.00000  Uiso   1.00
O296   O     0.29375   0.56011   0.25000   0.00000  Uiso   1.00
O297   O     0.29372   0.43988   0.25000   0.00000  Uiso   1.00
O298   O     0.03961   0.56012   0.24999   0.00000  Uiso   1.00
O299   O     0.01852   0.50001   0.31491   0.00000  Uiso   1.00
O300   O     0.31481   0.49999   0.18508   0.00000  Uiso   1.00
O301   O     0.27267   0.50000   0.31492   0.00000  Uiso   1.00
O302   O     0.06067   0.50000   0.18508   0.00000  Uiso   1.00
C303   C     0.30032   0.44658   0.12155   0.00000  Uiso   1.00
H304   H     0.30517   0.42837   0.15202   0.00000  Uiso   1.00
H305   H     0.27352   0.47197   0.13240   0.00000  Uiso   1.00
H306   H     0.28640   0.42503   0.10116   0.00000  Uiso   1.00
C307   C     0.04187   0.51898   0.39382   0.00000  Uiso   1.00
H308   H     0.04388   0.54672   0.37022   0.00000  Uiso   1.00
H309   H     0.05955   0.52680   0.42036   0.00000  Uiso   1.00
H310   H     0.06269   0.49275   0.37540   0.00000  Uiso   1.00
C311   C     0.18325   0.47260   0.10426   0.00000  Uiso   1.00
H312   H     0.18462   0.50025   0.12403   0.00000  Uiso   1.00
H313   H     0.14865   0.45669   0.11802   0.00000  Uiso   1.00
H314   H     0.20975   0.44907   0.11005   0.00000  Uiso   1.00
C315   C     0.16639   0.43039   0.41539   0.00000  Uiso   1.00
H316   H     0.16034   0.44929   0.38588   0.00000  Uiso   1.00
H317   H     0.20483   0.42124   0.40940   0.00000  Uiso   1.00
H318   H     0.14695   0.40081   0.41823   0.00000  Uiso   1.00
S319   S     0.10926   0.42233   0.30012   0.00000  Uiso   1.00
O320   O     0.11116   0.39290   0.26312   0.00000  Uiso   1.00
O321   O     0.13684   0.40211   0.33103   0.00000  Uiso   1.00
O322   O     0.05235   0.42868   0.33175   0.00000  Uiso   1.00
H323   H     0.04031   0.40020   0.34048   0.00000  Uiso   1.00
S324   S     0.22587   0.57453   0.19385   0.00000  Uiso   1.00
O325   O     0.27727   0.56676   0.16859   0.00000  Uiso   1.00
O326   O     0.20034   0.58987   0.15899   0.00000  Uiso   1.00
O327   O     0.22283   0.61262   0.23006   0.00000  Uiso   1.00
H328   H     0.18810   0.61926   0.24189   0.00000  Uiso   1.00
C329   C     0.33379   0.42084   0.25009   0.00000  Uiso   1.00
C330   C     0.66623   0.57917   0.24972   0.00000  Uiso   1.00
C331   C     0.52769   0.48443   0.05375   0.00000  Uiso   1.00
C332   C     0.48124   0.45399   0.45839   0.00000  Uiso   1.00
C333   C     0.57571   0.49228   0.03126   0.00000  Uiso   1.00
C334   C     0.43265   0.44870   0.48130   0.00000  Uiso   1.00
C335   C     0.62713   0.35477   0.27668   0.00000  Uiso   1.00
C336   C     0.37273   0.64525   0.22276   0.00000  Uiso   1.00
C337   C     0.62643   0.64523   0.27626   0.00000  Uiso   1.00
C338   C     0.37333   0.35480   0.22302   0.00000  Uiso   1.00
C339   C     0.66583   0.62386   0.24919   0.00000  Uiso   1.00
C340   C     0.33410   0.37615   0.25036   0.00000  Uiso   1.00
C341   C     0.52001   0.47018   0.27379   0.00000  Uiso   1.00
C342   C     0.47990   0.53004   0.22661   0.00000  Uiso   1.00
C343   C     0.47103   0.46909   0.27370   0.00000  Uiso   1.00
C344   C     0.52923   0.53036   0.22549   0.00000  Uiso   1.00
C345   C     0.63944   0.50091   0.33663   0.00000  Uiso   1.00
C346   C     0.36054   0.49790   0.16376   0.00000  Uiso   1.00
C347   C     0.62463   0.50058   0.38752   0.00000  Uiso   1.00
C348   C     0.37535   0.48884   0.11471   0.00000  Uiso   1.00
C349   C     0.63945   0.50468   0.46215   0.00000  Uiso   1.00
C350   C     0.36574   0.45414   0.04881   0.00000  Uiso   1.00
C351   C     0.65676   0.50722   0.41436   0.00000  Uiso   1.00
C352   C     0.34742   0.46452   0.09453   0.00000  Uiso   1.00
C353   C     0.57620   0.49285   0.40987   0.00000  Uiso   1.00
C354   C     0.42201   0.49899   0.08952   0.00000  Uiso   1.00
C355   C     0.55981   0.48626   0.45754   0.00000  Uiso   1.00
C356   C     0.44358   0.48073   0.04782   0.00000  Uiso   1.00
C357   C     0.59162   0.49463   0.48369   0.00000  Uiso   1.00
C358   C     0.41365   0.46206   0.02543   0.00000  Uiso   1.00
C359   C     0.51177   0.47427   0.48013   0.00000  Uiso   1.00
C360   C     0.49398   0.48102   0.02770   0.00000  Uiso   1.00
Cu361  Cu    0.38022   0.50001   0.25000   0.00000  Uiso   1.00
Cu362  Cu    0.61978   0.49999   0.25000   0.00000  Uiso   1.00
H363   H     0.60101   0.49611   0.05118   0.00000  Uiso   1.00
H364   H     0.40972   0.43284   0.46497   0.00000  Uiso   1.00
H365   H     0.44258   0.51905   0.10412   0.00000  Uiso   1.00
H366   H     0.55091   0.49305   0.38966   0.00000  Uiso   1.00
H367   H     0.66346   0.51060   0.48284   0.00000  Uiso   1.00
H368   H     0.34370   0.43729   0.03242   0.00000  Uiso   1.00
H369   H     0.59654   0.37123   0.29785   0.00000  Uiso   1.00
H370   H     0.40331   0.62879   0.20159   0.00000  Uiso   1.00
H371   H     0.59568   0.62875   0.29751   0.00000  Uiso   1.00
H372   H     0.40387   0.37130   0.20142   0.00000  Uiso   1.00
H373   H     0.53551   0.44633   0.29197   0.00000  Uiso   1.00
H374   H     0.46448   0.55405   0.20851   0.00000  Uiso   1.00
N375   N     0.45069   0.50001   0.24999   0.00000  Uiso   1.00
N376   N     0.54931   0.49999   0.25001   0.00000  Uiso   1.00
O377   O     0.37291   0.43989   0.25000   0.00000  Uiso   1.00
O378   O     0.62709   0.56011   0.25000   0.00000  Uiso   1.00
O379   O     0.62706   0.43988   0.25000   0.00000  Uiso   1.00
O380   O     0.37294   0.56012   0.24999   0.00000  Uiso   1.00
O381   O     0.35186   0.50001   0.31491   0.00000  Uiso   1.00
O382   O     0.64814   0.49999   0.18508   0.00000  Uiso   1.00
O383   O     0.60600   0.50000   0.31492   0.00000  Uiso   1.00
O384   O     0.39400   0.50000   0.18508   0.00000  Uiso   1.00
C385   C     0.63365   0.44658   0.12155   0.00000  Uiso   1.00
H386   H     0.63850   0.42837   0.15202   0.00000  Uiso   1.00
H387   H     0.60685   0.47197   0.13240   0.00000  Uiso   1.00
H388   H     0.61974   0.42503   0.10116   0.00000  Uiso   1.00
C389   C     0.37520   0.51898   0.39382   0.00000  Uiso   1.00
H390   H     0.37721   0.54672   0.37022   0.00000  Uiso   1.00
H391   H     0.39289   0.52680   0.42036   0.00000  Uiso   1.00
H392   H     0.39603   0.49275   0.37540   0.00000  Uiso   1.00
C393   C     0.51659   0.47260   0.10426   0.00000  Uiso   1.00
H394   H     0.51796   0.50025   0.12403   0.00000  Uiso   1.00
H395   H     0.48198   0.45669   0.11802   0.00000  Uiso   1.00
H396   H     0.54309   0.44907   0.11005   0.00000  Uiso   1.00
C397   C     0.49972   0.43039   0.41539   0.00000  Uiso   1.00
H398   H     0.49368   0.44929   0.38588   0.00000  Uiso   1.00
H399   H     0.53816   0.42124   0.40940   0.00000  Uiso   1.00
H400   H     0.48028   0.40081   0.41823   0.00000  Uiso   1.00
S401   S     0.44259   0.42233   0.30012   0.00000  Uiso   1.00
O402   O     0.44450   0.39290   0.26312   0.00000  Uiso   1.00
O403   O     0.47017   0.40211   0.33103   0.00000  Uiso   1.00
O404   O     0.38568   0.42868   0.33175   0.00000  Uiso   1.00
H405   H     0.37364   0.40020   0.34048   0.00000  Uiso   1.00
S406   S     0.55920   0.57453   0.19385   0.00000  Uiso   1.00
O407   O     0.61060   0.56676   0.16859   0.00000  Uiso   1.00
O408   O     0.53368   0.58987   0.15899   0.00000  Uiso   1.00
O409   O     0.55617   0.61262   0.23006   0.00000  Uiso   1.00
H410   H     0.52144   0.61926   0.24189   0.00000  Uiso   1.00
C411   C     0.66712   0.42084   0.25009   0.00000  Uiso   1.00
C412   C     0.99957   0.57917   0.24972   0.00000  Uiso   1.00
C413   C     0.86102   0.48443   0.05375   0.00000  Uiso   1.00
C414   C     0.81457   0.45399   0.45839   0.00000  Uiso   1.00
C415   C     0.90905   0.49228   0.03126   0.00000  Uiso   1.00
C416   C     0.76598   0.44870   0.48130   0.00000  Uiso   1.00
C417   C     0.96046   0.35477   0.27668   0.00000  Uiso   1.00
C418   C     0.70606   0.64525   0.22276   0.00000  Uiso   1.00
C419   C     0.95976   0.64523   0.27626   0.00000  Uiso   1.00
C420   C     0.70666   0.35480   0.22302   0.00000  Uiso   1.00
C421   C     0.99916   0.62386   0.24919   0.00000  Uiso   1.00
C422   C     0.66743   0.37615   0.25036   0.00000  Uiso   1.00
C423   C     0.85334   0.47018   0.27379   0.00000  Uiso   1.00
C424   C     0.81323   0.53004   0.22661   0.00000  Uiso   1.00
C425   C     0.80437   0.46909   0.27370   0.00000  Uiso   1.00
C426   C     0.86256   0.53036   0.22549   0.00000  Uiso   1.00
C427   C     0.97277   0.50091   0.33663   0.00000  Uiso   1.00
C428   C     0.69388   0.49790   0.16376   0.00000  Uiso   1.00
C429   C     0.95797   0.50058   0.38752   0.00000  Uiso   1.00
C430   C     0.70868   0.48884   0.11471   0.00000  Uiso   1.00
C431   C     0.97279   0.50468   0.46215   0.00000  Uiso   1.00
C432   C     0.69908   0.45414   0.04881   0.00000  Uiso   1.00
C433   C     0.99010   0.50722   0.41436   0.00000  Uiso   1.00
C434   C     0.68075   0.46452   0.09453   0.00000  Uiso   1.00
C435   C     0.90953   0.49285   0.40987   0.00000  Uiso   1.00
C436   C     0.75534   0.49899   0.08952   0.00000  Uiso   1.00
C437   C     0.89315   0.48626   0.45754   0.00000  Uiso   1.00
C438   C     0.77691   0.48073   0.04782   0.00000  Uiso   1.00
C439   C     0.92496   0.49463   0.48369   0.00000  Uiso   1.00
C440   C     0.74698   0.46206   0.02543   0.00000  Uiso   1.00
C441   C     0.84510   0.47427   0.48013   0.00000  Uiso   1.00
C442   C     0.82731   0.48102   0.02770   0.00000  Uiso   1.00
Cu443  Cu    0.71355   0.50001   0.25000   0.00000  Uiso   1.00
Cu444  Cu    0.95311   0.49999   0.25000   0.00000  Uiso   1.00
H445   H     0.93435   0.49611   0.05118   0.00000  Uiso   1.00
H446   H     0.74306   0.43284   0.46497   0.00000  Uiso   1.00
H447   H     0.77591   0.51905   0.10412   0.00000  Uiso   1.00
H448   H     0.88425   0.49305   0.38966   0.00000  Uiso   1.00
H449   H     0.99680   0.51060   0.48284   0.00000  Uiso   1.00
H450   H     0.67703   0.43729   0.03242   0.00000  Uiso   1.00
H451   H     0.92987   0.37123   0.29785   0.00000  Uiso   1.00
H452   H     0.73664   0.62879   0.20159   0.00000  Uiso   1.00
H453   H     0.92901   0.62875   0.29751   0.00000  Uiso   1.00
H454   H     0.73720   0.37130   0.20142   0.00000  Uiso   1.00
H455   H     0.86884   0.44633   0.29197   0.00000  Uiso   1.00
H456   H     0.79781   0.55405   0.20851   0.00000  Uiso   1.00
N457   N     0.78403   0.50001   0.24999   0.00000  Uiso   1.00
N458   N     0.88264   0.49999   0.25001   0.00000  Uiso   1.00
O459   O     0.70625   0.43989   0.25000   0.00000  Uiso   1.00
O460   O     0.96042   0.56011   0.25000   0.00000  Uiso   1.00
O461   O     0.96039   0.43988   0.25000   0.00000  Uiso   1.00
O462   O     0.70628   0.56012   0.24999   0.00000  Uiso   1.00
O463   O     0.68519   0.50001   0.31491   0.00000  Uiso   1.00
O464   O     0.98148   0.49999   0.18508   0.00000  Uiso   1.00
O465   O     0.93933   0.50000   0.31492   0.00000  Uiso   1.00
O466   O     0.72733   0.50000   0.18508   0.00000  Uiso   1.00
C467   C     0.96698   0.44658   0.12155   0.00000  Uiso   1.00
H468   H     0.97183   0.42837   0.15202   0.00000  Uiso   1.00
H469   H     0.94018   0.47197   0.13240   0.00000  Uiso   1.00
H470   H     0.95307   0.42503   0.10116   0.00000  Uiso   1.00
C471   C     0.70853   0.51898   0.39382   0.00000  Uiso   1.00
H472   H     0.71054   0.54672   0.37022   0.00000  Uiso   1.00
H473   H     0.72622   0.52680   0.42036   0.00000  Uiso   1.00
H474   H     0.72936   0.49275   0.37540   0.00000  Uiso   1.00
C475   C     0.84992   0.47260   0.10426   0.00000  Uiso   1.00
H476   H     0.85129   0.50025   0.12403   0.00000  Uiso   1.00
H477   H     0.81531   0.45669   0.11802   0.00000  Uiso   1.00
H478   H     0.87642   0.44907   0.11005   0.00000  Uiso   1.00
C479   C     0.83305   0.43039   0.41539   0.00000  Uiso   1.00
H480   H     0.82701   0.44929   0.38588   0.00000  Uiso   1.00
H481   H     0.87150   0.42124   0.40940   0.00000  Uiso   1.00
H482   H     0.81362   0.40081   0.41823   0.00000  Uiso   1.00
S483   S     0.77593   0.42233   0.30012   0.00000  Uiso   1.00
O484   O     0.77783   0.39290   0.26312   0.00000  Uiso   1.00
O485   O     0.80350   0.40211   0.33103   0.00000  Uiso   1.00
O486   O     0.71901   0.42868   0.33175   0.00000  Uiso   1.00
H487   H     0.70697   0.40020   0.34048   0.00000  Uiso   1.00
S488   S     0.89254   0.57453   0.19385   0.00000  Uiso   1.00
O489   O     0.94394   0.56676   0.16859   0.00000  Uiso   1.00
O490   O     0.86701   0.58987   0.15899   0.00000  Uiso   1.00
O491   O     0.88950   0.61262   0.23006   0.00000  Uiso   1.00
H492   H     0.85477   0.61926   0.24189   0.00000  Uiso   1.00
C493   C     0.00045   0.75417   0.25009   0.00000  Uiso   1.00
C494   C     0.33290   0.91250   0.24972   0.00000  Uiso   1.00
C495   C     0.19435   0.81776   0.05375   0.00000  Uiso   1.00
C496   C     0.14791   0.78732   0.45839   0.00000  Uiso   1.00
C497   C     0.24238   0.82561   0.03126   0.00000  Uiso   1.00
C498   C     0.09931   0.78203   0.48130   0.00000  Uiso   1.00
C499   C     0.29379   0.68811   0.27668   0.00000  Uiso   1.00
C500   C     0.03939   0.97858   0.22276   0.00000  Uiso   1.00
C501   C     0.29309   0.97857   0.27626   0.00000  Uiso   1.00
C502   C     0.03999   0.68813   0.22302   0.00000  Uiso   1.00
C503   C     0.33249   0.95719   0.24919   0.00000  Uiso   1.00
C504   C     0.00077   0.70949   0.25036   0.00000  Uiso   1.00
C505   C     0.18667   0.80352   0.27379   0.00000  Uiso   1.00
C506   C     0.14657   0.86337   0.22661   0.00000  Uiso   1.00
C507   C     0.13770   0.80242   0.27370   0.00000  Uiso   1.00
C508   C     0.19589   0.86369   0.22549   0.00000  Uiso   1.00
C509   C     0.30610   0.83425   0.33663   0.00000  Uiso   1.00
C510   C     0.02721   0.83124   0.16376   0.00000  Uiso   1.00
C511   C     0.29130   0.83391   0.38752   0.00000  Uiso   1.00
C512   C     0.04201   0.82217   0.11471   0.00000  Uiso   1.00
C513   C     0.30612   0.83801   0.46215   0.00000  Uiso   1.00
C514   C     0.03241   0.78747   0.04881   0.00000  Uiso   1.00
C515   C     0.32343   0.84055   0.41436   0.00000  Uiso   1.00
C516   C     0.01408   0.79786   0.09453   0.00000  Uiso   1.00
C517   C     0.24286   0.82618   0.40987   0.00000  Uiso   1.00
C518   C     0.08867   0.83232   0.08952   0.00000  Uiso   1.00
C519   C     0.22648   0.81959   0.45754   0.00000  Uiso   1.00
C520   C     0.11024   0.81406   0.04782   0.00000  Uiso   1.00
C521   C     0.25829   0.82796   0.48369   0.00000  Uiso   1.00
C522   C     0.08032   0.79539   0.02543   0.00000  Uiso   1.00
C523   C     0.17843   0.80760   0.48013   0.00000  Uiso   1.00
C524   C     0.16064   0.81435   0.02770   0.00000  Uiso   1.00
Cu525  Cu    0.04689   0.83334   0.25000   0.00000  Uiso   1.00
Cu526  Cu    0.28645   0.83333   0.25000   0.00000  Uiso   1.00
H527   H     0.26768   0.82944   0.05118   0.00000  Uiso   1.00
H528   H     0.07639   0.76618   0.46497   0.00000  Uiso   1.00
H529   H     0.10925   0.85239   0.10412   0.00000  Uiso   1.00
H530   H     0.21758   0.82638   0.38966   0.00000  Uiso   1.00
H531   H     0.33013   0.84394   0.48284   0.00000  Uiso   1.00
H532   H     0.01037   0.77063   0.03242   0.00000  Uiso   1.00
H533   H     0.26320   0.70456   0.29785   0.00000  Uiso   1.00
H534   H     0.06997   0.96212   0.20159   0.00000  Uiso   1.00
H535   H     0.26235   0.96208   0.29751   0.00000  Uiso   1.00
H536   H     0.07053   0.70463   0.20142   0.00000  Uiso   1.00
H537   H     0.20218   0.77966   0.29197   0.00000  Uiso   1.00
H538   H     0.13114   0.88738   0.20851   0.00000  Uiso   1.00
N539   N     0.11736   0.83334   0.24999   0.00000  Uiso   1.00
N540   N     0.21597   0.83332   0.25001   0.00000  Uiso   1.00
O541   O     0.03958   0.77322   0.25000   0.00000  Uiso   1.00
O542   O     0.29375   0.89345   0.25000   0.00000  Uiso   1.00
O543   O     0.29372   0.77321   0.25000   0.00000  Uiso   1.00
O544   O     0.03961   0.89346   0.24999   0.00000  Uiso   1.00
O545   O     0.01852   0.83334   0.31491   0.00000  Uiso   1.00
O546   O     0.31481   0.83332   0.18508   0.00000  Uiso   1.00
O547   O     0.27267   0.83333   0.31492   0.00000  Uiso   1.00
O548   O     0.06067   0.83333   0.18508   0.00000  Uiso   1.00
C549   C     0.30032   0.77991   0.12155   0.00000  Uiso   1.00
H550   H     0.30517   0.76170   0.15202   0.00000  Uiso   1.00
H551   H     0.27352   0.80531   0.13240   0.00000  Uiso   1.00
H552   H     0.28640   0.75836   0.10116   0.00000  Uiso   1.00
C553   C     0.04187   0.85232   0.39382   0.00000  Uiso   1.00
H554   H     0.04388   0.88006   0.37022   0.00000  Uiso   1.00
H555   H     0.05955   0.86013   0.42036   0.00000  Uiso   1.00
H556   H     0.06269   0.82608   0.37540   0.00000  Uiso   1.00
C557   C     0.18325   0.80593   0.10426   0.00000  Uiso   1.00
H558   H     0.18462   0.83359   0.12403   0.00000  Uiso   1.00
H559   H     0.14865   0.79002   0.11802   0.00000  Uiso   1.00
H560   H     0.20975   0.78240   0.11005   0.00000  Uiso   1.00
C561   C     0.16639   0.76372   0.41539   0.00000  Uiso   1.00
H562   H     0.16034   0.78262   0.38588   0.00000  Uiso   1.00
H563   H     0.20483   0.75458   0.40940   0.00000  Uiso   1.00
H564   H     0.14695   0.73415   0.41823   0.00000  Uiso   1.00
S565   S     0.10926   0.75567   0.30012   0.00000  Uiso   1.00
O566   O     0.11116   0.72623   0.26312   0.00000  Uiso   1.00
O567   O     0.13684   0.73544   0.33103   0.00000  Uiso   1.00
O568   O     0.05235   0.76201   0.33175   0.00000  Uiso   1.00
H569   H     0.04031   0.73353   0.34048   0.00000  Uiso   1.00
S570   S     0.22587   0.90786   0.19385   0.00000  Uiso   1.00
O571   O     0.27727   0.90010   0.16859   0.00000  Uiso   1.00
O572   O     0.20034   0.92321   0.15899   0.00000  Uiso   1.00
O573   O     0.22283   0.94595   0.23006   0.00000  Uiso   1.00
H574   H     0.18810   0.95259   0.24189   0.00000  Uiso   1.00
C575   C     0.33379   0.75417   0.25009   0.00000  Uiso   1.00
C576   C     0.66623   0.91250   0.24972   0.00000  Uiso   1.00
C577   C     0.52769   0.81776   0.05375   0.00000  Uiso   1.00
C578   C     0.48124   0.78732   0.45839   0.00000  Uiso   1.00
C579   C     0.57571   0.82561   0.03126   0.00000  Uiso   1.00
C580   C     0.43265   0.78203   0.48130   0.00000  Uiso   1.00
C581   C     0.62713   0.68811   0.27668   0.00000  Uiso   1.00
C582   C     0.37273   0.97858   0.22276   0.00000  Uiso   1.00
C583   C     0.62643   0.97857   0.27626   0.00000  Uiso   1.00
C584   C     0.37333   0.68813   0.22302   0.00000  Uiso   1.00
C585   C     0.66583   0.95719   0.24919   0.00000  Uiso   1.00
C586   C     0.33410   0.70949   0.25036   0.00000  Uiso   1.00
C587   C     0.52001   0.80352   0.27379   0.00000  Uiso   1.00
C588   C     0.47990   0.86337   0.22661   0.00000  Uiso   1.00
C589   C     0.47103   0.80242   0.27370   0.00000  Uiso   1.00
C590   C     0.52923   0.86369   0.22549   0.00000  Uiso   1.00
C591   C     0.63944   0.83425   0.33663   0.00000  Uiso   1.00
C592   C     0.36054   0.83124   0.16376   0.00000  Uiso   1.00
C593   C     0.62463   0.83391   0.38752   0.00000  Uiso   1.00
C594   C     0.37535   0.82217   0.11471   0.00000  Uiso   1.00
C595   C     0.63945   0.83801   0.46215   0.00000  Uiso   1.00
C596   C     0.36574   0.78747   0.04881   0.00000  Uiso   1.00
C597   C     0.65676   0.84055   0.41436   0.00000  Uiso   1.00
C598   C     0.34742   0.79786   0.09453   0.00000  Uiso   1.00
C599   C     0.57620   0.82618   0.40987   0.00000  Uiso   1.00
C600   C     0.42201   0.83232   0.08952   0.00000  Uiso   1.00
C601   C     0.55981   0.81959   0.45754   0.00000  Uiso   1.00
C602   C     0.44358   0.81406   0.04782   0.00000  Uiso   1.00
C603   C     0.59162   0.82796   0.48369   0.00000  Uiso   1.00
C604   C     0.41365   0.79539   0.02543   0.00000  Uiso   1.00
C605   C     0.51177   0.80760   0.48013   0.00000  Uiso   1.00
C606   C     0.49398   0.81435   0.02770   0.00000  Uiso   1.00
Cu607  Cu    0.38022   0.83334   0.25000   0.00000  Uiso   1.00
Cu608  Cu    0.61978   0.83333   0.25000   0.00000  Uiso   1.00
H609   H     0.60101   0.82944   0.05118   0.00000  Uiso   1.00
H610   H     0.40972   0.76618   0.46497   0.00000  Uiso   1.00
H611   H     0.44258   0.85239   0.10412   0.00000  Uiso   1.00
H612   H     0.55091   0.82638   0.38966   0.00000  Uiso   1.00
H613   H     0.66346   0.84394   0.48284   0.00000  Uiso   1.00
H614   H     0.34370   0.77063   0.03242   0.00000  Uiso   1.00
H615   H     0.59654   0.70456   0.29785   0.00000  Uiso   1.00
H616   H     0.40331   0.96212   0.20159   0.00000  Uiso   1.00
H617   H     0.59568   0.96208   0.29751   0.00000  Uiso   1.00
H618   H     0.40387   0.70463   0.20142   0.00000  Uiso   1.00
H619   H     0.53551   0.77966   0.29197   0.00000  Uiso   1.00
H620   H     0.46448   0.88738   0.20851   0.00000  Uiso   1.00
N621   N     0.45069   0.83334   0.24999   0.00000  Uiso   1.00
N622   N     0.54931   0.83332   0.25001   0.00000  Uiso   1.00
O623   O     0.37291   0.77322   0.25000   0.00000  Uiso   1.00
O624   O     0.62709   0.89345   0.25000   0.00000  Uiso   1.00
O625   O     0.62706   0.77321   0.25000   0.00000  Uiso   1.00
O626   O     0.37294   0.89346   0.24999   0.00000  Uiso   1.00
O627   O     0.35186   0.83334   0.31491   0.00000  Uiso   1.00
O628   O     0.64814   0.83332   0.18508   0.00000  Uiso   1.00
O629   O     0.60600   0.83333   0.31492   0.00000  Uiso   1.00
O630   O     0.39400   0.83333   0.18508   0.00000  Uiso   1.00
C631   C     0.63365   0.77991   0.12155   0.00000  Uiso   1.00
H632   H     0.63850   0.76170   0.15202   0.00000  Uiso   1.00
H633   H     0.60685   0.80531   0.13240   0.00000  Uiso   1.00
H634   H     0.61974   0.75836   0.10116   0.00000  Uiso   1.00
C635   C     0.37520   0.85232   0.39382   0.00000  Uiso   1.00
H636   H     0.37721   0.88006   0.37022   0.00000  Uiso   1.00
H637   H     0.39289   0.86013   0.42036   0.00000  Uiso   1.00
H638   H     0.39603   0.82608   0.37540   0.00000  Uiso   1.00
C639   C     0.51659   0.80593   0.10426   0.00000  Uiso   1.00
H640   H     0.51796   0.83359   0.12403   0.00000  Uiso   1.00
H641   H     0.48198   0.79002   0.11802   0.00000  Uiso   1.00
H642   H     0.54309   0.78240   0.11005   0.00000  Uiso   1.00
C643   C     0.49972   0.76372   0.41539   0.00000  Uiso   1.00
H644   H     0.49368   0.78262   0.38588   0.00000  Uiso   1.00
H645   H     0.53816   0.75458   0.40940   0.00000  Uiso   1.00
H646   H     0.48028   0.73415   0.41823   0.00000  Uiso   1.00
S647   S     0.44259   0.75567   0.30012   0.00000  Uiso   1.00
O648   O     0.44450   0.72623   0.26312   0.00000  Uiso   1.00
O649   O     0.47017   0.73544   0.33103   0.00000  Uiso   1.00
O650   O     0.38568   0.76201   0.33175   0.00000  Uiso   1.00
H651   H     0.37364   0.73353   0.34048   0.00000  Uiso   1.00
S652   S     0.55920   0.90786   0.19385   0.00000  Uiso   1.00
O653   O     0.61060   0.90010   0.16859   0.00000  Uiso   1.00
O654   O     0.53368   0.92321   0.15899   0.00000  Uiso   1.00
O655   O     0.55617   0.94595   0.23006   0.00000  Uiso   1.00
H656   H     0.52144   0.95259   0.24189   0.00000  Uiso   1.00
C657   C     0.66712   0.75417   0.25009   0.00000  Uiso   1.00
C658   C     0.99957   0.91250   0.24972   0.00000  Uiso   1.00
C659   C     0.86102   0.81776   0.05375   0.00000  Uiso   1.00
C660   C     0.81457   0.78732   0.45839   0.00000  Uiso   1.00
C661   C     0.90905   0.82561   0.03126   0.00000  Uiso   1.00
C662   C     0.76598   0.78203   0.48130   0.00000  Uiso   1.00
C663   C     0.96046   0.68811   0.27668   0.00000  Uiso   1.00
C664   C     0.70606   0.97858   0.22276   0.00000  Uiso   1.00
C665   C     0.95976   0.97857   0.27626   0.00000  Uiso   1.00
C666   C     0.70666   0.68813   0.22302   0.00000  Uiso   1.00
C667   C     0.99916   0.95719   0.24919   0.00000  Uiso   1.00
C668   C     0.66743   0.70949   0.25036   0.00000  Uiso   1.00
C669   C     0.85334   0.80352   0.27379   0.00000  Uiso   1.00
C670   C     0.81323   0.86337   0.22661   0.00000  Uiso   1.00
C671   C     0.80437   0.80242   0.27370   0.00000  Uiso   1.00
C672   C     0.86256   0.86369   0.22549   0.00000  Uiso   1.00
C673   C     0.97277   0.83425   0.33663   0.00000  Uiso   1.00
C674   C     0.69388   0.83124   0.16376   0.00000  Uiso   1.00
C675   C     0.95797   0.83391   0.38752   0.00000  Uiso   1.00
C676   C     0.70868   0.82217   0.11471   0.00000  Uiso   1.00
C677   C     0.97279   0.83801   0.46215   0.00000  Uiso   1.00
C678   C     0.69908   0.78747   0.04881   0.00000  Uiso   1.00
C679   C     0.99010   0.84055   0.41436   0.00000  Uiso   1.00
C680   C     0.68075   0.79786   0.09453   0.00000  Uiso   1.00
C681   C     0.90953   0.82618   0.40987   0.00000  Uiso   1.00
C682   C     0.75534   0.83232   0.08952   0.00000  Uiso   1.00
C683   C     0.89315   0.81959   0.45754   0.00000  Uiso   1.00
C684   C     0.77691   0.81406   0.04782   0.00000  Uiso   1.00
C685   C     0.92496   0.82796   0.48369   0.00000  Uiso   1.00
C686   C     0.74698   0.79539   0.02543   0.00000  Uiso   1.00
C687   C     0.84510   0.80760   0.48013   0.00000  Uiso   1.00
C688   C     0.82731   0.81435   0.02770   0.00000  Uiso   1.00
Cu689  Cu    0.71355   0.83334   0.25000   0.00000  Uiso   1.00
Cu690  Cu    0.95311   0.83333   0.25000   0.00000  Uiso   1.00
H691   H     0.93435   0.82944   0.05118   0.00000  Uiso   1.00
H692   H     0.74306   0.76618   0.46497   0.00000  Uiso   1.00
H693   H     0.77591   0.85239   0.10412   0.00000  Uiso   1.00
H694   H     0.88425   0.82638   0.38966   0.00000  Uiso   1.00
H695   H     0.99680   0.84394   0.48284   0.00000  Uiso   1.00
H696   H     0.67703   0.77063   0.03242   0.00000  Uiso   1.00
H697   H     0.92987   0.70456   0.29785   0.00000  Uiso   1.00
H698   H     0.73664   0.96212   0.20159   0.00000  Uiso   1.00
H699   H     0.92901   0.96208   0.29751   0.00000  Uiso   1.00
H700   H     0.73720   0.70463   0.20142   0.00000  Uiso   1.00
H701   H     0.86884   0.77966   0.29197   0.00000  Uiso   1.00
H702   H     0.79781   0.88738   0.20851   0.00000  Uiso   1.00
N703   N     0.78403   0.83334   0.24999   0.00000  Uiso   1.00
N704   N     0.88264   0.83332   0.25001   0.00000  Uiso   1.00
O705   O     0.70625   0.77322   0.25000   0.00000  Uiso   1.00
O706   O     0.96042   0.89345   0.25000   0.00000  Uiso   1.00
O707   O     0.96039   0.77321   0.25000   0.00000  Uiso   1.00
O708   O     0.70628   0.89346   0.24999   0.00000  Uiso   1.00
O709   O     0.68519   0.83334   0.31491   0.00000  Uiso   1.00
O710   O     0.98148   0.83332   0.18508   0.00000  Uiso   1.00
O711   O     0.93933   0.83333   0.31492   0.00000  Uiso   1.00
O712   O     0.72733   0.83333   0.18508   0.00000  Uiso   1.00
C713   C     0.96698   0.77991   0.12155   0.00000  Uiso   1.00
H714   H     0.97183   0.76170   0.15202   0.00000  Uiso   1.00
H715   H     0.94018   0.80531   0.13240   0.00000  Uiso   1.00
H716   H     0.95307   0.75836   0.10116   0.00000  Uiso   1.00
C717   C     0.70853   0.85232   0.39382   0.00000  Uiso   1.00
H718   H     0.71054   0.88006   0.37022   0.00000  Uiso   1.00
H719   H     0.72622   0.86013   0.42036   0.00000  Uiso   1.00
H720   H     0.72936   0.82608   0.37540   0.00000  Uiso   1.00
C721   C     0.84992   0.80593   0.10426   0.00000  Uiso   1.00
H722   H     0.85129   0.83359   0.12403   0.00000  Uiso   1.00
H723   H     0.81531   0.79002   0.11802   0.00000  Uiso   1.00
H724   H     0.87642   0.78240   0.11005   0.00000  Uiso   1.00
C725   C     0.83305   0.76372   0.41539   0.00000  Uiso   1.00
H726   H     0.82701   0.78262   0.38588   0.00000  Uiso   1.00
H727   H     0.87150   0.75458   0.40940   0.00000  Uiso   1.00
H728   H     0.81362   0.73415   0.41823   0.00000  Uiso   1.00
S729   S     0.77593   0.75567   0.30012   0.00000  Uiso   1.00
O730   O     0.77783   0.72623   0.26312   0.00000  Uiso   1.00
O731   O     0.80350   0.73544   0.33103   0.00000  Uiso   1.00
O732   O     0.71901   0.76201   0.33175   0.00000  Uiso   1.00
H733   H     0.70697   0.73353   0.34048   0.00000  Uiso   1.00
S734   S     0.89254   0.90786   0.19385   0.00000  Uiso   1.00
O735   O     0.94394   0.90010   0.16859   0.00000  Uiso   1.00
O736   O     0.86701   0.92321   0.15899   0.00000  Uiso   1.00
O737   O     0.88950   0.94595   0.23006   0.00000  Uiso   1.00
H738   H     0.85477   0.95259   0.24189   0.00000  Uiso   1.00
C739   C     0.00045   0.08750   0.75009   0.00000  Uiso   1.00
C740   C     0.33290   0.24584   0.74972   0.00000  Uiso   1.00
C741   C     0.19435   0.15109   0.55375   0.00000  Uiso   1.00
C742   C     0.14791   0.12065   0.95839   0.00000  Uiso   1.00
C743   C     0.24238   0.15895   0.53126   0.00000  Uiso   1.00
C744   C     0.09931   0.11537   0.98130   0.00000  Uiso   1.00
C745   C     0.29379   0.02144   0.77668   0.00000  Uiso   1.00
C746   C     0.03939   0.31192   0.72276   0.00000  Uiso   1.00
C747   C     0.29309   0.31190   0.77626   0.00000  Uiso   1.00
C748   C     0.03999   0.02147   0.72302   0.00000  Uiso   1.00
C749   C     0.33249   0.29053   0.74919   0.00000  Uiso   1.00
C750   C     0.00077   0.04282   0.75036   0.00000  Uiso   1.00
C751   C     0.18667   0.13685   0.77379   0.00000  Uiso   1.00
C752   C     0.14657   0.19671   0.72661   0.00000  Uiso   1.00
C753   C     0.13770   0.13575   0.77370   0.00000  Uiso   1.00
C754   C     0.19589   0.19703   0.72549   0.00000  Uiso   1.00
C755   C     0.30610   0.16758   0.83663   0.00000  Uiso   1.00
C756   C     0.02721   0.16457   0.66376   0.00000  Uiso   1.00
C757   C     0.29130   0.16725   0.88752   0.00000  Uiso   1.00
C758   C     0.04201   0.15550   0.61471   0.00000  Uiso   1.00
C759   C     0.30612   0.17135   0.96215   0.00000  Uiso   1.00
C760   C     0.03241   0.12080   0.54881   0.00000  Uiso   1.00
C761   C     0.32343   0.17389   0.91436   0.00000  Uiso   1.00
C762   C     0.01408   0.13119   0.59453   0.00000  Uiso   1.00
C763   C     0.24286   0.15952   0.90987   0.00000  Uiso   1.00
C764   C     0.08867   0.16566   0.58952   0.00000  Uiso   1.00
C765   C     0.22648   0.15292   0.95754   0.00000  Uiso   1.00
C766   C     0.11024   0.14739   0.54782   0.00000  Uiso   1.00
C767   C     0.25829   0.16129   0.98369   0.00000  Uiso   1.00
C768   C     0.08032   0.12873   0.52543   0.00000  Uiso   1.00
C769   C     0.17843   0.14093   0.98013   0.00000  Uiso   1.00
C770   C     0.16064   0.14768   0.52770   0.00000  Uiso   1.00
Cu771  Cu    0.04689   0.16667   0.75000   0.00000  Uiso   1.00
Cu772  Cu    0.28645   0.16666   0.75000   0.00000  Uiso   1.00
H773   H     0.26768   0.16278   0.55118   0.00000  Uiso   1.00
H774   H     0.07639   0.09951   0.96497   0.00000  Uiso   1.00
H775   H     0.10925   0.18572   0.60412   0.00000  Uiso   1.00
H776   H     0.21758   0.15971   0.88966   0.00000  Uiso   1.00
H777   H     0.33013   0.17727   0.98284   0.00000  Uiso   1.00
H778   H     0.01037   0.10396   0.53242   0.00000  Uiso   1.00
H779   H     0.26320   0.03790   0.79785   0.00000  Uiso   1.00
H780   H     0.06997   0.29545   0.70159   0.00000  Uiso   1.00
H781   H     0.26235   0.29542   0.79751   0.00000  Uiso   1.00
H782   H     0.07053   0.03796   0.70142   0.00000  Uiso   1.00
H783   H     0.20218   0.11300   0.79197   0.00000  Uiso   1.00
H784   H     0.13114   0.22071   0.70851   0.00000  Uiso   1.00
N785   N     0.11736   0.16668   0.74999   0.00000  Uiso   1.00
N786   N     0.21597   0.16666   0.75001   0.00000  Uiso   1.00
O787   O     0.03958   0.10655   0.75000   0.00000  Uiso   1.00
O788   O     0.29375   0.22678   0.75000   0.00000  Uiso   1.00
O789   O     0.29372   0.10654   0.75000   0.00000  Uiso   1.00
O790   O     0.03961   0.22679   0.74999   0.00000  Uiso   1.00
O791   O     0.01852   0.16668   0.81491   0.00000  Uiso   1.00
O792   O     0.31481   0.16666   0.68508   0.00000  Uiso   1.00
O793   O     0.27267   0.16667   0.81492   0.00000  Uiso   1.00
O794   O     0.06067   0.16667   0.68508   0.00000  Uiso   1.00
C795   C     0.30032   0.11324   0.62155   0.00000  Uiso   1.00
H796   H     0.30517   0.09504   0.65202   0.00000  Uiso   1.00
H797   H     0.27352   0.13864   0.63240   0.00000  Uiso   1.00
H798   H     0.28640   0.09170   0.60116   0.00000  Uiso   1.00
C799   C     0.04187   0.18565   0.89382   0.00000  Uiso   1.00
H800   H     0.04388   0.21339   0.87022   0.00000  Uiso   1.00
H801   H     0.05955   0.19346   0.92036   0.00000  Uiso   1.00
H802   H     0.06269   0.15942   0.87540   0.00000  Uiso   1.00
C803   C     0.18325   0.13927   0.60426   0.00000  Uiso   1.00
H804   H     0.18462   0.16692   0.62403   0.00000  Uiso   1.00
H805   H     0.14865   0.12335   0.61802   0.00000  Uiso   1.00
H806   H     0.20975   0.11573   0.61005   0.00000  Uiso   1.00
C807   C     0.16639   0.09706   0.91539   0.00000  Uiso   1.00
H808   H     0.16034   0.11595   0.88588   0.00000  Uiso   1.00
H809   H     0.20483   0.08791   0.90940   0.00000  Uiso   1.00
H810   H     0.14695   0.06748   0.91823   0.00000  Uiso   1.00
S811   S     0.10926   0.08900   0.80012   0.00000  Uiso   1.00
O812   O     0.11116   0.05957   0.76312   0.00000  Uiso   1.00
O813   O     0.13684   0.06878   0.83103   0.00000  Uiso   1.00
O814   O     0.05235   0.09534   0.83175   0.00000  Uiso   1.00
H815   H     0.04031   0.06687   0.84048   0.00000  Uiso   1.00
S816   S     0.22587   0.24120   0.69385   0.00000  Uiso   1.00
O817   O     0.27727   0.23343   0.66859   0.00000  Uiso   1.00
O818   O     0.20034   0.25654   0.65899   0.00000  Uiso   1.00
O819   O     0.22283   0.27928   0.73006   0.00000  Uiso   1.00
H820   H     0.18810   0.28592   0.74189   0.00000  Uiso   1.00
C821   C     0.33379   0.08750   0.75009   0.00000  Uiso   1.00
C822   C     0.66623   0.24584   0.74972   0.00000  Uiso   1.00
C823   C     0.52769   0.15109   0.55375   0.00000  Uiso   1.00
C824   C     0.48124   0.12065   0.95839   0.00000  Uiso   1.00
C825   C     0.57571   0.15895   0.53126   0.00000  Uiso   1.00
C826   C     0.43265   0.11537   0.98130   0.00000  Uiso   1.00
C827   C     0.62713   0.02144   0.77668   0.00000  Uiso   1.00
C828   C     0.37273   0.31192   0.72276   0.00000  Uiso   1.00
C829   C     0.62643   0.31190   0.77626   0.00000  Uiso   1.00
C830   C     0.37333   0.02147   0.72302   0.00000  Uiso   1.00
C831   C     0.66583   0.29053   0.74919   0.00000  Uiso   1.00
C832   C     0.33410   0.04282   0.75036   0.00000  Uiso   1.00
C833   C     0.52001   0.13685   0.77379   0.00000  Uiso   1.00
C834   C     0.47990   0.19671   0.72661   0.00000  Uiso   1.00
C835   C     0.47103   0.13575   0.77370   0.00000  Uiso   1.00
C836   C     0.52923   0.19703   0.72549   0.00000  Uiso   1.00
C837   C     0.63944   0.16758   0.83663   0.00000  Uiso   1.00
C838   C     0.36054   0.16457   0.66376   0.00000  Uiso   1.00
C839   C     0.62463   0.16725   0.88752   0.00000  Uiso   1.00
C840   C     0.37535   0.15550   0.61471   0.00000  Uiso   1.00
C841   C     0.63945   0.17135   0.96215   0.00000  Uiso   1.00
C842   C     0.36574   0.12080   0.54881   0.00000  Uiso   1.00
C843   C     0.65676   0.17389   0.91436   0.00000  Uiso   1.00
C844   C     0.34742   0.13119   0.59453   0.00000  Uiso   1.00
C845   C     0.57620   0.15952   0.90987   0.00000  Uiso   1.00
C846   C     0.42201   0.16566   0.58952   0.00000  Uiso   1.00
C847   C     0.55981   0.15292   0.95754   0.00000  Uiso   1.00
C848   C     0.44358   0.14739   0.54782   0.00000  Uiso   1.00
C849   C     0.59162   0.16129   0.98369   0.00000  Uiso   1.00
C850   C     0.41365   0.12873   0.52543   0.00000  Uiso   1.00
C851   C     0.51177   0.14093   0.98013   0.00000  Uiso   1.00
C852   C     0.49398   0.14768   0.52770   0.00000  Uiso   1.00
Cu853  Cu    0.38022   0.16667   0.75000   0.00000  Uiso   1.00
Cu854  Cu    0.61978   0.16666   0.75000   0.00000  Uiso   1.00
H855   H     0.60101   0.16278   0.55118   0.00000  Uiso   1.00
H856   H     0.40972   0.09951   0.96497   0.00000  Uiso   1.00
H857   H     0.44258   0.18572   0.60412   0.00000  Uiso   1.00
H858   H     0.55091   0.15971   0.88966   0.00000  Uiso   1.00
H859   H     0.66346   0.17727   0.98284   0.00000  Uiso   1.00
H860   H     0.34370   0.10396   0.53242   0.00000  Uiso   1.00
H861   H     0.59654   0.03790   0.79785   0.00000  Uiso   1.00
H862   H     0.40331   0.29545   0.70159   0.00000  Uiso   1.00
H863   H     0.59568   0.29542   0.79751   0.00000  Uiso   1.00
H864   H     0.40387   0.03796   0.70142   0.00000  Uiso   1.00
H865   H     0.53551   0.11300   0.79197   0.00000  Uiso   1.00
H866   H     0.46448   0.22071   0.70851   0.00000  Uiso   1.00
N867   N     0.45069   0.16668   0.74999   0.00000  Uiso   1.00
N868   N     0.54931   0.16666   0.75001   0.00000  Uiso   1.00
O869   O     0.37291   0.10655   0.75000   0.00000  Uiso   1.00
O870   O     0.62709   0.22678   0.75000   0.00000  Uiso   1.00
O871   O     0.62706   0.10654   0.75000   0.00000  Uiso   1.00
O872   O     0.37294   0.22679   0.74999   0.00000  Uiso   1.00
O873   O     0.35186   0.16668   0.81491   0.00000  Uiso   1.00
O874   O     0.64814   0.16666   0.68508   0.00000  Uiso   1.00
O875   O     0.60600   0.16667   0.81492   0.00000  Uiso   1.00
O876   O     0.39400   0.16667   0.68508   0.00000  Uiso   1.00
C877   C     0.63365   0.11324   0.62155   0.00000  Uiso   1.00
H878   H     0.63850   0.09504   0.65202   0.00000  Uiso   1.00
H879   H     0.60685   0.13864   0.63240   0.00000  Uiso   1.00
H880   H     0.61974   0.09170   0.60116   0.00000  Uiso   1.00
C881   C     0.37520   0.18565   0.89382   0.00000  Uiso   1.00
H882   H     0.37721   0.21339   0.87022   0.00000  Uiso   1.00
H883   H     0.39289   0.19346   0.92036   0.00000  Uiso   1.00
H884   H     0.39603   0.15942   0.87540   0.00000  Uiso   1.00
C885   C     0.51659   0.13927   0.60426   0.00000  Uiso   1.00
H886   H     0.51796   0.16692   0.62403   0.00000  Uiso   1.00
H887   H     0.48198   0.12335   0.61802   0.00000  Uiso   1.00
H888   H     0.54309   0.11573   0.61005   0.00000  Uiso   1.00
C889   C     0.49972   0.09706   0.91539   0.00000  Uiso   1.00
H890   H     0.49368   0.11595   0.88588   0.00000  Uiso   1.00
H891   H     0.53816   0.08791   0.90940   0.00000  Uiso   1.00
H892   H     0.48028   0.06748   0.91823   0.00000  Uiso   1.00
S893   S     0.44259   0.08900   0.80012   0.00000  Uiso   1.00
O894   O     0.44450   0.05957   0.76312   0.00000  Uiso   1.00
O895   O     0.47017   0.06878   0.83103   0.00000  Uiso   1.00
O896   O     0.38568   0.09534   0.83175   0.00000  Uiso   1.00
H897   H     0.37364   0.06687   0.84048   0.00000  Uiso   1.00
S898   S     0.55920   0.24120   0.69385   0.00000  Uiso   1.00
O899   O     0.61060   0.23343   0.66859   0.00000  Uiso   1.00
O900   O     0.53368   0.25654   0.65899   0.00000  Uiso   1.00
O901   O     0.55617   0.27928   0.73006   0.00000  Uiso   1.00
H902   H     0.52144   0.28592   0.74189   0.00000  Uiso   1.00
C903   C     0.66712   0.08750   0.75009   0.00000  Uiso   1.00
C904   C     0.99957   0.24584   0.74972   0.00000  Uiso   1.00
C905   C     0.86102   0.15109   0.55375   0.00000  Uiso   1.00
C906   C     0.81457   0.12065   0.95839   0.00000  Uiso   1.00
C907   C     0.90905   0.15895   0.53126   0.00000  Uiso   1.00
C908   C     0.76598   0.11537   0.98130   0.00000  Uiso   1.00
C909   C     0.96046   0.02144   0.77668   0.00000  Uiso   1.00
C910   C     0.70606   0.31192   0.72276   0.00000  Uiso   1.00
C911   C     0.95976   0.31190   0.77626   0.00000  Uiso   1.00
C912   C     0.70666   0.02147   0.72302   0.00000  Uiso   1.00
C913   C     0.99916   0.29053   0.74919   0.00000  Uiso   1.00
C914   C     0.66743   0.04282   0.75036   0.00000  Uiso   1.00
C915   C     0.85334   0.13685   0.77379   0.00000  Uiso   1.00
C916   C     0.81323   0.19671   0.72661   0.00000  Uiso   1.00
C917   C     0.80437   0.13575   0.77370   0.00000  Uiso   1.00
C918   C     0.86256   0.19703   0.72549   0.00000  Uiso   1.00
C919   C     0.97277   0.16758   0.83663   0.00000  Uiso   1.00
C920   C     0.69388   0.16457   0.66376   0.00000  Uiso   1.00
C921   C     0.95797   0.16725   0.88752   0.00000  Uiso   1.00
C922   C     0.70868   0.15550   0.61471   0.00000  Uiso   1.00
C923   C     0.97279   0.17135   0.96215   0.00000  Uiso   1.00
C924   C     0.69908   0.12080   0.54881   0.00000  Uiso   1.00
C925   C     0.99010   0.17389   0.91436   0.00000  Uiso   1.00
C926   C     0.68075   0.13119   0.59453   0.00000  Uiso   1.00
C927   C     0.90953   0.15952   0.90987   0.00000  Uiso   1.00
C928   C     0.75534   0.16566   0.58952   0.00000  Uiso   1.00
C929   C     0.89315   0.15292   0.95754   0.00000  Uiso   1.00
C930   C     0.77691   0.14739   0.54782   0.00000  Uiso   1.00
C931   C     0.92496   0.16129   0.98369   0.00000  Uiso   1.00
C932   C     0.74698   0.12873   0.52543   0.00000  Uiso   1.00
C933   C     0.84510   0.14093   0.98013   0.00000  Uiso   1.00
C934   C     0.82731   0.14768   0.52770   0.00000  Uiso   1.00
Cu935  Cu    0.71355   0.16667   0.75000   0.00000  Uiso   1.00
Cu936  Cu    0.95311   0.16666   0.75000   0.00000  Uiso   1.00
H937   H     0.93435   0.16278   0.55118   0.00000  Uiso   1.00
H938   H     0.74306   0.09951   0.96497   0.00000  Uiso   1.00
H939   H     0.77591   0.18572   0.60412   0.00000  Uiso   1.00
H940   H     0.88425   0.15971   0.88966   0.00000  Uiso   1.00
H941   H     0.99680   0.17727   0.98284   0.00000  Uiso   1.00
H942   H     0.67703   0.10396   0.53242   0.00000  Uiso   1.00
H943   H     0.92987   0.03790   0.79785   0.00000  Uiso   1.00
H944   H     0.73664   0.29545   0.70159   0.00000  Uiso   1.00
H945   H     0.92901   0.29542   0.79751   0.00000  Uiso   1.00
H946   H     0.73720   0.03796   0.70142   0.00000  Uiso   1.00
H947   H     0.86884   0.11300   0.79197   0.00000  Uiso   1.00
H948   H     0.79781   0.22071   0.70851   0.00000  Uiso   1.00
N949   N     0.78403   0.16668   0.74999   0.00000  Uiso   1.00
N950   N     0.88264   0.16666   0.75001   0.00000  Uiso   1.00
O951   O     0.70625   0.10655   0.75000   0.00000  Uiso   1.00
O952   O     0.96042   0.22678   0.75000   0.00000  Uiso   1.00
O953   O     0.96039   0.10654   0.75000   0.00000  Uiso   1.00
O954   O     0.70628   0.22679   0.74999   0.00000  Uiso   1.00
O955   O     0.68519   0.16668   0.81491   0.00000  Uiso   1.00
O956   O     0.98148   0.16666   0.68508   0.00000  Uiso   1.00
O957   O     0.93933   0.16667   0.81492   0.00000  Uiso   1.00
O958   O     0.72733   0.16667   0.68508   0.00000  Uiso   1.00
C959   C     0.96698   0.11324   0.62155   0.00000  Uiso   1.00
H960   H     0.97183   0.09504   0.65202   0.00000  Uiso   1.00
H961   H     0.94018   0.13864   0.63240   0.00000  Uiso   1.00
H962   H     0.95307   0.09170   0.60116   0.00000  Uiso   1.00
C963   C     0.70853   0.18565   0.89382   0.00000  Uiso   1.00
H964   H     0.71054   0.21339   0.87022   0.00000  Uiso   1.00
H965   H     0.72622   0.19346   0.92036   0.00000  Uiso   1.00
H966   H     0.72936   0.15942   0.87540   0.00000  Uiso   1.00
C967   C     0.84992   0.13927   0.60426   0.00000  Uiso   1.00
H968   H     0.85129   0.16692   0.62403   0.00000  Uiso   1.00
H969   H     0.81531   0.12335   0.61802   0.00000  Uiso   1.00
H970   H     0.87642   0.11573   0.61005   0.00000  Uiso   1.00
C971   C     0.83305   0.09706   0.91539   0.00000  Uiso   1.00
H972   H     0.82701   0.11595   0.88588   0.00000  Uiso   1.00
H973   H     0.87150   0.08791   0.90940   0.00000  Uiso   1.00
H974   H     0.81362   0.06748   0.91823   0.00000  Uiso   1.00
S975   S     0.77593   0.08900   0.80012   0.00000  Uiso   1.00
O976   O     0.77783   0.05957   0.76312   0.00000  Uiso   1.00
O977   O     0.80350   0.06878   0.83103   0.00000  Uiso   1.00
O978   O     0.71901   0.09534   0.83175   0.00000  Uiso   1.00
H979   H     0.70697   0.06687   0.84048   0.00000  Uiso   1.00
S980   S     0.89254   0.24120   0.69385   0.00000  Uiso   1.00
O981   O     0.94394   0.23343   0.66859   0.00000  Uiso   1.00
O982   O     0.86701   0.25654   0.65899   0.00000  Uiso   1.00
O983   O     0.88950   0.27928   0.73006   0.00000  Uiso   1.00
H984   H     0.85477   0.28592   0.74189   0.00000  Uiso   1.00
C985   C     0.00045   0.42084   0.75009   0.00000  Uiso   1.00
C986   C     0.33290   0.57917   0.74972   0.00000  Uiso   1.00
C987   C     0.19435   0.48443   0.55375   0.00000  Uiso   1.00
C988   C     0.14791   0.45399   0.95839   0.00000  Uiso   1.00
C989   C     0.24238   0.49228   0.53126   0.00000  Uiso   1.00
C990   C     0.09931   0.44870   0.98130   0.00000  Uiso   1.00
C991   C     0.29379   0.35477   0.77668   0.00000  Uiso   1.00
C992   C     0.03939   0.64525   0.72276   0.00000  Uiso   1.00
C993   C     0.29309   0.64523   0.77626   0.00000  Uiso   1.00
C994   C     0.03999   0.35480   0.72302   0.00000  Uiso   1.00
C995   C     0.33249   0.62386   0.74919   0.00000  Uiso   1.00
C996   C     0.00077   0.37615   0.75036   0.00000  Uiso   1.00
C997   C     0.18667   0.47018   0.77379   0.00000  Uiso   1.00
C998   C     0.14657   0.53004   0.72661   0.00000  Uiso   1.00
C999   C     0.13770   0.46909   0.77370   0.00000  Uiso   1.00
C1000  C     0.19589   0.53036   0.72549   0.00000  Uiso   1.00
C1001  C     0.30610   0.50091   0.83663   0.00000  Uiso   1.00
C1002  C     0.02721   0.49790   0.66376   0.00000  Uiso   1.00
C1003  C     0.29130   0.50058   0.88752   0.00000  Uiso   1.00
C1004  C     0.04201   0.48884   0.61471   0.00000  Uiso   1.00
C1005  C     0.30612   0.50468   0.96215   0.00000  Uiso   1.00
C1006  C     0.03241   0.45414   0.54881   0.00000  Uiso   1.00
C1007  C     0.32343   0.50722   0.91436   0.00000  Uiso   1.00
C1008  C     0.01408   0.46452   0.59453   0.00000  Uiso   1.00
C1009  C     0.24286   0.49285   0.90987   0.00000  Uiso   1.00
C1010  C     0.08867   0.49899   0.58952   0.00000  Uiso   1.00
C1011  C     0.22648   0.48626   0.95754   0.00000  Uiso   1.00
C1012  C     0.11024   0.48073   0.54782   0.00000  Uiso   1.00
C1013  C     0.25829   0.49463   0.98369   0.00000  Uiso   1.00
C1014  C     0.08032   0.46206   0.52543   0.00000  Uiso   1.00
C1015  C     0.17843   0.47427   0.98013   0.00000  Uiso   1.00
C1016  C     0.16064   0.48102   0.52770   0.00000  Uiso   1.00
Cu1017 Cu    0.04689   0.50001   0.75000   0.00000  Uiso   1.00
Cu1018 Cu    0.28645   0.49999   0.75000   0.00000  Uiso   1.00
H1019  H     0.26768   0.49611   0.55118   0.00000  Uiso   1.00
H1020  H     0.07639   0.43284   0.96497   0.00000  Uiso   1.00
H1021  H     0.10925   0.51905   0.60412   0.00000  Uiso   1.00
H1022  H     0.21758   0.49305   0.88966   0.00000  Uiso   1.00
H1023  H     0.33013   0.51060   0.98284   0.00000  Uiso   1.00
H1024  H     0.01037   0.43729   0.53242   0.00000  Uiso   1.00
H1025  H     0.26320   0.37123   0.79785   0.00000  Uiso   1.00
H1026  H     0.06997   0.62879   0.70159   0.00000  Uiso   1.00
H1027  H     0.26235   0.62875   0.79751   0.00000  Uiso   1.00
H1028  H     0.07053   0.37130   0.70142   0.00000  Uiso   1.00
H1029  H     0.20218   0.44633   0.79197   0.00000  Uiso   1.00
H1030  H     0.13114   0.55405   0.70851   0.00000  Uiso   1.00
N1031  N     0.11736   0.50001   0.74999   0.00000  Uiso   1.00
N1032  N     0.21597   0.49999   0.75001   0.00000  Uiso   1.00
O1033  O     0.03958   0.43989   0.75000   0.00000  Uiso   1.00
O1034  O     0.29375   0.56011   0.75000   0.00000  Uiso   1.00
O1035  O     0.29372   0.43988   0.75000   0.00000  Uiso   1.00
O1036  O     0.03961   0.56012   0.74999   0.00000  Uiso   1.00
O1037  O     0.01852   0.50001   0.81491   0.00000  Uiso   1.00
O1038  O     0.31481   0.49999   0.68508   0.00000  Uiso   1.00
O1039  O     0.27267   0.50000   0.81492   0.00000  Uiso   1.00
O1040  O     0.06067   0.50000   0.68508   0.00000  Uiso   1.00
C1041  C     0.30032   0.44658   0.62155   0.00000  Uiso   1.00
H1042  H     0.30517   0.42837   0.65202   0.00000  Uiso   1.00
H1043  H     0.27352   0.47197   0.63240   0.00000  Uiso   1.00
H1044  H     0.28640   0.42503   0.60116   0.00000  Uiso   1.00
C1045  C     0.04187   0.51898   0.89382   0.00000  Uiso   1.00
H1046  H     0.04388   0.54672   0.87022   0.00000  Uiso   1.00
H1047  H     0.05955   0.52680   0.92036   0.00000  Uiso   1.00
H1048  H     0.06269   0.49275   0.87540   0.00000  Uiso   1.00
C1049  C     0.18325   0.47260   0.60426   0.00000  Uiso   1.00
H1050  H     0.18462   0.50025   0.62403   0.00000  Uiso   1.00
H1051  H     0.14865   0.45669   0.61802   0.00000  Uiso   1.00
H1052  H     0.20975   0.44907   0.61005   0.00000  Uiso   1.00
C1053  C     0.16639   0.43039   0.91539   0.00000  Uiso   1.00
H1054  H     0.16034   0.44929   0.88588   0.00000  Uiso   1.00
H1055  H     0.20483   0.42124   0.90940   0.00000  Uiso   1.00
H1056  H     0.14695   0.40081   0.91823   0.00000  Uiso   1.00
S1057  S     0.10926   0.42233   0.80012   0.00000  Uiso   1.00
O1058  O     0.11116   0.39290   0.76312   0.00000  Uiso   1.00
O1059  O     0.13684   0.40211   0.83103   0.00000  Uiso   1.00
O1060  O     0.05235   0.42868   0.83175   0.00000  Uiso   1.00
H1061  H     0.04031   0.40020   0.84048   0.00000  Uiso   1.00
S1062  S     0.22587   0.57453   0.69385   0.00000  Uiso   1.00
O1063  O     0.27727   0.56676   0.66859   0.00000  Uiso   1.00
O1064  O     0.20034   0.58987   0.65899   0.00000  Uiso   1.00
O1065  O     0.22283   0.61262   0.73006   0.00000  Uiso   1.00
H1066  H     0.18810   0.61926   0.74189   0.00000  Uiso   1.00
C1067  C     0.33379   0.42084   0.75009   0.00000  Uiso   1.00
C1068  C     0.66623   0.57917   0.74972   0.00000  Uiso   1.00
C1069  C     0.52769   0.48443   0.55375   0.00000  Uiso   1.00
C1070  C     0.48124   0.45399   0.95839   0.00000  Uiso   1.00
C1071  C     0.57571   0.49228   0.53126   0.00000  Uiso   1.00
C1072  C     0.43265   0.44870   0.98130   0.00000  Uiso   1.00
C1073  C     0.62713   0.35477   0.77668   0.00000  Uiso   1.00
C1074  C     0.37273   0.64525   0.72276   0.00000  Uiso   1.00
C1075  C     0.62643   0.64523   0.77626   0.00000  Uiso   1.00
C1076  C     0.37333   0.35480   0.72302   0.00000  Uiso   1.00
C1077  C     0.66583   0.62386   0.74919   0.00000  Uiso   1.00
C1078  C     0.33410   0.37615   0.75036   0.00000  Uiso   1.00
C1079  C     0.52001   0.47018   0.77379   0.00000  Uiso   1.00
C1080  C     0.47990   0.53004   0.72661   0.00000  Uiso   1.00
C1081  C     0.47103   0.46909   0.77370   0.00000  Uiso   1.00
C1082  C     0.52923   0.53036   0.72549   0.00000  Uiso   1.00
C1083  C     0.63944   0.50091   0.83663   0.00000  Uiso   1.00
C1084  C     0.36054   0.49790   0.66376   0.00000  Uiso   1.00
C1085  C     0.62463   0.50058   0.88752   0.00000  Uiso   1.00
C1086  C     0.37535   0.48884   0.61471   0.00000  Uiso   1.00
C1087  C     0.63945   0.50468   0.96215   0.00000  Uiso   1.00
C1088  C     0.36574   0.45414   0.54881   0.00000  Uiso   1.00
C1089  C     0.65676   0.50722   0.91436   0.00000  Uiso   1.00
C1090  C     0.34742   0.46452   0.59453   0.00000  Uiso   1.00
C1091  C     0.57620   0.49285   0.90987   0.00000  Uiso   1.00
C1092  C     0.42201   0.49899   0.58952   0.00000  Uiso   1.00
C1093  C     0.55981   0.48626   0.95754   0.00000  Uiso   1.00
C1094  C     0.44358   0.48073   0.54782   0.00000  Uiso   1.00
C1095  C     0.59162   0.49463   0.98369   0.00000  Uiso   1.00
C1096  C     0.41365   0.46206   0.52543   0.00000  Uiso   1.00
C1097  C     0.51177   0.47427   0.98013   0.00000  Uiso   1.00
C1098  C     0.49398   0.48102   0.52770   0.00000  Uiso   1.00
Cu1099 Cu    0.38022   0.50001   0.75000   0.00000  Uiso   1.00
Cu1100 Cu    0.61978   0.49999   0.75000   0.00000  Uiso   1.00
H1101  H     0.60101   0.49611   0.55118   0.00000  Uiso   1.00
H1102  H     0.40972   0.43284   0.96497   0.00000  Uiso   1.00
H1103  H     0.44258   0.51905   0.60412   0.00000  Uiso   1.00
H1104  H     0.55091   0.49305   0.88966   0.00000  Uiso   1.00
H1105  H     0.66346   0.51060   0.98284   0.00000  Uiso   1.00
H1106  H     0.34370   0.43729   0.53242   0.00000  Uiso   1.00
H1107  H     0.59654   0.37123   0.79785   0.00000  Uiso   1.00
H1108  H     0.40331   0.62879   0.70159   0.00000  Uiso   1.00
H1109  H     0.59568   0.62875   0.79751   0.00000  Uiso   1.00
H1110  H     0.40387   0.37130   0.70142   0.00000  Uiso   1.00
H1111  H     0.53551   0.44633   0.79197   0.00000  Uiso   1.00
H1112  H     0.46448   0.55405   0.70851   0.00000  Uiso   1.00
N1113  N     0.45069   0.50001   0.74999   0.00000  Uiso   1.00
N1114  N     0.54931   0.49999   0.75001   0.00000  Uiso   1.00
O1115  O     0.37291   0.43989   0.75000   0.00000  Uiso   1.00
O1116  O     0.62709   0.56011   0.75000   0.00000  Uiso   1.00
O1117  O     0.62706   0.43988   0.75000   0.00000  Uiso   1.00
O1118  O     0.37294   0.56012   0.74999   0.00000  Uiso   1.00
O1119  O     0.35186   0.50001   0.81491   0.00000  Uiso   1.00
O1120  O     0.64814   0.49999   0.68508   0.00000  Uiso   1.00
O1121  O     0.60600   0.50000   0.81492   0.00000  Uiso   1.00
O1122  O     0.39400   0.50000   0.68508   0.00000  Uiso   1.00
C1123  C     0.63365   0.44658   0.62155   0.00000  Uiso   1.00
H1124  H     0.63850   0.42837   0.65202   0.00000  Uiso   1.00
H1125  H     0.60685   0.47197   0.63240   0.00000  Uiso   1.00
H1126  H     0.61974   0.42503   0.60116   0.00000  Uiso   1.00
C1127  C     0.37520   0.51898   0.89382   0.00000  Uiso   1.00
H1128  H     0.37721   0.54672   0.87022   0.00000  Uiso   1.00
H1129  H     0.39289   0.52680   0.92036   0.00000  Uiso   1.00
H1130  H     0.39603   0.49275   0.87540   0.00000  Uiso   1.00
C1131  C     0.51659   0.47260   0.60426   0.00000  Uiso   1.00
H1132  H     0.51796   0.50025   0.62403   0.00000  Uiso   1.00
H1133  H     0.48198   0.45669   0.61802   0.00000  Uiso   1.00
H1134  H     0.54309   0.44907   0.61005   0.00000  Uiso   1.00
C1135  C     0.49972   0.43039   0.91539   0.00000  Uiso   1.00
H1136  H     0.49368   0.44929   0.88588   0.00000  Uiso   1.00
H1137  H     0.53816   0.42124   0.90940   0.00000  Uiso   1.00
H1138  H     0.48028   0.40081   0.91823   0.00000  Uiso   1.00
S1139  S     0.44259   0.42233   0.80012   0.00000  Uiso   1.00
O1140  O     0.44450   0.39290   0.76312   0.00000  Uiso   1.00
O1141  O     0.47017   0.40211   0.83103   0.00000  Uiso   1.00
O1142  O     0.38568   0.42868   0.83175   0.00000  Uiso   1.00
H1143  H     0.37364   0.40020   0.84048   0.00000  Uiso   1.00
S1144  S     0.55920   0.57453   0.69385   0.00000  Uiso   1.00
O1145  O     0.61060   0.56676   0.66859   0.00000  Uiso   1.00
O1146  O     0.53368   0.58987   0.65899   0.00000  Uiso   1.00
O1147  O     0.55617   0.61262   0.73006   0.00000  Uiso   1.00
H1148  H     0.52144   0.61926   0.74189   0.00000  Uiso   1.00
C1149  C     0.66712   0.42084   0.75009   0.00000  Uiso   1.00
C1150  C     0.99957   0.57917   0.74972   0.00000  Uiso   1.00
C1151  C     0.86102   0.48443   0.55375   0.00000  Uiso   1.00
C1152  C     0.81457   0.45399   0.95839   0.00000  Uiso   1.00
C1153  C     0.90905   0.49228   0.53126   0.00000  Uiso   1.00
C1154  C     0.76598   0.44870   0.98130   0.00000  Uiso   1.00
C1155  C     0.96046   0.35477   0.77668   0.00000  Uiso   1.00
C1156  C     0.70606   0.64525   0.72276   0.00000  Uiso   1.00
C1157  C     0.95976   0.64523   0.77626   0.00000  Uiso   1.00
C1158  C     0.70666   0.35480   0.72302   0.00000  Uiso   1.00
C1159  C     0.99916   0.62386   0.74919   0.00000  Uiso   1.00
C1160  C     0.66743   0.37615   0.75036   0.00000  Uiso   1.00
C1161  C     0.85334   0.47018   0.77379   0.00000  Uiso   1.00
C1162  C     0.81323   0.53004   0.72661   0.00000  Uiso   1.00
C1163  C     0.80437   0.46909   0.77370   0.00000  Uiso   1.00
C1164  C     0.86256   0.53036   0.72549   0.00000  Uiso   1.00
C1165  C     0.97277   0.50091   0.83663   0.00000  Uiso   1.00
C1166  C     0.69388   0.49790   0.66376   0.00000  Uiso   1.00
C1167  C     0.95797   0.50058   0.88752   0.00000  Uiso   1.00
C1168  C     0.70868   0.48884   0.61471   0.00000  Uiso   1.00
C1169  C     0.97279   0.50468   0.96215   0.00000  Uiso   1.00
C1170  C     0.69908   0.45414   0.54881   0.00000  Uiso   1.00
C1171  C     0.99010   0.50722   0.91436   0.00000  Uiso   1.00
C1172  C     0.68075   0.46452   0.59453   0.00000  Uiso   1.00
C1173  C     0.90953   0.49285   0.90987   0.00000  Uiso   1.00
C1174  C     0.75534   0.49899   0.58952   0.00000  Uiso   1.00
C1175  C     0.89315   0.48626   0.95754   0.00000  Uiso   1.00
C1176  C     0.77691   0.48073   0.54782   0.00000  Uiso   1.00
C1177  C     0.92496   0.49463   0.98369   0.00000  Uiso   1.00
C1178  C     0.74698   0.46206   0.52543   0.00000  Uiso   1.00
C1179  C     0.84510   0.47427   0.98013   0.00000  Uiso   1.00
C1180  C     0.82731   0.48102   0.52770   0.00000  Uiso   1.00
Cu1181 Cu    0.71355   0.50001   0.75000   0.00000  Uiso   1.00
Cu1182 Cu    0.95311   0.49999   0.75000   0.00000  Uiso   1.00
H1183  H     0.93435   0.49611   0.55118   0.00000  Uiso   1.00
H1184  H     0.74306   0.43284   0.96497   0.00000  Uiso   1.00
H1185  H     0.77591   0.51905   0.60412   0.00000  Uiso   1.00
H1186  H     0.88425   0.49305   0.88966   0.00000  Uiso   1.00
H1187  H     0.99680   0.51060   0.98284   0.00000  Uiso   1.00
H1188  H     0.67703   0.43729   0.53242   0.00000  Uiso   1.00
H1189  H     0.92987   0.37123   0.79785   0.00000  Uiso   1.00
H1190  H     0.73664   0.62879   0.70159   0.00000  Uiso   1.00
H1191  H     0.92901   0.62875   0.79751   0.00000  Uiso   1.00
H1192  H     0.73720   0.37130   0.70142   0.00000  Uiso   1.00
H1193  H     0.86884   0.44633   0.79197   0.00000  Uiso   1.00
H1194  H     0.79781   0.55405   0.70851   0.00000  Uiso   1.00
N1195  N     0.78403   0.50001   0.74999   0.00000  Uiso   1.00
N1196  N     0.88264   0.49999   0.75001   0.00000  Uiso   1.00
O1197  O     0.70625   0.43989   0.75000   0.00000  Uiso   1.00
O1198  O     0.96042   0.56011   0.75000   0.00000  Uiso   1.00
O1199  O     0.96039   0.43988   0.75000   0.00000  Uiso   1.00
O1200  O     0.70628   0.56012   0.74999   0.00000  Uiso   1.00
O1201  O     0.68519   0.50001   0.81491   0.00000  Uiso   1.00
O1202  O     0.98148   0.49999   0.68508   0.00000  Uiso   1.00
O1203  O     0.93933   0.50000   0.81492   0.00000  Uiso   1.00
O1204  O     0.72733   0.50000   0.68508   0.00000  Uiso   1.00
C1205  C     0.96698   0.44658   0.62155   0.00000  Uiso   1.00
H1206  H     0.97183   0.42837   0.65202   0.00000  Uiso   1.00
H1207  H     0.94018   0.47197   0.63240   0.00000  Uiso   1.00
H1208  H     0.95307   0.42503   0.60116   0.00000  Uiso   1.00
C1209  C     0.70853   0.51898   0.89382   0.00000  Uiso   1.00
H1210  H     0.71054   0.54672   0.87022   0.00000  Uiso   1.00
H1211  H     0.72622   0.52680   0.92036   0.00000  Uiso   1.00
H1212  H     0.72936   0.49275   0.87540   0.00000  Uiso   1.00
C1213  C     0.84992   0.47260   0.60426   0.00000  Uiso   1.00
H1214  H     0.85129   0.50025   0.62403   0.00000  Uiso   1.00
H1215  H     0.81531   0.45669   0.61802   0.00000  Uiso   1.00
H1216  H     0.87642   0.44907   0.61005   0.00000  Uiso   1.00
C1217  C     0.83305   0.43039   0.91539   0.00000  Uiso   1.00
H1218  H     0.82701   0.44929   0.88588   0.00000  Uiso   1.00
H1219  H     0.87150   0.42124   0.90940   0.00000  Uiso   1.00
H1220  H     0.81362   0.40081   0.91823   0.00000  Uiso   1.00
S1221  S     0.77593   0.42233   0.80012   0.00000  Uiso   1.00
O1222  O     0.77783   0.39290   0.76312   0.00000  Uiso   1.00
O1223  O     0.80350   0.40211   0.83103   0.00000  Uiso   1.00
O1224  O     0.71901   0.42868   0.83175   0.00000  Uiso   1.00
H1225  H     0.70697   0.40020   0.84048   0.00000  Uiso   1.00
S1226  S     0.89254   0.57453   0.69385   0.00000  Uiso   1.00
O1227  O     0.94394   0.56676   0.66859   0.00000  Uiso   1.00
O1228  O     0.86701   0.58987   0.65899   0.00000  Uiso   1.00
O1229  O     0.88950   0.61262   0.73006   0.00000  Uiso   1.00
H1230  H     0.85477   0.61926   0.74189   0.00000  Uiso   1.00
C1231  C     0.00045   0.75417   0.75009   0.00000  Uiso   1.00
C1232  C     0.33290   0.91250   0.74972   0.00000  Uiso   1.00
C1233  C     0.19435   0.81776   0.55375   0.00000  Uiso   1.00
C1234  C     0.14791   0.78732   0.95839   0.00000  Uiso   1.00
C1235  C     0.24238   0.82561   0.53126   0.00000  Uiso   1.00
C1236  C     0.09931   0.78203   0.98130   0.00000  Uiso   1.00
C1237  C     0.29379   0.68811   0.77668   0.00000  Uiso   1.00
C1238  C     0.03939   0.97858   0.72276   0.00000  Uiso   1.00
C1239  C     0.29309   0.97857   0.77626   0.00000  Uiso   1.00
C1240  C     0.03999   0.68813   0.72302   0.00000  Uiso   1.00
C1241  C     0.33249   0.95719   0.74919   0.00000  Uiso   1.00
C1242  C     0.00077   0.70949   0.75036   0.00000  Uiso   1.00
C1243  C     0.18667   0.80352   0.77379   0.00000  Uiso   1.00
C1244  C     0.14657   0.86337   0.72661   0.00000  Uiso   1.00
C1245  C     0.13770   0.80242   0.77370   0.00000  Uiso   1.00
C1246  C     0.19589   0.86369   0.72549   0.00000  Uiso   1.00
C1247  C     0.30610   0.83425   0.83663   0.00000  Uiso   1.00
C1248  C     0.02721   0.83124   0.66376   0.00000  Uiso   1.00
C1249  C     0.29130   0.83391   0.88752   0.00000  Uiso   1.00
C1250  C     0.04201   0.82217   0.61471   0.00000  Uiso   1.00
C1251  C     0.30612   0.83801   0.96215   0.00000  Uiso   1.00
C1252  C     0.03241   0.78747   0.54881   0.00000  Uiso   1.00
C1253  C     0.32343   0.84055   0.91436   0.00000  Uiso   1.00
C1254  C     0.01408   0.79786   0.59453   0.00000  Uiso   1.00
C1255  C     0.24286   0.82618   0.90987   0.00000  Uiso   1.00
C1256  C     0.08867   0.83232   0.58952   0.00000  Uiso   1.00
C1257  C     0.22648   0.81959   0.95754   0.00000  Uiso   1.00
C1258  C     0.11024   0.81406   0.54782   0.00000  Uiso   1.00
C1259  C     0.25829   0.82796   0.98369   0.00000  Uiso   1.00
C1260  C     0.08032   0.79539   0.52543   0.00000  Uiso   1.00
C1261  C     0.17843   0.80760   0.98013   0.00000  Uiso   1.00
C1262  C     0.16064   0.81435   0.52770   0.00000  Uiso   1.00
Cu1263 Cu    0.04689   0.83334   0.75000   0.00000  Uiso   1.00
Cu1264 Cu    0.28645   0.83333   0.75000   0.00000  Uiso   1.00
H1265  H     0.26768   0.82944   0.55118   0.00000  Uiso   1.00
H1266  H     0.07639   0.76618   0.96497   0.00000  Uiso   1.00
H1267  H     0.10925   0.85239   0.60412   0.00000  Uiso   1.00
H1268  H     0.21758   0.82638   0.88966   0.00000  Uiso   1.00
H1269  H     0.33013   0.84394   0.98284   0.00000  Uiso   1.00
H1270  H     0.01037   0.77063   0.53242   0.00000  Uiso   1.00
H1271  H     0.26320   0.70456   0.79785   0.00000  Uiso   1.00
H1272  H     0.06997   0.96212   0.70159   0.00000  Uiso   1.00
H1273  H     0.26235   0.96208   0.79751   0.00000  Uiso   1.00
H1274  H     0.07053   0.70463   0.70142   0.00000  Uiso   1.00
H1275  H     0.20218   0.77966   0.79197   0.00000  Uiso   1.00
H1276  H     0.13114   0.88738   0.70851   0.00000  Uiso   1.00
N1277  N     0.11736   0.83334   0.74999   0.00000  Uiso   1.00
N1278  N     0.21597   0.83332   0.75001   0.00000  Uiso   1.00
O1279  O     0.03958   0.77322   0.75000   0.00000  Uiso   1.00
O1280  O     0.29375   0.89345   0.75000   0.00000  Uiso   1.00
O1281  O     0.29372   0.77321   0.75000   0.00000  Uiso   1.00
O1282  O     0.03961   0.89346   0.74999   0.00000  Uiso   1.00
O1283  O     0.01852   0.83334   0.81491   0.00000  Uiso   1.00
O1284  O     0.31481   0.83332   0.68508   0.00000  Uiso   1.00
O1285  O     0.27267   0.83333   0.81492   0.00000  Uiso   1.00
O1286  O     0.06067   0.83333   0.68508   0.00000  Uiso   1.00
C1287  C     0.30032   0.77991   0.62155   0.00000  Uiso   1.00
H1288  H     0.30517   0.76170   0.65202   0.00000  Uiso   1.00
H1289  H     0.27352   0.80531   0.63240   0.00000  Uiso   1.00
H1290  H     0.28640   0.75836   0.60116   0.00000  Uiso   1.00
C1291  C     0.04187   0.85232   0.89382   0.00000  Uiso   1.00
H1292  H     0.04388   0.88006   0.87022   0.00000  Uiso   1.00
H1293  H     0.05955   0.86013   0.92036   0.00000  Uiso   1.00
H1294  H     0.06269   0.82608   0.87540   0.00000  Uiso   1.00
C1295  C     0.18325   0.80593   0.60426   0.00000  Uiso   1.00
H1296  H     0.18462   0.83359   0.62403   0.00000  Uiso   1.00
H1297  H     0.14865   0.79002   0.61802   0.00000  Uiso   1.00
H1298  H     0.20975   0.78240   0.61005   0.00000  Uiso   1.00
C1299  C     0.16639   0.76372   0.91539   0.00000  Uiso   1.00
H1300  H     0.16034   0.78262   0.88588   0.00000  Uiso   1.00
H1301  H     0.20483   0.75458   0.90940   0.00000  Uiso   1.00
H1302  H     0.14695   0.73415   0.91823   0.00000  Uiso   1.00
S1303  S     0.10926   0.75567   0.80012   0.00000  Uiso   1.00
O1304  O     0.11116   0.72623   0.76312   0.00000  Uiso   1.00
O1305  O     0.13684   0.73544   0.83103   0.00000  Uiso   1.00
O1306  O     0.05235   0.76201   0.83175   0.00000  Uiso   1.00
H1307  H     0.04031   0.73353   0.84048   0.00000  Uiso   1.00
S1308  S     0.22587   0.90786   0.69385   0.00000  Uiso   1.00
O1309  O     0.27727   0.90010   0.66859   0.00000  Uiso   1.00
O1310  O     0.20034   0.92321   0.65899   0.00000  Uiso   1.00
O1311  O     0.22283   0.94595   0.73006   0.00000  Uiso   1.00
H1312  H     0.18810   0.95259   0.74189   0.00000  Uiso   1.00
C1313  C     0.33379   0.75417   0.75009   0.00000  Uiso   1.00
C1314  C     0.66623   0.91250   0.74972   0.00000  Uiso   1.00
C1315  C     0.52769   0.81776   0.55375   0.00000  Uiso   1.00
C1316  C     0.48124   0.78732   0.95839   0.00000  Uiso   1.00
C1317  C     0.57571   0.82561   0.53126   0.00000  Uiso   1.00
C1318  C     0.43265   0.78203   0.98130   0.00000  Uiso   1.00
C1319  C     0.62713   0.68811   0.77668   0.00000  Uiso   1.00
C1320  C     0.37273   0.97858   0.72276   0.00000  Uiso   1.00
C1321  C     0.62643   0.97857   0.77626   0.00000  Uiso   1.00
C1322  C     0.37333   0.68813   0.72302   0.00000  Uiso   1.00
C1323  C     0.66583   0.95719   0.74919   0.00000  Uiso   1.00
C1324  C     0.33410   0.70949   0.75036   0.00000  Uiso   1.00
C1325  C     0.52001   0.80352   0.77379   0.00000  Uiso   1.00
C1326  C     0.47990   0.86337   0.72661   0.00000  Uiso   1.00
C1327  C     0.47103   0.80242   0.77370   0.00000  Uiso   1.00
C1328  C     0.52923   0.86369   0.72549   0.00000  Uiso   1.00
C1329  C     0.63944   0.83425   0.83663   0.00000  Uiso   1.00
C1330  C     0.36054   0.83124   0.66376   0.00000  Uiso   1.00
C1331  C     0.62463   0.83391   0.88752   0.00000  Uiso   1.00
C1332  C     0.37535   0.82217   0.61471   0.00000  Uiso   1.00
C1333  C     0.63945   0.83801   0.96215   0.00000  Uiso   1.00
C1334  C     0.36574   0.78747   0.54881   0.00000  Uiso   1.00
C1335  C     0.65676   0.84055   0.91436   0.00000  Uiso   1.00
C1336  C     0.34742   0.79786   0.59453   0.00000  Uiso   1.00
C1337  C     0.57620   0.82618   0.90987   0.00000  Uiso   1.00
C1338  C     0.42201   0.83232   0.58952   0.00000  Uiso   1.00
C1339  C     0.55981   0.81959   0.95754   0.00000  Uiso   1.00
C1340  C     0.44358   0.81406   0.54782   0.00000  Uiso   1.00
C1341  C     0.59162   0.82796   0.98369   0.00000  Uiso   1.00
C1342  C     0.41365   0.79539   0.52543   0.00000  Uiso   1.00
C1343  C     0.51177   0.80760   0.98013   0.00000  Uiso   1.00
C1344  C     0.49398   0.81435   0.52770   0.00000  Uiso   1.00
Cu1345 Cu    0.38022   0.83334   0.75000   0.00000  Uiso   1.00
Cu1346 Cu    0.61978   0.83333   0.75000   0.00000  Uiso   1.00
H1347  H     0.60101   0.82944   0.55118   0.00000  Uiso   1.00
H1348  H     0.40972   0.76618   0.96497   0.00000  Uiso   1.00
H1349  H     0.44258   0.85239   0.60412   0.00000  Uiso   1.00
H1350  H     0.55091   0.82638   0.88966   0.00000  Uiso   1.00
H1351  H     0.66346   0.84394   0.98284   0.00000  Uiso   1.00
H1352  H     0.34370   0.77063   0.53242   0.00000  Uiso   1.00
H1353  H     0.59654   0.70456   0.79785   0.00000  Uiso   1.00
H1354  H     0.40331   0.96212   0.70159   0.00000  Uiso   1.00
H1355  H     0.59568   0.96208   0.79751   0.00000  Uiso   1.00
H1356  H     0.40387   0.70463   0.70142   0.00000  Uiso   1.00
H1357  H     0.53551   0.77966   0.79197   0.00000  Uiso   1.00
H1358  H     0.46448   0.88738   0.70851   0.00000  Uiso   1.00
N1359  N     0.45069   0.83334   0.74999   0.00000  Uiso   1.00
N1360  N     0.54931   0.83332   0.75001   0.00000  Uiso   1.00
O1361  O     0.37291   0.77322   0.75000   0.00000  Uiso   1.00
O1362  O     0.62709   0.89345   0.75000   0.00000  Uiso   1.00
O1363  O     0.62706   0.77321   0.75000   0.00000  Uiso   1.00
O1364  O     0.37294   0.89346   0.74999   0.00000  Uiso   1.00
O1365  O     0.35186   0.83334   0.81491   0.00000  Uiso   1.00
O1366  O     0.64814   0.83332   0.68508   0.00000  Uiso   1.00
O1367  O     0.60600   0.83333   0.81492   0.00000  Uiso   1.00
O1368  O     0.39400   0.83333   0.68508   0.00000  Uiso   1.00
C1369  C     0.63365   0.77991   0.62155   0.00000  Uiso   1.00
H1370  H     0.63850   0.76170   0.65202   0.00000  Uiso   1.00
H1371  H     0.60685   0.80531   0.63240   0.00000  Uiso   1.00
H1372  H     0.61974   0.75836   0.60116   0.00000  Uiso   1.00
C1373  C     0.37520   0.85232   0.89382   0.00000  Uiso   1.00
H1374  H     0.37721   0.88006   0.87022   0.00000  Uiso   1.00
H1375  H     0.39289   0.86013   0.92036   0.00000  Uiso   1.00
H1376  H     0.39603   0.82608   0.87540   0.00000  Uiso   1.00
C1377  C     0.51659   0.80593   0.60426   0.00000  Uiso   1.00
H1378  H     0.51796   0.83359   0.62403   0.00000  Uiso   1.00
H1379  H     0.48198   0.79002   0.61802   0.00000  Uiso   1.00
H1380  H     0.54309   0.78240   0.61005   0.00000  Uiso   1.00
C1381  C     0.49972   0.76372   0.91539   0.00000  Uiso   1.00
H1382  H     0.49368   0.78262   0.88588   0.00000  Uiso   1.00
H1383  H     0.53816   0.75458   0.90940   0.00000  Uiso   1.00
H1384  H     0.48028   0.73415   0.91823   0.00000  Uiso   1.00
S1385  S     0.44259   0.75567   0.80012   0.00000  Uiso   1.00
O1386  O     0.44450   0.72623   0.76312   0.00000  Uiso   1.00
O1387  O     0.47017   0.73544   0.83103   0.00000  Uiso   1.00
O1388  O     0.38568   0.76201   0.83175   0.00000  Uiso   1.00
H1389  H     0.37364   0.73353   0.84048   0.00000  Uiso   1.00
S1390  S     0.55920   0.90786   0.69385   0.00000  Uiso   1.00
O1391  O     0.61060   0.90010   0.66859   0.00000  Uiso   1.00
O1392  O     0.53368   0.92321   0.65899   0.00000  Uiso   1.00
O1393  O     0.55617   0.94595   0.73006   0.00000  Uiso   1.00
H1394  H     0.52144   0.95259   0.74189   0.00000  Uiso   1.00
C1395  C     0.66712   0.75417   0.75009   0.00000  Uiso   1.00
C1396  C     0.99957   0.91250   0.74972   0.00000  Uiso   1.00
C1397  C     0.86102   0.81776   0.55375   0.00000  Uiso   1.00
C1398  C     0.81457   0.78732   0.95839   0.00000  Uiso   1.00
C1399  C     0.90905   0.82561   0.53126   0.00000  Uiso   1.00
C1400  C     0.76598   0.78203   0.98130   0.00000  Uiso   1.00
C1401  C     0.96046   0.68811   0.77668   0.00000  Uiso   1.00
C1402  C     0.70606   0.97858   0.72276   0.00000  Uiso   1.00
C1403  C     0.95976   0.97857   0.77626   0.00000  Uiso   1.00
C1404  C     0.70666   0.68813   0.72302   0.00000  Uiso   1.00
C1405  C     0.99916   0.95719   0.74919   0.00000  Uiso   1.00
C1406  C     0.66743   0.70949   0.75036   0.00000  Uiso   1.00
C1407  C     0.85334   0.80352   0.77379   0.00000  Uiso   1.00
C1408  C     0.81323   0.86337   0.72661   0.00000  Uiso   1.00
C1409  C     0.80437   0.80242   0.77370   0.00000  Uiso   1.00
C1410  C     0.86256   0.86369   0.72549   0.00000  Uiso   1.00
C1411  C     0.97277   0.83425   0.83663   0.00000  Uiso   1.00
C1412  C     0.69388   0.83124   0.66376   0.00000  Uiso   1.00
C1413  C     0.95797   0.83391   0.88752   0.00000  Uiso   1.00
C1414  C     0.70868   0.82217   0.61471   0.00000  Uiso   1.00
C1415  C     0.97279   0.83801   0.96215   0.00000  Uiso   1.00
C1416  C     0.69908   0.78747   0.54881   0.00000  Uiso   1.00
C1417  C     0.99010   0.84055   0.91436   0.00000  Uiso   1.00
C1418  C     0.68075   0.79786   0.59453   0.00000  Uiso   1.00
C1419  C     0.90953   0.82618   0.90987   0.00000  Uiso   1.00
C1420  C     0.75534   0.83232   0.58952   0.00000  Uiso   1.00
C1421  C     0.89315   0.81959   0.95754   0.00000  Uiso   1.00
C1422  C     0.77691   0.81406   0.54782   0.00000  Uiso   1.00
C1423  C     0.92496   0.82796   0.98369   0.00000  Uiso   1.00
C1424  C     0.74698   0.79539   0.52543   0.00000  Uiso   1.00
C1425  C     0.84510   0.80760   0.98013   0.00000  Uiso   1.00
C1426  C     0.82731   0.81435   0.52770   0.00000  Uiso   1.00
Cu1427 Cu    0.71355   0.83334   0.75000   0.00000  Uiso   1.00
Cu1428 Cu    0.95311   0.83333   0.75000   0.00000  Uiso   1.00
H1429  H     0.93435   0.82944   0.55118   0.00000  Uiso   1.00
H1430  H     0.74306   0.76618   0.96497   0.00000  Uiso   1.00
H1431  H     0.77591   0.85239   0.60412   0.00000  Uiso   1.00
H1432  H     0.88425   0.82638   0.88966   0.00000  Uiso   1.00
H1433  H     0.99680   0.84394   0.98284   0.00000  Uiso   1.00
H1434  H     0.67703   0.77063   0.53242   0.00000  Uiso   1.00
H1435  H     0.92987   0.70456   0.79785   0.00000  Uiso   1.00
H1436  H     0.73664   0.96212   0.70159   0.00000  Uiso   1.00
H1437  H     0.92901   0.96208   0.79751   0.00000  Uiso   1.00
H1438  H     0.73720   0.70463   0.70142   0.00000  Uiso   1.00
H1439  H     0.86884   0.77966   0.79197   0.00000  Uiso   1.00
H1440  H     0.79781   0.88738   0.70851   0.00000  Uiso   1.00
N1441  N     0.78403   0.83334   0.74999   0.00000  Uiso   1.00
N1442  N     0.88264   0.83332   0.75001   0.00000  Uiso   1.00
O1443  O     0.70625   0.77322   0.75000   0.00000  Uiso   1.00
O1444  O     0.96042   0.89345   0.75000   0.00000  Uiso   1.00
O1445  O     0.96039   0.77321   0.75000   0.00000  Uiso   1.00
O1446  O     0.70628   0.89346   0.74999   0.00000  Uiso   1.00
O1447  O     0.68519   0.83334   0.81491   0.00000  Uiso   1.00
O1448  O     0.98148   0.83332   0.68508   0.00000  Uiso   1.00
O1449  O     0.93933   0.83333   0.81492   0.00000  Uiso   1.00
O1450  O     0.72733   0.83333   0.68508   0.00000  Uiso   1.00
C1451  C     0.96698   0.77991   0.62155   0.00000  Uiso   1.00
H1452  H     0.97183   0.76170   0.65202   0.00000  Uiso   1.00
H1453  H     0.94018   0.80531   0.63240   0.00000  Uiso   1.00
H1454  H     0.95307   0.75836   0.60116   0.00000  Uiso   1.00
C1455  C     0.70853   0.85232   0.89382   0.00000  Uiso   1.00
H1456  H     0.71054   0.88006   0.87022   0.00000  Uiso   1.00
H1457  H     0.72622   0.86013   0.92036   0.00000  Uiso   1.00
H1458  H     0.72936   0.82608   0.87540   0.00000  Uiso   1.00
C1459  C     0.84992   0.80593   0.60426   0.00000  Uiso   1.00
H1460  H     0.85129   0.83359   0.62403   0.00000  Uiso   1.00
H1461  H     0.81531   0.79002   0.61802   0.00000  Uiso   1.00
H1462  H     0.87642   0.78240   0.61005   0.00000  Uiso   1.00
C1463  C     0.83305   0.76372   0.91539   0.00000  Uiso   1.00
H1464  H     0.82701   0.78262   0.88588   0.00000  Uiso   1.00
H1465  H     0.87150   0.75458   0.90940   0.00000  Uiso   1.00
H1466  H     0.81362   0.73415   0.91823   0.00000  Uiso   1.00
S1467  S     0.77593   0.75567   0.80012   0.00000  Uiso   1.00
O1468  O     0.77783   0.72623   0.76312   0.00000  Uiso   1.00
O1469  O     0.80350   0.73544   0.83103   0.00000  Uiso   1.00
O1470  O     0.71901   0.76201   0.83175   0.00000  Uiso   1.00
H1471  H     0.70697   0.73353   0.84048   0.00000  Uiso   1.00
S1472  S     0.89254   0.90786   0.69385   0.00000  Uiso   1.00
O1473  O     0.94394   0.90010   0.66859   0.00000  Uiso   1.00
O1474  O     0.86701   0.92321   0.65899   0.00000  Uiso   1.00
O1475  O     0.88950   0.94595   0.73006   0.00000  Uiso   1.00
H1476  H     0.85477   0.95259   0.74189   0.00000  Uiso   1.00
loop_
_geom_bond_atom_site_label_1
_geom_bond_atom_site_label_2
_geom_bond_distance
_geom_bond_site_symmetry_2
_ccdc_geom_bond_type
C1     C12     1.441   .     S
C1     O49     1.305   .     A
C1     O215    1.294   1_455 S
C2     O50     1.304   .     A
C2     C11     1.441   .     S
C2     O134    1.295   .     S
C3     C65     1.514   .     S
C3     C5      1.396   .     A
C3     C32     1.425   .     A
C4     C69     1.509   .     S
C4     C6      1.400   .     A
C4     C31     1.432   .     A
C5     H35     1.084   .     S
C5     C767    1.394   1_554 S
C6     H36     1.086   .     S
C6     C768    1.392   .     S
C7     H41     1.084   .     S
C7     C501    1.385   1_545 S
C7     C94     1.401   .     S
C8     H42     1.084   .     S
C8     C256    1.385   .     S
C8     C175    1.401   1_455 S
C9     H43     1.083   .     S
C9     C11     1.397   .     A
C9     C253    1.385   .     S
C10    H44     1.083   .     S
C10    C12     1.396   .     A
C10    C500    1.385   1_545 S
C11    C90     1.401   .     S
C12    C171    1.401   1_455 S
C13    C15     1.419   .     A
C13    N48     1.347   .     A
C13    H45     1.080   .     S
C14    H46     1.081   .     S
C14    C16     1.418   .     A
C14    N47     1.346   .     A
C15    N47     1.407   .     A
C15    S73     1.787   .     S
C16    N48     1.405   .     A
C16    S78     1.787   .     S
C17    O55     1.314   .     A
C17    C19     1.490   .     S
C17    O135    1.308   .     S
C18    O56     1.309   .     A
C18    C20     1.480   .     S
C18    O218    1.306   1_455 S
C19    C23     1.423   .     A
C19    C25     1.405   .     A
C20    C24     1.418   .     A
C20    C26     1.398   .     A
C21    C29     1.401   .     A
C21    H39     1.085   .     S
C21    C23     1.403   .     A
C22    C24     1.403   .     A
C22    H40     1.085   .     S
C22    C30     1.400   .     A
C23    C143    1.510   .     S
C24    C221    1.503   1_455 S
C25    H38     1.076   .     S
C25    C27     1.405   .     A
C26    H37     1.082   .     S
C26    C28     1.405   .     A
C27    C29     1.412   .     A
C27    C31     1.428   .     A
C28    C32     1.419   .     A
C28    C30     1.406   .     A
C29    C743    1.394   .     S
C30    C744    1.392   1_554 S
C31    C770    1.425   .     S
C32    C769    1.425   1_554 S
Cu33   O52     1.945   .     S
Cu33   O49     1.959   .     S
Cu33   O56     1.907   .     S
Cu33   O53     1.923   .     S
Cu33   N47     2.038   .     S
Cu33   Cu198   2.712   1_455 S
Cu34   O51     1.945   .     S
Cu34   O55     1.907   .     S
Cu34   O50     1.959   .     S
Cu34   O54     1.923   .     S
Cu34   N48     2.038   .     S
Cu34   Cu115   2.712   .     S
O51    C83     1.294   .     S
O52    C166    1.295   1_455 S
O53    C181    1.308   1_455 S
O54    C100    1.306   .     S
C57    H59     1.109   .     S
C57    H60     1.110   .     S
C57    H58     1.110   .     S
C57    C106    1.503   .     S
C61    H63     1.111   .     S
C61    H62     1.110   .     S
C61    H64     1.108   .     S
C61    C187    1.510   1_455 S
C65    H67     1.106   .     S
C65    H68     1.103   .     S
C65    H66     1.110   .     S
C69    H70     1.109   .     S
C69    H71     1.109   .     S
C69    H72     1.111   .     S
S73    O74     1.501   .     D
S73    O75     1.502   .     D
S73    O76     1.677   .     S
O76    H77     0.991   .     S
S78    O80     1.504   .     D
S78    O79     1.496   .     D
S78    O81     1.679   .     S
O81    H82     0.991   .     S
C83    C94     1.441   .     S
C83    O131    1.305   .     A
C84    O132    1.304   .     A
C84    C93     1.441   .     S
C84    O216    1.295   .     S
C85    C147    1.514   .     S
C85    C87     1.396   .     A
C85    C114    1.425   .     A
C86    C151    1.509   .     S
C86    C88     1.400   .     A
C86    C113    1.432   .     A
C87    H117    1.084   .     S
C87    C849    1.394   1_554 S
C88    H118    1.086   .     S
C88    C850    1.392   .     S
C89    H123    1.084   .     S
C89    C583    1.385   1_545 S
C89    C176    1.401   .     S
C90    H124    1.084   .     S
C90    C338    1.385   .     S
C91    H125    1.083   .     S
C91    C93     1.397   .     A
C91    C335    1.385   .     S
C92    H126    1.083   .     S
C92    C94     1.396   .     A
C92    C582    1.385   1_545 S
C93    C172    1.401   .     S
C95    C97     1.419   .     A
C95    N130    1.347   .     A
C95    H127    1.080   .     S
C96    H128    1.081   .     S
C96    C98     1.418   .     A
C96    N129    1.346   .     A
C97    N129    1.407   .     A
C97    S155    1.787   .     S
C98    N130    1.405   .     A
C98    S160    1.787   .     S
C99    O137    1.314   .     A
C99    C101    1.490   .     S
C99    O217    1.308   .     S
C100   O138    1.309   .     A
C100   C102    1.480   .     S
C101   C105    1.423   .     A
C101   C107    1.405   .     A
C102   C106    1.418   .     A
C102   C108    1.398   .     A
C103   C111    1.401   .     A
C103   H121    1.085   .     S
C103   C105    1.403   .     A
C104   C106    1.403   .     A
C104   H122    1.085   .     S
C104   C112    1.400   .     A
C105   C225    1.510   .     S
C107   H120    1.076   .     S
C107   C109    1.405   .     A
C108   H119    1.082   .     S
C108   C110    1.405   .     A
C109   C111    1.412   .     A
C109   C113    1.428   .     A
C110   C114    1.419   .     A
C110   C112    1.406   .     A
C111   C825    1.394   .     S
C112   C826    1.392   1_554 S
C113   C852    1.425   .     S
C114   C851    1.425   1_554 S
Cu115  O134    1.945   .     S
Cu115  O131    1.959   .     S
Cu115  O138    1.907   .     S
Cu115  O135    1.923   .     S
Cu115  N129    2.038   .     S
Cu116  O133    1.945   .     S
Cu116  O137    1.907   .     S
Cu116  O132    1.959   .     S
Cu116  O136    1.923   .     S
Cu116  N130    2.038   .     S
Cu116  Cu197   2.712   .     S
O133   C165    1.294   .     S
O136   C182    1.306   .     S
C139   H141    1.109   .     S
C139   H142    1.110   .     S
C139   H140    1.110   .     S
C139   C188    1.503   .     S
C143   H145    1.111   .     S
C143   H144    1.110   .     S
C143   H146    1.108   .     S
C147   H149    1.106   .     S
C147   H150    1.103   .     S
C147   H148    1.110   .     S
C151   H152    1.109   .     S
C151   H153    1.109   .     S
C151   H154    1.111   .     S
S155   O156    1.501   .     D
S155   O157    1.502   .     D
S155   O158    1.677   .     S
O158   H159    0.991   .     S
S160   O162    1.504   .     D
S160   O161    1.496   .     D
S160   O163    1.679   .     S
O163   H164    0.991   .     S
C165   C176    1.441   .     S
C165   O213    1.305   .     A
C166   O214    1.304   .     A
C166   C175    1.441   .     S
C166   O52     1.295   1_655 S
C167   C229    1.514   .     S
C167   C169    1.396   .     A
C167   C196    1.425   .     A
C168   C233    1.509   .     S
C168   C170    1.400   .     A
C168   C195    1.432   .     A
C169   H199    1.084   .     S
C169   C931    1.394   1_554 S
C170   H200    1.086   .     S
C170   C932    1.392   .     S
C171   H205    1.084   .     S
C171   C665    1.385   1_545 S
C171   C12     1.401   1_655 S
C172   H206    1.084   .     S
C172   C420    1.385   .     S
C173   H207    1.083   .     S
C173   C175    1.397   .     A
C173   C417    1.385   .     S
C174   H208    1.083   .     S
C174   C176    1.396   .     A
C174   C664    1.385   1_545 S
C175   C8      1.401   1_655 S
C177   C179    1.419   .     A
C177   N212    1.347   .     A
C177   H209    1.080   .     S
C178   H210    1.081   .     S
C178   C180    1.418   .     A
C178   N211    1.346   .     A
C179   N211    1.407   .     A
C179   S237    1.787   .     S
C180   N212    1.405   .     A
C180   S242    1.787   .     S
C181   O219    1.314   .     A
C181   C183    1.490   .     S
C181   O53     1.308   1_655 S
C182   O220    1.309   .     A
C182   C184    1.480   .     S
C183   C187    1.423   .     A
C183   C189    1.405   .     A
C184   C188    1.418   .     A
C184   C190    1.398   .     A
C185   C193    1.401   .     A
C185   H203    1.085   .     S
C185   C187    1.403   .     A
C186   C188    1.403   .     A
C186   H204    1.085   .     S
C186   C194    1.400   .     A
C187   C61     1.510   1_655 S
C189   H202    1.076   .     S
C189   C191    1.405   .     A
C190   H201    1.082   .     S
C190   C192    1.405   .     A
C191   C193    1.412   .     A
C191   C195    1.428   .     A
C192   C196    1.419   .     A
C192   C194    1.406   .     A
C193   C907    1.394   .     S
C194   C908    1.392   1_554 S
C195   C934    1.425   .     S
C196   C933    1.425   1_554 S
Cu197  O216    1.945   .     S
Cu197  O213    1.959   .     S
Cu197  O220    1.907   .     S
Cu197  O217    1.923   .     S
Cu197  N211    2.038   .     S
Cu198  O215    1.945   .     S
Cu198  O219    1.907   .     S
Cu198  O214    1.959   .     S
Cu198  O218    1.923   .     S
Cu198  N212    2.038   .     S
Cu198  Cu33    2.712   1_655 S
O215   C1      1.294   1_655 S
O218   C18     1.306   1_655 S
C221   H223    1.109   .     S
C221   H224    1.110   .     S
C221   H222    1.110   .     S
C221   C24     1.503   1_655 S
C225   H227    1.111   .     S
C225   H226    1.110   .     S
C225   H228    1.108   .     S
C229   H231    1.106   .     S
C229   H232    1.103   .     S
C229   H230    1.110   .     S
C233   H234    1.109   .     S
C233   H235    1.109   .     S
C233   H236    1.111   .     S
S237   O238    1.501   .     D
S237   O239    1.502   .     D
S237   O240    1.677   .     S
O240   H241    0.991   .     S
S242   O244    1.504   .     D
S242   O243    1.496   .     D
S242   O245    1.679   .     S
O245   H246    0.991   .     S
C247   C258    1.441   .     S
C247   O295    1.305   .     A
C247   O461    1.294   1_455 S
C248   O296    1.304   .     A
C248   C257    1.441   .     S
C248   O380    1.295   .     S
C249   C311    1.514   .     S
C249   C251    1.396   .     A
C249   C278    1.425   .     A
C250   C315    1.509   .     S
C250   C252    1.400   .     A
C250   C277    1.432   .     A
C251   H281    1.084   .     S
C251   C1013   1.394   1_554 S
C252   H282    1.086   .     S
C252   C1014   1.392   .     S
C253   H287    1.084   .     S
C253   C340    1.401   .     S
C254   H288    1.084   .     S
C254   C502    1.385   .     S
C254   C421    1.401   1_455 S
C255   H289    1.083   .     S
C255   C257    1.397   .     A
C255   C499    1.385   .     S
C256   H290    1.083   .     S
C256   C258    1.396   .     A
C257   C336    1.401   .     S
C258   C417    1.401   1_455 S
C259   C261    1.419   .     A
C259   N294    1.347   .     A
C259   H291    1.080   .     S
C260   H292    1.081   .     S
C260   C262    1.418   .     A
C260   N293    1.346   .     A
C261   N293    1.407   .     A
C261   S319    1.787   .     S
C262   N294    1.405   .     A
C262   S324    1.787   .     S
C263   O301    1.314   .     A
C263   C265    1.490   .     S
C263   O381    1.308   .     S
C264   O302    1.309   .     A
C264   C266    1.480   .     S
C264   O464    1.306   1_455 S
C265   C269    1.423   .     A
C265   C271    1.405   .     A
C266   C270    1.418   .     A
C266   C272    1.398   .     A
C267   C275    1.401   .     A
C267   H285    1.085   .     S
C267   C269    1.403   .     A
C268   C270    1.403   .     A
C268   H286    1.085   .     S
C268   C276    1.400   .     A
C269   C389    1.510   .     S
C270   C467    1.503   1_455 S
C271   H284    1.076   .     S
C271   C273    1.405   .     A
C272   H283    1.082   .     S
C272   C274    1.405   .     A
C273   C275    1.412   .     A
C273   C277    1.428   .     A
C274   C278    1.419   .     A
C274   C276    1.406   .     A
C275   C989    1.394   .     S
C276   C990    1.392   1_554 S
C277   C1016   1.425   .     S
C278   C1015   1.425   1_554 S
Cu279  O298    1.945   .     S
Cu279  O295    1.959   .     S
Cu279  O302    1.907   .     S
Cu279  O299    1.923   .     S
Cu279  N293    2.038   .     S
Cu279  Cu444   2.712   1_455 S
Cu280  O297    1.945   .     S
Cu280  O301    1.907   .     S
Cu280  O296    1.959   .     S
Cu280  O300    1.923   .     S
Cu280  N294    2.038   .     S
Cu280  Cu361   2.712   .     S
O297   C329    1.294   .     S
O298   C412    1.295   1_455 S
O299   C427    1.308   1_455 S
O300   C346    1.306   .     S
C303   H305    1.109   .     S
C303   H306    1.110   .     S
C303   H304    1.110   .     S
C303   C352    1.503   .     S
C307   H309    1.111   .     S
C307   H308    1.110   .     S
C307   H310    1.108   .     S
C307   C433    1.510   1_455 S
C311   H313    1.106   .     S
C311   H314    1.103   .     S
C311   H312    1.110   .     S
C315   H316    1.109   .     S
C315   H317    1.109   .     S
C315   H318    1.111   .     S
S319   O320    1.501   .     D
S319   O321    1.502   .     D
S319   O322    1.677   .     S
O322   H323    0.991   .     S
S324   O326    1.504   .     D
S324   O325    1.496   .     D
S324   O327    1.679   .     S
O327   H328    0.991   .     S
C329   C340    1.441   .     S
C329   O377    1.305   .     A
C330   O378    1.304   .     A
C330   C339    1.441   .     S
C330   O462    1.295   .     S
C331   C393    1.514   .     S
C331   C333    1.396   .     A
C331   C360    1.425   .     A
C332   C397    1.509   .     S
C332   C334    1.400   .     A
C332   C359    1.432   .     A
C333   H363    1.084   .     S
C333   C1095   1.394   1_554 S
C334   H364    1.086   .     S
C334   C1096   1.392   .     S
C335   H369    1.084   .     S
C335   C422    1.401   .     S
C336   H370    1.084   .     S
C336   C584    1.385   .     S
C337   H371    1.083   .     S
C337   C339    1.397   .     A
C337   C581    1.385   .     S
C338   H372    1.083   .     S
C338   C340    1.396   .     A
C339   C418    1.401   .     S
C341   C343    1.419   .     A
C341   N376    1.347   .     A
C341   H373    1.080   .     S
C342   H374    1.081   .     S
C342   C344    1.418   .     A
C342   N375    1.346   .     A
C343   N375    1.407   .     A
C343   S401    1.787   .     S
C344   N376    1.405   .     A
C344   S406    1.787   .     S
C345   O383    1.314   .     A
C345   C347    1.490   .     S
C345   O463    1.308   .     S
C346   O384    1.309   .     A
C346   C348    1.480   .     S
C347   C351    1.423   .     A
C347   C353    1.405   .     A
C348   C352    1.418   .     A
C348   C354    1.398   .     A
C349   C357    1.401   .     A
C349   H367    1.085   .     S
C349   C351    1.403   .     A
C350   C352    1.403   .     A
C350   H368    1.085   .     S
C350   C358    1.400   .     A
C351   C471    1.510   .     S
C353   H366    1.076   .     S
C353   C355    1.405   .     A
C354   H365    1.082   .     S
C354   C356    1.405   .     A
C355   C357    1.412   .     A
C355   C359    1.428   .     A
C356   C360    1.419   .     A
C356   C358    1.406   .     A
C357   C1071   1.394   .     S
C358   C1072   1.392   1_554 S
C359   C1098   1.425   .     S
C360   C1097   1.425   1_554 S
Cu361  O380    1.945   .     S
Cu361  O377    1.959   .     S
Cu361  O384    1.907   .     S
Cu361  O381    1.923   .     S
Cu361  N375    2.038   .     S
Cu362  O379    1.945   .     S
Cu362  O383    1.907   .     S
Cu362  O378    1.959   .     S
Cu362  O382    1.923   .     S
Cu362  N376    2.038   .     S
Cu362  Cu443   2.712   .     S
O379   C411    1.294   .     S
O382   C428    1.306   .     S
C385   H387    1.109   .     S
C385   H388    1.110   .     S
C385   H386    1.110   .     S
C385   C434    1.503   .     S
C389   H391    1.111   .     S
C389   H390    1.110   .     S
C389   H392    1.108   .     S
C393   H395    1.106   .     S
C393   H396    1.103   .     S
C393   H394    1.110   .     S
C397   H398    1.109   .     S
C397   H399    1.109   .     S
C397   H400    1.111   .     S
S401   O402    1.501   .     D
S401   O403    1.502   .     D
S401   O404    1.677   .     S
O404   H405    0.991   .     S
S406   O408    1.504   .     D
S406   O407    1.496   .     D
S406   O409    1.679   .     S
O409   H410    0.991   .     S
C411   C422    1.441   .     S
C411   O459    1.305   .     A
C412   O460    1.304   .     A
C412   C421    1.441   .     S
C412   O298    1.295   1_655 S
C413   C475    1.514   .     S
C413   C415    1.396   .     A
C413   C442    1.425   .     A
C414   C479    1.509   .     S
C414   C416    1.400   .     A
C414   C441    1.432   .     A
C415   H445    1.084   .     S
C415   C1177   1.394   1_554 S
C416   H446    1.086   .     S
C416   C1178   1.392   .     S
C417   H451    1.084   .     S
C417   C258    1.401   1_655 S
C418   H452    1.084   .     S
C418   C666    1.385   .     S
C419   H453    1.083   .     S
C419   C421    1.397   .     A
C419   C663    1.385   .     S
C420   H454    1.083   .     S
C420   C422    1.396   .     A
C421   C254    1.401   1_655 S
C423   C425    1.419   .     A
C423   N458    1.347   .     A
C423   H455    1.080   .     S
C424   H456    1.081   .     S
C424   C426    1.418   .     A
C424   N457    1.346   .     A
C425   N457    1.407   .     A
C425   S483    1.787   .     S
C426   N458    1.405   .     A
C426   S488    1.787   .     S
C427   O465    1.314   .     A
C427   C429    1.490   .     S
C427   O299    1.308   1_655 S
C428   O466    1.309   .     A
C428   C430    1.480   .     S
C429   C433    1.423   .     A
C429   C435    1.405   .     A
C430   C434    1.418   .     A
C430   C436    1.398   .     A
C431   C439    1.401   .     A
C431   H449    1.085   .     S
C431   C433    1.403   .     A
C432   C434    1.403   .     A
C432   H450    1.085   .     S
C432   C440    1.400   .     A
C433   C307    1.510   1_655 S
C435   H448    1.076   .     S
C435   C437    1.405   .     A
C436   H447    1.082   .     S
C436   C438    1.405   .     A
C437   C439    1.412   .     A
C437   C441    1.428   .     A
C438   C442    1.419   .     A
C438   C440    1.406   .     A
C439   C1153   1.394   .     S
C440   C1154   1.392   1_554 S
C441   C1180   1.425   .     S
C442   C1179   1.425   1_554 S
Cu443  O462    1.945   .     S
Cu443  O459    1.959   .     S
Cu443  O466    1.907   .     S
Cu443  O463    1.923   .     S
Cu443  N457    2.038   .     S
Cu444  O461    1.945   .     S
Cu444  O465    1.907   .     S
Cu444  O460    1.959   .     S
Cu444  O464    1.923   .     S
Cu444  N458    2.038   .     S
Cu444  Cu279   2.712   1_655 S
O461   C247    1.294   1_655 S
O464   C264    1.306   1_655 S
C467   H469    1.109   .     S
C467   H470    1.110   .     S
C467   H468    1.110   .     S
C467   C270    1.503   1_655 S
C471   H473    1.111   .     S
C471   H472    1.110   .     S
C471   H474    1.108   .     S
C475   H477    1.106   .     S
C475   H478    1.103   .     S
C475   H476    1.110   .     S
C479   H480    1.109   .     S
C479   H481    1.109   .     S
C479   H482    1.111   .     S
S483   O484    1.501   .     D
S483   O485    1.502   .     D
S483   O486    1.677   .     S
O486   H487    0.991   .     S
S488   O490    1.504   .     D
S488   O489    1.496   .     D
S488   O491    1.679   .     S
O491   H492    0.991   .     S
C493   C504    1.441   .     S
C493   O541    1.305   .     A
C493   O707    1.294   1_455 S
C494   O542    1.304   .     A
C494   C503    1.441   .     S
C494   O626    1.295   .     S
C495   C557    1.514   .     S
C495   C497    1.396   .     A
C495   C524    1.425   .     A
C496   C561    1.509   .     S
C496   C498    1.400   .     A
C496   C523    1.432   .     A
C497   H527    1.084   .     S
C497   C1259   1.394   1_554 S
C498   H528    1.086   .     S
C498   C1260   1.392   .     S
C499   H533    1.084   .     S
C499   C586    1.401   .     S
C500   H534    1.084   .     S
C500   C10     1.385   1_565 S
C500   C667    1.401   1_455 S
C501   H535    1.083   .     S
C501   C503    1.397   .     A
C501   C7      1.385   1_565 S
C502   H536    1.083   .     S
C502   C504    1.396   .     A
C503   C582    1.401   .     S
C504   C663    1.401   1_455 S
C505   C507    1.419   .     A
C505   N540    1.347   .     A
C505   H537    1.080   .     S
C506   H538    1.081   .     S
C506   C508    1.418   .     A
C506   N539    1.346   .     A
C507   N539    1.407   .     A
C507   S565    1.787   .     S
C508   N540    1.405   .     A
C508   S570    1.787   .     S
C509   O547    1.314   .     A
C509   C511    1.490   .     S
C509   O627    1.308   .     S
C510   O548    1.309   .     A
C510   C512    1.480   .     S
C510   O710    1.306   1_455 S
C511   C515    1.423   .     A
C511   C517    1.405   .     A
C512   C516    1.418   .     A
C512   C518    1.398   .     A
C513   C521    1.401   .     A
C513   H531    1.085   .     S
C513   C515    1.403   .     A
C514   C516    1.403   .     A
C514   H532    1.085   .     S
C514   C522    1.400   .     A
C515   C635    1.510   .     S
C516   C713    1.503   1_455 S
C517   H530    1.076   .     S
C517   C519    1.405   .     A
C518   H529    1.082   .     S
C518   C520    1.405   .     A
C519   C521    1.412   .     A
C519   C523    1.428   .     A
C520   C524    1.419   .     A
C520   C522    1.406   .     A
C521   C1235   1.394   .     S
C522   C1236   1.392   1_554 S
C523   C1262   1.425   .     S
C524   C1261   1.425   1_554 S
Cu525  O544    1.945   .     S
Cu525  O541    1.959   .     S
Cu525  O548    1.907   .     S
Cu525  O545    1.923   .     S
Cu525  N539    2.038   .     S
Cu525  Cu690   2.712   1_455 S
Cu526  O543    1.945   .     S
Cu526  O547    1.907   .     S
Cu526  O542    1.959   .     S
Cu526  O546    1.923   .     S
Cu526  N540    2.038   .     S
Cu526  Cu607   2.712   .     S
O543   C575    1.294   .     S
O544   C658    1.295   1_455 S
O545   C673    1.308   1_455 S
O546   C592    1.306   .     S
C549   H551    1.109   .     S
C549   H552    1.110   .     S
C549   H550    1.110   .     S
C549   C598    1.503   .     S
C553   H555    1.111   .     S
C553   H554    1.110   .     S
C553   H556    1.108   .     S
C553   C679    1.510   1_455 S
C557   H559    1.106   .     S
C557   H560    1.103   .     S
C557   H558    1.110   .     S
C561   H562    1.109   .     S
C561   H563    1.109   .     S
C561   H564    1.111   .     S
S565   O566    1.501   .     D
S565   O567    1.502   .     D
S565   O568    1.677   .     S
O568   H569    0.991   .     S
S570   O572    1.504   .     D
S570   O571    1.496   .     D
S570   O573    1.679   .     S
O573   H574    0.991   .     S
C575   C586    1.441   .     S
C575   O623    1.305   .     A
C576   O624    1.304   .     A
C576   C585    1.441   .     S
C576   O708    1.295   .     S
C577   C639    1.514   .     S
C577   C579    1.396   .     A
C577   C606    1.425   .     A
C578   C643    1.509   .     S
C578   C580    1.400   .     A
C578   C605    1.432   .     A
C579   H609    1.084   .     S
C579   C1341   1.394   1_554 S
C580   H610    1.086   .     S
C580   C1342   1.392   .     S
C581   H615    1.084   .     S
C581   C668    1.401   .     S
C582   H616    1.084   .     S
C582   C92     1.385   1_565 S
C583   H617    1.083   .     S
C583   C585    1.397   .     A
C583   C89     1.385   1_565 S
C584   H618    1.083   .     S
C584   C586    1.396   .     A
C585   C664    1.401   .     S
C587   C589    1.419   .     A
C587   N622    1.347   .     A
C587   H619    1.080   .     S
C588   H620    1.081   .     S
C588   C590    1.418   .     A
C588   N621    1.346   .     A
C589   N621    1.407   .     A
C589   S647    1.787   .     S
C590   N622    1.405   .     A
C590   S652    1.787   .     S
C591   O629    1.314   .     A
C591   C593    1.490   .     S
C591   O709    1.308   .     S
C592   O630    1.309   .     A
C592   C594    1.480   .     S
C593   C597    1.423   .     A
C593   C599    1.405   .     A
C594   C598    1.418   .     A
C594   C600    1.398   .     A
C595   C603    1.401   .     A
C595   H613    1.085   .     S
C595   C597    1.403   .     A
C596   C598    1.403   .     A
C596   H614    1.085   .     S
C596   C604    1.400   .     A
C597   C717    1.510   .     S
C599   H612    1.076   .     S
C599   C601    1.405   .     A
C600   H611    1.082   .     S
C600   C602    1.405   .     A
C601   C603    1.412   .     A
C601   C605    1.428   .     A
C602   C606    1.419   .     A
C602   C604    1.406   .     A
C603   C1317   1.394   .     S
C604   C1318   1.392   1_554 S
C605   C1344   1.425   .     S
C606   C1343   1.425   1_554 S
Cu607  O626    1.945   .     S
Cu607  O623    1.959   .     S
Cu607  O630    1.907   .     S
Cu607  O627    1.923   .     S
Cu607  N621    2.038   .     S
Cu608  O625    1.945   .     S
Cu608  O629    1.907   .     S
Cu608  O624    1.959   .     S
Cu608  O628    1.923   .     S
Cu608  N622    2.038   .     S
Cu608  Cu689   2.712   .     S
O625   C657    1.294   .     S
O628   C674    1.306   .     S
C631   H633    1.109   .     S
C631   H634    1.110   .     S
C631   H632    1.110   .     S
C631   C680    1.503   .     S
C635   H637    1.111   .     S
C635   H636    1.110   .     S
C635   H638    1.108   .     S
C639   H641    1.106   .     S
C639   H642    1.103   .     S
C639   H640    1.110   .     S
C643   H644    1.109   .     S
C643   H645    1.109   .     S
C643   H646    1.111   .     S
S647   O648    1.501   .     D
S647   O649    1.502   .     D
S647   O650    1.677   .     S
O650   H651    0.991   .     S
S652   O654    1.504   .     D
S652   O653    1.496   .     D
S652   O655    1.679   .     S
O655   H656    0.991   .     S
C657   C668    1.441   .     S
C657   O705    1.305   .     A
C658   O706    1.304   .     A
C658   C667    1.441   .     S
C658   O544    1.295   1_655 S
C659   C721    1.514   .     S
C659   C661    1.396   .     A
C659   C688    1.425   .     A
C660   C725    1.509   .     S
C660   C662    1.400   .     A
C660   C687    1.432   .     A
C661   H691    1.084   .     S
C661   C1423   1.394   1_554 S
C662   H692    1.086   .     S
C662   C1424   1.392   .     S
C663   H697    1.084   .     S
C663   C504    1.401   1_655 S
C664   H698    1.084   .     S
C664   C174    1.385   1_565 S
C665   H699    1.083   .     S
C665   C667    1.397   .     A
C665   C171    1.385   1_565 S
C666   H700    1.083   .     S
C666   C668    1.396   .     A
C667   C500    1.401   1_655 S
C669   C671    1.419   .     A
C669   N704    1.347   .     A
C669   H701    1.080   .     S
C670   H702    1.081   .     S
C670   C672    1.418   .     A
C670   N703    1.346   .     A
C671   N703    1.407   .     A
C671   S729    1.787   .     S
C672   N704    1.405   .     A
C672   S734    1.787   .     S
C673   O711    1.314   .     A
C673   C675    1.490   .     S
C673   O545    1.308   1_655 S
C674   O712    1.309   .     A
C674   C676    1.480   .     S
C675   C679    1.423   .     A
C675   C681    1.405   .     A
C676   C680    1.418   .     A
C676   C682    1.398   .     A
C677   C685    1.401   .     A
C677   H695    1.085   .     S
C677   C679    1.403   .     A
C678   C680    1.403   .     A
C678   H696    1.085   .     S
C678   C686    1.400   .     A
C679   C553    1.510   1_655 S
C681   H694    1.076   .     S
C681   C683    1.405   .     A
C682   H693    1.082   .     S
C682   C684    1.405   .     A
C683   C685    1.412   .     A
C683   C687    1.428   .     A
C684   C688    1.419   .     A
C684   C686    1.406   .     A
C685   C1399   1.394   .     S
C686   C1400   1.392   1_554 S
C687   C1426   1.425   .     S
C688   C1425   1.425   1_554 S
Cu689  O708    1.945   .     S
Cu689  O705    1.959   .     S
Cu689  O712    1.907   .     S
Cu689  O709    1.923   .     S
Cu689  N703    2.038   .     S
Cu690  O707    1.945   .     S
Cu690  O711    1.907   .     S
Cu690  O706    1.959   .     S
Cu690  O710    1.923   .     S
Cu690  N704    2.038   .     S
Cu690  Cu525   2.712   1_655 S
O707   C493    1.294   1_655 S
O710   C510    1.306   1_655 S
C713   H715    1.109   .     S
C713   H716    1.110   .     S
C713   H714    1.110   .     S
C713   C516    1.503   1_655 S
C717   H719    1.111   .     S
C717   H718    1.110   .     S
C717   H720    1.108   .     S
C721   H723    1.106   .     S
C721   H724    1.103   .     S
C721   H722    1.110   .     S
C725   H726    1.109   .     S
C725   H727    1.109   .     S
C725   H728    1.111   .     S
S729   O730    1.501   .     D
S729   O731    1.502   .     D
S729   O732    1.677   .     S
O732   H733    0.991   .     S
S734   O736    1.504   .     D
S734   O735    1.496   .     D
S734   O737    1.679   .     S
O737   H738    0.991   .     S
C739   C750    1.441   .     S
C739   O787    1.305   .     A
C739   O953    1.294   1_455 S
C740   O788    1.304   .     A
C740   C749    1.441   .     S
C740   O872    1.295   .     S
C741   C803    1.514   .     S
C741   C743    1.396   .     A
C741   C770    1.425   .     A
C742   C807    1.509   .     S
C742   C744    1.400   .     A
C742   C769    1.432   .     A
C743   H773    1.084   .     S
C744   H774    1.086   .     S
C744   C30     1.392   1_556 S
C745   H779    1.084   .     S
C745   C1239   1.385   1_545 S
C745   C832    1.401   .     S
C746   H780    1.084   .     S
C746   C994    1.385   .     S
C746   C913    1.401   1_455 S
C747   H781    1.083   .     S
C747   C749    1.397   .     A
C747   C991    1.385   .     S
C748   H782    1.083   .     S
C748   C750    1.396   .     A
C748   C1238   1.385   1_545 S
C749   C828    1.401   .     S
C750   C909    1.401   1_455 S
C751   C753    1.419   .     A
C751   N786    1.347   .     A
C751   H783    1.080   .     S
C752   H784    1.081   .     S
C752   C754    1.418   .     A
C752   N785    1.346   .     A
C753   N785    1.407   .     A
C753   S811    1.787   .     S
C754   N786    1.405   .     A
C754   S816    1.787   .     S
C755   O793    1.314   .     A
C755   C757    1.490   .     S
C755   O873    1.308   .     S
C756   O794    1.309   .     A
C756   C758    1.480   .     S
C756   O956    1.306   1_455 S
C757   C761    1.423   .     A
C757   C763    1.405   .     A
C758   C762    1.418   .     A
C758   C764    1.398   .     A
C759   C767    1.401   .     A
C759   H777    1.085   .     S
C759   C761    1.403   .     A
C760   C762    1.403   .     A
C760   H778    1.085   .     S
C760   C768    1.400   .     A
C761   C881    1.510   .     S
C762   C959    1.503   1_455 S
C763   H776    1.076   .     S
C763   C765    1.405   .     A
C764   H775    1.082   .     S
C764   C766    1.405   .     A
C765   C767    1.412   .     A
C765   C769    1.428   .     A
C766   C770    1.419   .     A
C766   C768    1.406   .     A
C767   C5      1.394   1_556 S
C769   C32     1.425   1_556 S
Cu771  O790    1.945   .     S
Cu771  O787    1.959   .     S
Cu771  O794    1.907   .     S
Cu771  O791    1.923   .     S
Cu771  N785    2.038   .     S
Cu771  Cu936   2.712   1_455 S
Cu772  O789    1.945   .     S
Cu772  O793    1.907   .     S
Cu772  O788    1.959   .     S
Cu772  O792    1.923   .     S
Cu772  N786    2.038   .     S
Cu772  Cu853   2.712   .     S
O789   C821    1.294   .     S
O790   C904    1.295   1_455 S
O791   C919    1.308   1_455 S
O792   C838    1.306   .     S
C795   H797    1.109   .     S
C795   H798    1.110   .     S
C795   H796    1.110   .     S
C795   C844    1.503   .     S
C799   H801    1.111   .     S
C799   H800    1.110   .     S
C799   H802    1.108   .     S
C799   C925    1.510   1_455 S
C803   H805    1.106   .     S
C803   H806    1.103   .     S
C803   H804    1.110   .     S
C807   H808    1.109   .     S
C807   H809    1.109   .     S
C807   H810    1.111   .     S
S811   O812    1.501   .     D
S811   O813    1.502   .     D
S811   O814    1.677   .     S
O814   H815    0.991   .     S
S816   O818    1.504   .     D
S816   O817    1.496   .     D
S816   O819    1.679   .     S
O819   H820    0.991   .     S
C821   C832    1.441   .     S
C821   O869    1.305   .     A
C822   O870    1.304   .     A
C822   C831    1.441   .     S
C822   O954    1.295   .     S
C823   C885    1.514   .     S
C823   C825    1.396   .     A
C823   C852    1.425   .     A
C824   C889    1.509   .     S
C824   C826    1.400   .     A
C824   C851    1.432   .     A
C825   H855    1.084   .     S
C826   H856    1.086   .     S
C826   C112    1.392   1_556 S
C827   H861    1.084   .     S
C827   C1321   1.385   1_545 S
C827   C914    1.401   .     S
C828   H862    1.084   .     S
C828   C1076   1.385   .     S
C829   H863    1.083   .     S
C829   C831    1.397   .     A
C829   C1073   1.385   .     S
C830   H864    1.083   .     S
C830   C832    1.396   .     A
C830   C1320   1.385   1_545 S
C831   C910    1.401   .     S
C833   C835    1.419   .     A
C833   N868    1.347   .     A
C833   H865    1.080   .     S
C834   H866    1.081   .     S
C834   C836    1.418   .     A
C834   N867    1.346   .     A
C835   N867    1.407   .     A
C835   S893    1.787   .     S
C836   N868    1.405   .     A
C836   S898    1.787   .     S
C837   O875    1.314   .     A
C837   C839    1.490   .     S
C837   O955    1.308   .     S
C838   O876    1.309   .     A
C838   C840    1.480   .     S
C839   C843    1.423   .     A
C839   C845    1.405   .     A
C840   C844    1.418   .     A
C840   C846    1.398   .     A
C841   C849    1.401   .     A
C841   H859    1.085   .     S
C841   C843    1.403   .     A
C842   C844    1.403   .     A
C842   H860    1.085   .     S
C842   C850    1.400   .     A
C843   C963    1.510   .     S
C845   H858    1.076   .     S
C845   C847    1.405   .     A
C846   H857    1.082   .     S
C846   C848    1.405   .     A
C847   C849    1.412   .     A
C847   C851    1.428   .     A
C848   C852    1.419   .     A
C848   C850    1.406   .     A
C849   C87     1.394   1_556 S
C851   C114    1.425   1_556 S
Cu853  O872    1.945   .     S
Cu853  O869    1.959   .     S
Cu853  O876    1.907   .     S
Cu853  O873    1.923   .     S
Cu853  N867    2.038   .     S
Cu854  O871    1.945   .     S
Cu854  O875    1.907   .     S
Cu854  O870    1.959   .     S
Cu854  O874    1.923   .     S
Cu854  N868    2.038   .     S
Cu854  Cu935   2.712   .     S
O871   C903    1.294   .     S
O874   C920    1.306   .     S
C877   H879    1.109   .     S
C877   H880    1.110   .     S
C877   H878    1.110   .     S
C877   C926    1.503   .     S
C881   H883    1.111   .     S
C881   H882    1.110   .     S
C881   H884    1.108   .     S
C885   H887    1.106   .     S
C885   H888    1.103   .     S
C885   H886    1.110   .     S
C889   H890    1.109   .     S
C889   H891    1.109   .     S
C889   H892    1.111   .     S
S893   O894    1.501   .     D
S893   O895    1.502   .     D
S893   O896    1.677   .     S
O896   H897    0.991   .     S
S898   O900    1.504   .     D
S898   O899    1.496   .     D
S898   O901    1.679   .     S
O901   H902    0.991   .     S
C903   C914    1.441   .     S
C903   O951    1.305   .     A
C904   O952    1.304   .     A
C904   C913    1.441   .     S
C904   O790    1.295   1_655 S
C905   C967    1.514   .     S
C905   C907    1.396   .     A
C905   C934    1.425   .     A
C906   C971    1.509   .     S
C906   C908    1.400   .     A
C906   C933    1.432   .     A
C907   H937    1.084   .     S
C908   H938    1.086   .     S
C908   C194    1.392   1_556 S
C909   H943    1.084   .     S
C909   C1403   1.385   1_545 S
C909   C750    1.401   1_655 S
C910   H944    1.084   .     S
C910   C1158   1.385   .     S
C911   H945    1.083   .     S
C911   C913    1.397   .     A
C911   C1155   1.385   .     S
C912   H946    1.083   .     S
C912   C914    1.396   .     A
C912   C1402   1.385   1_545 S
C913   C746    1.401   1_655 S
C915   C917    1.419   .     A
C915   N950    1.347   .     A
C915   H947    1.080   .     S
C916   H948    1.081   .     S
C916   C918    1.418   .     A
C916   N949    1.346   .     A
C917   N949    1.407   .     A
C917   S975    1.787   .     S
C918   N950    1.405   .     A
C918   S980    1.787   .     S
C919   O957    1.314   .     A
C919   C921    1.490   .     S
C919   O791    1.308   1_655 S
C920   O958    1.309   .     A
C920   C922    1.480   .     S
C921   C925    1.423   .     A
C921   C927    1.405   .     A
C922   C926    1.418   .     A
C922   C928    1.398   .     A
C923   C931    1.401   .     A
C923   H941    1.085   .     S
C923   C925    1.403   .     A
C924   C926    1.403   .     A
C924   H942    1.085   .     S
C924   C932    1.400   .     A
C925   C799    1.510   1_655 S
C927   H940    1.076   .     S
C927   C929    1.405   .     A
C928   H939    1.082   .     S
C928   C930    1.405   .     A
C929   C931    1.412   .     A
C929   C933    1.428   .     A
C930   C934    1.419   .     A
C930   C932    1.406   .     A
C931   C169    1.394   1_556 S
C933   C196    1.425   1_556 S
Cu935  O954    1.945   .     S
Cu935  O951    1.959   .     S
Cu935  O958    1.907   .     S
Cu935  O955    1.923   .     S
Cu935  N949    2.038   .     S
Cu936  O953    1.945   .     S
Cu936  O957    1.907   .     S
Cu936  O952    1.959   .     S
Cu936  O956    1.923   .     S
Cu936  N950    2.038   .     S
Cu936  Cu771   2.712   1_655 S
O953   C739    1.294   1_655 S
O956   C756    1.306   1_655 S
C959   H961    1.109   .     S
C959   H962    1.110   .     S
C959   H960    1.110   .     S
C959   C762    1.503   1_655 S
C963   H965    1.111   .     S
C963   H964    1.110   .     S
C963   H966    1.108   .     S
C967   H969    1.106   .     S
C967   H970    1.103   .     S
C967   H968    1.110   .     S
C971   H972    1.109   .     S
C971   H973    1.109   .     S
C971   H974    1.111   .     S
S975   O976    1.501   .     D
S975   O977    1.502   .     D
S975   O978    1.677   .     S
O978   H979    0.991   .     S
S980   O982    1.504   .     D
S980   O981    1.496   .     D
S980   O983    1.679   .     S
O983   H984    0.991   .     S
C985   C996    1.441   .     S
C985   O1033   1.305   .     A
C985   O1199   1.294   1_455 S
C986   O1034   1.304   .     A
C986   C995    1.441   .     S
C986   O1118   1.295   .     S
C987   C1049   1.514   .     S
C987   C989    1.396   .     A
C987   C1016   1.425   .     A
C988   C1053   1.509   .     S
C988   C990    1.400   .     A
C988   C1015   1.432   .     A
C989   H1019   1.084   .     S
C990   H1020   1.086   .     S
C990   C276    1.392   1_556 S
C991   H1025   1.084   .     S
C991   C1078   1.401   .     S
C992   H1026   1.084   .     S
C992   C1240   1.385   .     S
C992   C1159   1.401   1_455 S
C993   H1027   1.083   .     S
C993   C995    1.397   .     A
C993   C1237   1.385   .     S
C994   H1028   1.083   .     S
C994   C996    1.396   .     A
C995   C1074   1.401   .     S
C996   C1155   1.401   1_455 S
C997   C999    1.419   .     A
C997   N1032   1.347   .     A
C997   H1029   1.080   .     S
C998   H1030   1.081   .     S
C998   C1000   1.418   .     A
C998   N1031   1.346   .     A
C999   N1031   1.407   .     A
C999   S1057   1.787   .     S
C1000  N1032   1.405   .     A
C1000  S1062   1.787   .     S
C1001  O1039   1.314   .     A
C1001  C1003   1.490   .     S
C1001  O1119   1.308   .     S
C1002  O1040   1.309   .     A
C1002  C1004   1.480   .     S
C1002  O1202   1.306   1_455 S
C1003  C1007   1.423   .     A
C1003  C1009   1.405   .     A
C1004  C1008   1.418   .     A
C1004  C1010   1.398   .     A
C1005  C1013   1.401   .     A
C1005  H1023   1.085   .     S
C1005  C1007   1.403   .     A
C1006  C1008   1.403   .     A
C1006  H1024   1.085   .     S
C1006  C1014   1.400   .     A
C1007  C1127   1.510   .     S
C1008  C1205   1.503   1_455 S
C1009  H1022   1.076   .     S
C1009  C1011   1.405   .     A
C1010  H1021   1.082   .     S
C1010  C1012   1.405   .     A
C1011  C1013   1.412   .     A
C1011  C1015   1.428   .     A
C1012  C1016   1.419   .     A
C1012  C1014   1.406   .     A
C1013  C251    1.394   1_556 S
C1015  C278    1.425   1_556 S
Cu1017 O1036   1.945   .     S
Cu1017 O1033   1.959   .     S
Cu1017 O1040   1.907   .     S
Cu1017 O1037   1.923   .     S
Cu1017 N1031   2.038   .     S
Cu1017 Cu1182  2.712   1_455 S
Cu1018 O1035   1.945   .     S
Cu1018 O1039   1.907   .     S
Cu1018 O1034   1.959   .     S
Cu1018 O1038   1.923   .     S
Cu1018 N1032   2.038   .     S
Cu1018 Cu1099  2.712   .     S
O1035  C1067   1.294   .     S
O1036  C1150   1.295   1_455 S
O1037  C1165   1.308   1_455 S
O1038  C1084   1.306   .     S
C1041  H1043   1.109   .     S
C1041  H1044   1.110   .     S
C1041  H1042   1.110   .     S
C1041  C1090   1.503   .     S
C1045  H1047   1.111   .     S
C1045  H1046   1.110   .     S
C1045  H1048   1.108   .     S
C1045  C1171   1.510   1_455 S
C1049  H1051   1.106   .     S
C1049  H1052   1.103   .     S
C1049  H1050   1.110   .     S
C1053  H1054   1.109   .     S
C1053  H1055   1.109   .     S
C1053  H1056   1.111   .     S
S1057  O1058   1.501   .     D
S1057  O1059   1.502   .     D
S1057  O1060   1.677   .     S
O1060  H1061   0.991   .     S
S1062  O1064   1.504   .     D
S1062  O1063   1.496   .     D
S1062  O1065   1.679   .     S
O1065  H1066   0.991   .     S
C1067  C1078   1.441   .     S
C1067  O1115   1.305   .     A
C1068  O1116   1.304   .     A
C1068  C1077   1.441   .     S
C1068  O1200   1.295   .     S
C1069  C1131   1.514   .     S
C1069  C1071   1.396   .     A
C1069  C1098   1.425   .     A
C1070  C1135   1.509   .     S
C1070  C1072   1.400   .     A
C1070  C1097   1.432   .     A
C1071  H1101   1.084   .     S
C1072  H1102   1.086   .     S
C1072  C358    1.392   1_556 S
C1073  H1107   1.084   .     S
C1073  C1160   1.401   .     S
C1074  H1108   1.084   .     S
C1074  C1322   1.385   .     S
C1075  H1109   1.083   .     S
C1075  C1077   1.397   .     A
C1075  C1319   1.385   .     S
C1076  H1110   1.083   .     S
C1076  C1078   1.396   .     A
C1077  C1156   1.401   .     S
C1079  C1081   1.419   .     A
C1079  N1114   1.347   .     A
C1079  H1111   1.080   .     S
C1080  H1112   1.081   .     S
C1080  C1082   1.418   .     A
C1080  N1113   1.346   .     A
C1081  N1113   1.407   .     A
C1081  S1139   1.787   .     S
C1082  N1114   1.405   .     A
C1082  S1144   1.787   .     S
C1083  O1121   1.314   .     A
C1083  C1085   1.490   .     S
C1083  O1201   1.308   .     S
C1084  O1122   1.309   .     A
C1084  C1086   1.480   .     S
C1085  C1089   1.423   .     A
C1085  C1091   1.405   .     A
C1086  C1090   1.418   .     A
C1086  C1092   1.398   .     A
C1087  C1095   1.401   .     A
C1087  H1105   1.085   .     S
C1087  C1089   1.403   .     A
C1088  C1090   1.403   .     A
C1088  H1106   1.085   .     S
C1088  C1096   1.400   .     A
C1089  C1209   1.510   .     S
C1091  H1104   1.076   .     S
C1091  C1093   1.405   .     A
C1092  H1103   1.082   .     S
C1092  C1094   1.405   .     A
C1093  C1095   1.412   .     A
C1093  C1097   1.428   .     A
C1094  C1098   1.419   .     A
C1094  C1096   1.406   .     A
C1095  C333    1.394   1_556 S
C1097  C360    1.425   1_556 S
Cu1099 O1118   1.945   .     S
Cu1099 O1115   1.959   .     S
Cu1099 O1122   1.907   .     S
Cu1099 O1119   1.923   .     S
Cu1099 N1113   2.038   .     S
Cu1100 O1117   1.945   .     S
Cu1100 O1121   1.907   .     S
Cu1100 O1116   1.959   .     S
Cu1100 O1120   1.923   .     S
Cu1100 N1114   2.038   .     S
Cu1100 Cu1181  2.712   .     S
O1117  C1149   1.294   .     S
O1120  C1166   1.306   .     S
C1123  H1125   1.109   .     S
C1123  H1126   1.110   .     S
C1123  H1124   1.110   .     S
C1123  C1172   1.503   .     S
C1127  H1129   1.111   .     S
C1127  H1128   1.110   .     S
C1127  H1130   1.108   .     S
C1131  H1133   1.106   .     S
C1131  H1134   1.103   .     S
C1131  H1132   1.110   .     S
C1135  H1136   1.109   .     S
C1135  H1137   1.109   .     S
C1135  H1138   1.111   .     S
S1139  O1140   1.501   .     D
S1139  O1141   1.502   .     D
S1139  O1142   1.677   .     S
O1142  H1143   0.991   .     S
S1144  O1146   1.504   .     D
S1144  O1145   1.496   .     D
S1144  O1147   1.679   .     S
O1147  H1148   0.991   .     S
C1149  C1160   1.441   .     S
C1149  O1197   1.305   .     A
C1150  O1198   1.304   .     A
C1150  C1159   1.441   .     S
C1150  O1036   1.295   1_655 S
C1151  C1213   1.514   .     S
C1151  C1153   1.396   .     A
C1151  C1180   1.425   .     A
C1152  C1217   1.509   .     S
C1152  C1154   1.400   .     A
C1152  C1179   1.432   .     A
C1153  H1183   1.084   .     S
C1154  H1184   1.086   .     S
C1154  C440    1.392   1_556 S
C1155  H1189   1.084   .     S
C1155  C996    1.401   1_655 S
C1156  H1190   1.084   .     S
C1156  C1404   1.385   .     S
C1157  H1191   1.083   .     S
C1157  C1159   1.397   .     A
C1157  C1401   1.385   .     S
C1158  H1192   1.083   .     S
C1158  C1160   1.396   .     A
C1159  C992    1.401   1_655 S
C1161  C1163   1.419   .     A
C1161  N1196   1.347   .     A
C1161  H1193   1.080   .     S
C1162  H1194   1.081   .     S
C1162  C1164   1.418   .     A
C1162  N1195   1.346   .     A
C1163  N1195   1.407   .     A
C1163  S1221   1.787   .     S
C1164  N1196   1.405   .     A
C1164  S1226   1.787   .     S
C1165  O1203   1.314   .     A
C1165  C1167   1.490   .     S
C1165  O1037   1.308   1_655 S
C1166  O1204   1.309   .     A
C1166  C1168   1.480   .     S
C1167  C1171   1.423   .     A
C1167  C1173   1.405   .     A
C1168  C1172   1.418   .     A
C1168  C1174   1.398   .     A
C1169  C1177   1.401   .     A
C1169  H1187   1.085   .     S
C1169  C1171   1.403   .     A
C1170  C1172   1.403   .     A
C1170  H1188   1.085   .     S
C1170  C1178   1.400   .     A
C1171  C1045   1.510   1_655 S
C1173  H1186   1.076   .     S
C1173  C1175   1.405   .     A
C1174  H1185   1.082   .     S
C1174  C1176   1.405   .     A
C1175  C1177   1.412   .     A
C1175  C1179   1.428   .     A
C1176  C1180   1.419   .     A
C1176  C1178   1.406   .     A
C1177  C415    1.394   1_556 S
C1179  C442    1.425   1_556 S
Cu1181 O1200   1.945   .     S
Cu1181 O1197   1.959   .     S
Cu1181 O1204   1.907   .     S
Cu1181 O1201   1.923   .     S
Cu1181 N1195   2.038   .     S
Cu1182 O1199   1.945   .     S
Cu1182 O1203   1.907   .     S
Cu1182 O1198   1.959   .     S
Cu1182 O1202   1.923   .     S
Cu1182 N1196   2.038   .     S
Cu1182 Cu1017  2.712   1_655 S
O1199  C985    1.294   1_655 S
O1202  C1002   1.306   1_655 S
C1205  H1207   1.109   .     S
C1205  H1208   1.110   .     S
C1205  H1206   1.110   .     S
C1205  C1008   1.503   1_655 S
C1209  H1211   1.111   .     S
C1209  H1210   1.110   .     S
C1209  H1212   1.108   .     S
C1213  H1215   1.106   .     S
C1213  H1216   1.103   .     S
C1213  H1214   1.110   .     S
C1217  H1218   1.109   .     S
C1217  H1219   1.109   .     S
C1217  H1220   1.111   .     S
S1221  O1222   1.501   .     D
S1221  O1223   1.502   .     D
S1221  O1224   1.677   .     S
O1224  H1225   0.991   .     S
S1226  O1228   1.504   .     D
S1226  O1227   1.496   .     D
S1226  O1229   1.679   .     S
O1229  H1230   0.991   .     S
C1231  C1242   1.441   .     S
C1231  O1279   1.305   .     A
C1231  O1445   1.294   1_455 S
C1232  O1280   1.304   .     A
C1232  C1241   1.441   .     S
C1232  O1364   1.295   .     S
C1233  C1295   1.514   .     S
C1233  C1235   1.396   .     A
C1233  C1262   1.425   .     A
C1234  C1299   1.509   .     S
C1234  C1236   1.400   .     A
C1234  C1261   1.432   .     A
C1235  H1265   1.084   .     S
C1236  H1266   1.086   .     S
C1236  C522    1.392   1_556 S
C1237  H1271   1.084   .     S
C1237  C1324   1.401   .     S
C1238  H1272   1.084   .     S
C1238  C748    1.385   1_565 S
C1238  C1405   1.401   1_455 S
C1239  H1273   1.083   .     S
C1239  C1241   1.397   .     A
C1239  C745    1.385   1_565 S
C1240  H1274   1.083   .     S
C1240  C1242   1.396   .     A
C1241  C1320   1.401   .     S
C1242  C1401   1.401   1_455 S
C1243  C1245   1.419   .     A
C1243  N1278   1.347   .     A
C1243  H1275   1.080   .     S
C1244  H1276   1.081   .     S
C1244  C1246   1.418   .     A
C1244  N1277   1.346   .     A
C1245  N1277   1.407   .     A
C1245  S1303   1.787   .     S
C1246  N1278   1.405   .     A
C1246  S1308   1.787   .     S
C1247  O1285   1.314   .     A
C1247  C1249   1.490   .     S
C1247  O1365   1.308   .     S
C1248  O1286   1.309   .     A
C1248  C1250   1.480   .     S
C1248  O1448   1.306   1_455 S
C1249  C1253   1.423   .     A
C1249  C1255   1.405   .     A
C1250  C1254   1.418   .     A
C1250  C1256   1.398   .     A
C1251  C1259   1.401   .     A
C1251  H1269   1.085   .     S
C1251  C1253   1.403   .     A
C1252  C1254   1.403   .     A
C1252  H1270   1.085   .     S
C1252  C1260   1.400   .     A
C1253  C1373   1.510   .     S
C1254  C1451   1.503   1_455 S
C1255  H1268   1.076   .     S
C1255  C1257   1.405   .     A
C1256  H1267   1.082   .     S
C1256  C1258   1.405   .     A
C1257  C1259   1.412   .     A
C1257  C1261   1.428   .     A
C1258  C1262   1.419   .     A
C1258  C1260   1.406   .     A
C1259  C497    1.394   1_556 S
C1261  C524    1.425   1_556 S
Cu1263 O1282   1.945   .     S
Cu1263 O1279   1.959   .     S
Cu1263 O1286   1.907   .     S
Cu1263 O1283   1.923   .     S
Cu1263 N1277   2.038   .     S
Cu1263 Cu1428  2.712   1_455 S
Cu1264 O1281   1.945   .     S
Cu1264 O1285   1.907   .     S
Cu1264 O1280   1.959   .     S
Cu1264 O1284   1.923   .     S
Cu1264 N1278   2.038   .     S
Cu1264 Cu1345  2.712   .     S
O1281  C1313   1.294   .     S
O1282  C1396   1.295   1_455 S
O1283  C1411   1.308   1_455 S
O1284  C1330   1.306   .     S
C1287  H1289   1.109   .     S
C1287  H1290   1.110   .     S
C1287  H1288   1.110   .     S
C1287  C1336   1.503   .     S
C1291  H1293   1.111   .     S
C1291  H1292   1.110   .     S
C1291  H1294   1.108   .     S
C1291  C1417   1.510   1_455 S
C1295  H1297   1.106   .     S
C1295  H1298   1.103   .     S
C1295  H1296   1.110   .     S
C1299  H1300   1.109   .     S
C1299  H1301   1.109   .     S
C1299  H1302   1.111   .     S
S1303  O1304   1.501   .     D
S1303  O1305   1.502   .     D
S1303  O1306   1.677   .     S
O1306  H1307   0.991   .     S
S1308  O1310   1.504   .     D
S1308  O1309   1.496   .     D
S1308  O1311   1.679   .     S
O1311  H1312   0.991   .     S
C1313  C1324   1.441   .     S
C1313  O1361   1.305   .     A
C1314  O1362   1.304   .     A
C1314  C1323   1.441   .     S
C1314  O1446   1.295   .     S
C1315  C1377   1.514   .     S
C1315  C1317   1.396   .     A
C1315  C1344   1.425   .     A
C1316  C1381   1.509   .     S
C1316  C1318   1.400   .     A
C1316  C1343   1.432   .     A
C1317  H1347   1.084   .     S
C1318  H1348   1.086   .     S
C1318  C604    1.392   1_556 S
C1319  H1353   1.084   .     S
C1319  C1406   1.401   .     S
C1320  H1354   1.084   .     S
C1320  C830    1.385   1_565 S
C1321  H1355   1.083   .     S
C1321  C1323   1.397   .     A
C1321  C827    1.385   1_565 S
C1322  H1356   1.083   .     S
C1322  C1324   1.396   .     A
C1323  C1402   1.401   .     S
C1325  C1327   1.419   .     A
C1325  N1360   1.347   .     A
C1325  H1357   1.080   .     S
C1326  H1358   1.081   .     S
C1326  C1328   1.418   .     A
C1326  N1359   1.346   .     A
C1327  N1359   1.407   .     A
C1327  S1385   1.787   .     S
C1328  N1360   1.405   .     A
C1328  S1390   1.787   .     S
C1329  O1367   1.314   .     A
C1329  C1331   1.490   .     S
C1329  O1447   1.308   .     S
C1330  O1368   1.309   .     A
C1330  C1332   1.480   .     S
C1331  C1335   1.423   .     A
C1331  C1337   1.405   .     A
C1332  C1336   1.418   .     A
C1332  C1338   1.398   .     A
C1333  C1341   1.401   .     A
C1333  H1351   1.085   .     S
C1333  C1335   1.403   .     A
C1334  C1336   1.403   .     A
C1334  H1352   1.085   .     S
C1334  C1342   1.400   .     A
C1335  C1455   1.510   .     S
C1337  H1350   1.076   .     S
C1337  C1339   1.405   .     A
C1338  H1349   1.082   .     S
C1338  C1340   1.405   .     A
C1339  C1341   1.412   .     A
C1339  C1343   1.428   .     A
C1340  C1344   1.419   .     A
C1340  C1342   1.406   .     A
C1341  C579    1.394   1_556 S
C1343  C606    1.425   1_556 S
Cu1345 O1364   1.945   .     S
Cu1345 O1361   1.959   .     S
Cu1345 O1368   1.907   .     S
Cu1345 O1365   1.923   .     S
Cu1345 N1359   2.038   .     S
Cu1346 O1363   1.945   .     S
Cu1346 O1367   1.907   .     S
Cu1346 O1362   1.959   .     S
Cu1346 O1366   1.923   .     S
Cu1346 N1360   2.038   .     S
Cu1346 Cu1427  2.712   .     S
O1363  C1395   1.294   .     S
O1366  C1412   1.306   .     S
C1369  H1371   1.109   .     S
C1369  H1372   1.110   .     S
C1369  H1370   1.110   .     S
C1369  C1418   1.503   .     S
C1373  H1375   1.111   .     S
C1373  H1374   1.110   .     S
C1373  H1376   1.108   .     S
C1377  H1379   1.106   .     S
C1377  H1380   1.103   .     S
C1377  H1378   1.110   .     S
C1381  H1382   1.109   .     S
C1381  H1383   1.109   .     S
C1381  H1384   1.111   .     S
S1385  O1386   1.501   .     D
S1385  O1387   1.502   .     D
S1385  O1388   1.677   .     S
O1388  H1389   0.991   .     S
S1390  O1392   1.504   .     D
S1390  O1391   1.496   .     D
S1390  O1393   1.679   .     S
O1393  H1394   0.991   .     S
C1395  C1406   1.441   .     S
C1395  O1443   1.305   .     A
C1396  O1444   1.304   .     A
C1396  C1405   1.441   .     S
C1396  O1282   1.295   1_655 S
C1397  C1459   1.514   .     S
C1397  C1399   1.396   .     A
C1397  C1426   1.425   .     A
C1398  C1463   1.509   .     S
C1398  C1400   1.400   .     A
C1398  C1425   1.432   .     A
C1399  H1429   1.084   .     S
C1400  H1430   1.086   .     S
C1400  C686    1.392   1_556 S
C1401  H1435   1.084   .     S
C1401  C1242   1.401   1_655 S
C1402  H1436   1.084   .     S
C1402  C912    1.385   1_565 S
C1403  H1437   1.083   .     S
C1403  C1405   1.397   .     A
C1403  C909    1.385   1_565 S
C1404  H1438   1.083   .     S
C1404  C1406   1.396   .     A
C1405  C1238   1.401   1_655 S
C1407  C1409   1.419   .     A
C1407  N1442   1.347   .     A
C1407  H1439   1.080   .     S
C1408  H1440   1.081   .     S
C1408  C1410   1.418   .     A
C1408  N1441   1.346   .     A
C1409  N1441   1.407   .     A
C1409  S1467   1.787   .     S
C1410  N1442   1.405   .     A
C1410  S1472   1.787   .     S
C1411  O1449   1.314   .     A
C1411  C1413   1.490   .     S
C1411  O1283   1.308   1_655 S
C1412  O1450   1.309   .     A
C1412  C1414   1.480   .     S
C1413  C1417   1.423   .     A
C1413  C1419   1.405   .     A
C1414  C1418   1.418   .     A
C1414  C1420   1.398   .     A
C1415  C1423   1.401   .     A
C1415  H1433   1.085   .     S
C1415  C1417   1.403   .     A
C1416  C1418   1.403   .     A
C1416  H1434   1.085   .     S
C1416  C1424   1.400   .     A
C1417  C1291   1.510   1_655 S
C1419  H1432   1.076   .     S
C1419  C1421   1.405   .     A
C1420  H1431   1.082   .     S
C1420  C1422   1.405   .     A
C1421  C1423   1.412   .     A
C1421  C1425   1.428   .     A
C1422  C1426   1.419   .     A
C1422  C1424   1.406   .     A
C1423  C661    1.394   1_556 S
C1425  C688    1.425   1_556 S
Cu1427 O1446   1.945   .     S
Cu1427 O1443   1.959   .     S
Cu1427 O1450   1.907   .     S
Cu1427 O1447   1.923   .     S
Cu1427 N1441   2.038   .     S
Cu1428 O1445   1.945   .     S
Cu1428 O1449   1.907   .     S
Cu1428 O1444   1.959   .     S
Cu1428 O1448   1.923   .     S
Cu1428 N1442   2.038   .     S
Cu1428 Cu1263  2.712   1_655 S
O1445  C1231   1.294   1_655 S
O1448  C1248   1.306   1_655 S
C1451  H1453   1.109   .     S
C1451  H1454   1.110   .     S
C1451  H1452   1.110   .     S
C1451  C1254   1.503   1_655 S
C1455  H1457   1.111   .     S
C1455  H1456   1.110   .     S
C1455  H1458   1.108   .     S
C1459  H1461   1.106   .     S
C1459  H1462   1.103   .     S
C1459  H1460   1.110   .     S
C1463  H1464   1.109   .     S
C1463  H1465   1.109   .     S
C1463  H1466   1.111   .     S
S1467  O1468   1.501   .     D
S1467  O1469   1.502   .     D
S1467  O1470   1.677   .     S
O1470  H1471   0.991   .     S
S1472  O1474   1.504   .     D
S1472  O1473   1.496   .     D
S1472  O1475   1.679   .     S
O1475  H1476   0.991   .     S
