data_str_m2_o1_o2_pcu_sym.66
_audit_creation_date              2020-01-03
_audit_creation_method            'Materials Studio'
_symmetry_space_group_name_H-M    'P1'
_symmetry_Int_Tables_number       1
_symmetry_cell_setting            triclinic
loop_
_symmetry_equiv_pos_as_xyz
  x,y,z
_cell_length_a                    32.8019
_cell_length_b                    28.5375
_cell_length_c                    30.2694
_cell_angle_alpha                 90.0000
_cell_angle_beta                  90.2565
_cell_angle_gamma                 90.0002
loop_
_atom_site_label
_atom_site_type_symbol
_atom_site_fract_x
_atom_site_fract_y
_atom_site_fract_z
_atom_site_U_iso_or_equiv
_atom_site_adp_type
_atom_site_occupancy
C1     C     0.08731   0.16673   0.24988   0.00000  Uiso   1.00
C2     C     0.31245   0.20959   0.24568   0.00000  Uiso   1.00
C3     C     0.31262   0.12465   0.25468   0.00000  Uiso   1.00
C4     C     0.02088   0.20959   0.25433   0.00000  Uiso   1.00
C5     C     0.17908   0.20673   0.04769   0.00000  Uiso   1.00
C6     C     0.17916   0.12667   0.45246   0.00000  Uiso   1.00
C7     C     0.15426   0.20673   0.45231   0.00000  Uiso   1.00
C8     C     0.15417   0.12667   0.04754   0.00000  Uiso   1.00
C9     C     0.17878   0.20683   0.09360   0.00000  Uiso   1.00
C10    C     0.17892   0.12656   0.40654   0.00000  Uiso   1.00
C11    C     0.15455   0.20683   0.40640   0.00000  Uiso   1.00
C12    C     0.24603   0.16673   0.25013   0.00000  Uiso   1.00
C13    C     0.15442   0.12656   0.09346   0.00000  Uiso   1.00
C14    C     0.16661   0.16668   0.11673   0.00000  Uiso   1.00
C15    C     0.16673   0.16668   0.38327   0.00000  Uiso   1.00
C16    C     0.16664   0.16670   0.02428   0.00000  Uiso   1.00
C17    C     0.16669   0.16670   0.47572   0.00000  Uiso   1.00
C18    C     0.29066   0.16701   0.25021   0.00000  Uiso   1.00
C19    C     0.04267   0.16701   0.24980   0.00000  Uiso   1.00
C20    C     0.16663   0.16667   0.16496   0.00000  Uiso   1.00
C21    C     0.16670   0.16667   0.33504   0.00000  Uiso   1.00
C22    C     0.15071   0.02476   0.21523   0.00000  Uiso   1.00
C23    C     0.18294   0.30854   0.28462   0.00000  Uiso   1.00
C24    C     0.18263   0.02476   0.28477   0.00000  Uiso   1.00
C25    C     0.15039   0.30854   0.21538   0.00000  Uiso   1.00
C26    C     0.02071   0.12465   0.24533   0.00000  Uiso   1.00
Cu27   Cu    0.16667   0.21355   0.25000   0.00000  Uiso   1.00
Cu28   Cu    0.16667   0.11978   0.25000   0.00000  Uiso   1.00
H29    H     0.13782   0.04327   0.18733   0.00000  Uiso   1.00
H30    H     0.18879   0.09533   0.38928   0.00000  Uiso   1.00
H31    H     0.14471   0.23806   0.38902   0.00000  Uiso   1.00
H32    H     0.14454   0.09533   0.11072   0.00000  Uiso   1.00
H33    H     0.19630   0.28999   0.31225   0.00000  Uiso   1.00
H34    H     0.19552   0.04327   0.31267   0.00000  Uiso   1.00
H35    H     0.13703   0.28999   0.18775   0.00000  Uiso   1.00
H36    H     0.18950   0.23777   0.03053   0.00000  Uiso   1.00
H37    H     0.18958   0.09565   0.46974   0.00000  Uiso   1.00
H38    H     0.14383   0.23777   0.46947   0.00000  Uiso   1.00
H39    H     0.14376   0.09565   0.03026   0.00000  Uiso   1.00
H40    H     0.18863   0.23806   0.11098   0.00000  Uiso   1.00
I41    I     0.04496   0.06163   0.21705   0.00000  Uiso   1.00
I42    I     0.28686   0.27329   0.21938   0.00000  Uiso   1.00
I43    I     0.28837   0.06163   0.28297   0.00000  Uiso   1.00
I44    I     0.04647   0.27328   0.28064   0.00000  Uiso   1.00
N45    N     0.16667   0.28402   0.25000   0.00000  Uiso   1.00
N46    N     0.16667   0.04931   0.25000   0.00000  Uiso   1.00
O47    O     0.10655   0.20625   0.25000   0.00000  Uiso   1.00
O48    O     0.22679   0.12709   0.25001   0.00000  Uiso   1.00
O49    O     0.22679   0.20625   0.25001   0.00000  Uiso   1.00
O50    O     0.10655   0.12709   0.25000   0.00000  Uiso   1.00
O51    O     0.16666   0.20626   0.18573   0.00000  Uiso   1.00
O52    O     0.16667   0.12707   0.31427   0.00000  Uiso   1.00
O53    O     0.16667   0.20626   0.31427   0.00000  Uiso   1.00
O54    O     0.16666   0.12707   0.18573   0.00000  Uiso   1.00
C55    C     0.42064   0.16673   0.24988   0.00000  Uiso   1.00
C56    C     0.64579   0.20959   0.24568   0.00000  Uiso   1.00
C57    C     0.64595   0.12465   0.25468   0.00000  Uiso   1.00
C58    C     0.35422   0.20959   0.25433   0.00000  Uiso   1.00
C59    C     0.51241   0.20673   0.04769   0.00000  Uiso   1.00
C60    C     0.51250   0.12667   0.45246   0.00000  Uiso   1.00
C61    C     0.48759   0.20673   0.45231   0.00000  Uiso   1.00
C62    C     0.48750   0.12667   0.04754   0.00000  Uiso   1.00
C63    C     0.51212   0.20683   0.09360   0.00000  Uiso   1.00
C64    C     0.51225   0.12656   0.40654   0.00000  Uiso   1.00
C65    C     0.48788   0.20683   0.40640   0.00000  Uiso   1.00
C66    C     0.57936   0.16673   0.25013   0.00000  Uiso   1.00
C67    C     0.48775   0.12656   0.09346   0.00000  Uiso   1.00
C68    C     0.49994   0.16668   0.11673   0.00000  Uiso   1.00
C69    C     0.50006   0.16668   0.38327   0.00000  Uiso   1.00
C70    C     0.49998   0.16670   0.02428   0.00000  Uiso   1.00
C71    C     0.50002   0.16670   0.47572   0.00000  Uiso   1.00
C72    C     0.62399   0.16701   0.25021   0.00000  Uiso   1.00
C73    C     0.37601   0.16701   0.24980   0.00000  Uiso   1.00
C74    C     0.49996   0.16667   0.16496   0.00000  Uiso   1.00
C75    C     0.50004   0.16667   0.33504   0.00000  Uiso   1.00
C76    C     0.48404   0.02476   0.21523   0.00000  Uiso   1.00
C77    C     0.51628   0.30854   0.28462   0.00000  Uiso   1.00
C78    C     0.51596   0.02476   0.28477   0.00000  Uiso   1.00
C79    C     0.48372   0.30854   0.21538   0.00000  Uiso   1.00
C80    C     0.35405   0.12465   0.24533   0.00000  Uiso   1.00
Cu81   Cu    0.50000   0.21355   0.25000   0.00000  Uiso   1.00
Cu82   Cu    0.50000   0.11978   0.25000   0.00000  Uiso   1.00
H83    H     0.47115   0.04327   0.18733   0.00000  Uiso   1.00
H84    H     0.52212   0.09533   0.38928   0.00000  Uiso   1.00
H85    H     0.47804   0.23806   0.38902   0.00000  Uiso   1.00
H86    H     0.47788   0.09533   0.11072   0.00000  Uiso   1.00
H87    H     0.52964   0.28999   0.31225   0.00000  Uiso   1.00
H88    H     0.52885   0.04327   0.31267   0.00000  Uiso   1.00
H89    H     0.47036   0.28999   0.18775   0.00000  Uiso   1.00
H90    H     0.52284   0.23777   0.03053   0.00000  Uiso   1.00
H91    H     0.52291   0.09565   0.46974   0.00000  Uiso   1.00
H92    H     0.47717   0.23777   0.46947   0.00000  Uiso   1.00
H93    H     0.47709   0.09565   0.03026   0.00000  Uiso   1.00
H94    H     0.52196   0.23806   0.11098   0.00000  Uiso   1.00
I95    I     0.37829   0.06163   0.21705   0.00000  Uiso   1.00
I96    I     0.62020   0.27329   0.21938   0.00000  Uiso   1.00
I97    I     0.62171   0.06163   0.28297   0.00000  Uiso   1.00
I98    I     0.37981   0.27328   0.28064   0.00000  Uiso   1.00
N99    N     0.50000   0.28402   0.25000   0.00000  Uiso   1.00
N100   N     0.50000   0.04931   0.25000   0.00000  Uiso   1.00
O101   O     0.43988   0.20625   0.25000   0.00000  Uiso   1.00
O102   O     0.56012   0.12709   0.25001   0.00000  Uiso   1.00
O103   O     0.56012   0.20625   0.25001   0.00000  Uiso   1.00
O104   O     0.43988   0.12709   0.25000   0.00000  Uiso   1.00
O105   O     0.50000   0.20626   0.18573   0.00000  Uiso   1.00
O106   O     0.50000   0.12707   0.31427   0.00000  Uiso   1.00
O107   O     0.50000   0.20626   0.31427   0.00000  Uiso   1.00
O108   O     0.50000   0.12707   0.18573   0.00000  Uiso   1.00
C109   C     0.75398   0.16673   0.24988   0.00000  Uiso   1.00
C110   C     0.97912   0.20959   0.24568   0.00000  Uiso   1.00
C111   C     0.97929   0.12465   0.25468   0.00000  Uiso   1.00
C112   C     0.68755   0.20959   0.25433   0.00000  Uiso   1.00
C113   C     0.84574   0.20673   0.04769   0.00000  Uiso   1.00
C114   C     0.84583   0.12667   0.45246   0.00000  Uiso   1.00
C115   C     0.82093   0.20673   0.45231   0.00000  Uiso   1.00
C116   C     0.82084   0.12667   0.04754   0.00000  Uiso   1.00
C117   C     0.84545   0.20683   0.09360   0.00000  Uiso   1.00
C118   C     0.84558   0.12656   0.40654   0.00000  Uiso   1.00
C119   C     0.82122   0.20683   0.40640   0.00000  Uiso   1.00
C120   C     0.91269   0.16673   0.25013   0.00000  Uiso   1.00
C121   C     0.82108   0.12656   0.09346   0.00000  Uiso   1.00
C122   C     0.83327   0.16668   0.11673   0.00000  Uiso   1.00
C123   C     0.83339   0.16668   0.38327   0.00000  Uiso   1.00
C124   C     0.83331   0.16670   0.02428   0.00000  Uiso   1.00
C125   C     0.83336   0.16670   0.47572   0.00000  Uiso   1.00
C126   C     0.95733   0.16701   0.25021   0.00000  Uiso   1.00
C127   C     0.70934   0.16701   0.24980   0.00000  Uiso   1.00
C128   C     0.83330   0.16667   0.16496   0.00000  Uiso   1.00
C129   C     0.83337   0.16667   0.33504   0.00000  Uiso   1.00
C130   C     0.81737   0.02476   0.21523   0.00000  Uiso   1.00
C131   C     0.84961   0.30854   0.28462   0.00000  Uiso   1.00
C132   C     0.84929   0.02476   0.28477   0.00000  Uiso   1.00
C133   C     0.81706   0.30854   0.21538   0.00000  Uiso   1.00
C134   C     0.68738   0.12465   0.24533   0.00000  Uiso   1.00
Cu135  Cu    0.83333   0.21355   0.25000   0.00000  Uiso   1.00
Cu136  Cu    0.83333   0.11978   0.25000   0.00000  Uiso   1.00
H137   H     0.80448   0.04327   0.18733   0.00000  Uiso   1.00
H138   H     0.85546   0.09533   0.38928   0.00000  Uiso   1.00
H139   H     0.81137   0.23806   0.38902   0.00000  Uiso   1.00
H140   H     0.81121   0.09533   0.11072   0.00000  Uiso   1.00
H141   H     0.86297   0.28999   0.31225   0.00000  Uiso   1.00
H142   H     0.86218   0.04327   0.31267   0.00000  Uiso   1.00
H143   H     0.80370   0.28999   0.18775   0.00000  Uiso   1.00
H144   H     0.85617   0.23777   0.03053   0.00000  Uiso   1.00
H145   H     0.85624   0.09565   0.46974   0.00000  Uiso   1.00
H146   H     0.81050   0.23777   0.46947   0.00000  Uiso   1.00
H147   H     0.81042   0.09565   0.03026   0.00000  Uiso   1.00
H148   H     0.85530   0.23806   0.11098   0.00000  Uiso   1.00
I149   I     0.71162   0.06163   0.21705   0.00000  Uiso   1.00
I150   I     0.95353   0.27329   0.21938   0.00000  Uiso   1.00
I151   I     0.95504   0.06163   0.28297   0.00000  Uiso   1.00
I152   I     0.71314   0.27328   0.28064   0.00000  Uiso   1.00
N153   N     0.83333   0.28402   0.25000   0.00000  Uiso   1.00
N154   N     0.83333   0.04931   0.25000   0.00000  Uiso   1.00
O155   O     0.77321   0.20625   0.25000   0.00000  Uiso   1.00
O156   O     0.89345   0.12709   0.25001   0.00000  Uiso   1.00
O157   O     0.89345   0.20625   0.25001   0.00000  Uiso   1.00
O158   O     0.77321   0.12709   0.25000   0.00000  Uiso   1.00
O159   O     0.83333   0.20626   0.18573   0.00000  Uiso   1.00
O160   O     0.83334   0.12707   0.31427   0.00000  Uiso   1.00
O161   O     0.83334   0.20626   0.31427   0.00000  Uiso   1.00
O162   O     0.83333   0.12707   0.18573   0.00000  Uiso   1.00
C163   C     0.08731   0.50006   0.24988   0.00000  Uiso   1.00
C164   C     0.31245   0.54293   0.24568   0.00000  Uiso   1.00
C165   C     0.31262   0.45799   0.25468   0.00000  Uiso   1.00
C166   C     0.02088   0.54293   0.25433   0.00000  Uiso   1.00
C167   C     0.17908   0.54007   0.04769   0.00000  Uiso   1.00
C168   C     0.17916   0.46000   0.45246   0.00000  Uiso   1.00
C169   C     0.15426   0.54007   0.45231   0.00000  Uiso   1.00
C170   C     0.15417   0.46000   0.04754   0.00000  Uiso   1.00
C171   C     0.17878   0.54017   0.09360   0.00000  Uiso   1.00
C172   C     0.17892   0.45989   0.40654   0.00000  Uiso   1.00
C173   C     0.15455   0.54017   0.40640   0.00000  Uiso   1.00
C174   C     0.24603   0.50006   0.25013   0.00000  Uiso   1.00
C175   C     0.15442   0.45989   0.09346   0.00000  Uiso   1.00
C176   C     0.16661   0.50002   0.11673   0.00000  Uiso   1.00
C177   C     0.16673   0.50002   0.38327   0.00000  Uiso   1.00
C178   C     0.16664   0.50004   0.02428   0.00000  Uiso   1.00
C179   C     0.16669   0.50004   0.47572   0.00000  Uiso   1.00
C180   C     0.29066   0.50034   0.25021   0.00000  Uiso   1.00
C181   C     0.04267   0.50034   0.24980   0.00000  Uiso   1.00
C182   C     0.16663   0.50000   0.16496   0.00000  Uiso   1.00
C183   C     0.16670   0.50000   0.33504   0.00000  Uiso   1.00
C184   C     0.15071   0.35809   0.21523   0.00000  Uiso   1.00
C185   C     0.18294   0.64187   0.28462   0.00000  Uiso   1.00
C186   C     0.18263   0.35809   0.28477   0.00000  Uiso   1.00
C187   C     0.15039   0.64187   0.21538   0.00000  Uiso   1.00
C188   C     0.02071   0.45799   0.24533   0.00000  Uiso   1.00
Cu189  Cu    0.16667   0.54689   0.25000   0.00000  Uiso   1.00
Cu190  Cu    0.16667   0.45311   0.25000   0.00000  Uiso   1.00
H191   H     0.13782   0.37660   0.18733   0.00000  Uiso   1.00
H192   H     0.18879   0.42866   0.38928   0.00000  Uiso   1.00
H193   H     0.14471   0.57139   0.38902   0.00000  Uiso   1.00
H194   H     0.14454   0.42866   0.11072   0.00000  Uiso   1.00
H195   H     0.19630   0.62333   0.31225   0.00000  Uiso   1.00
H196   H     0.19552   0.37660   0.31267   0.00000  Uiso   1.00
H197   H     0.13703   0.62333   0.18775   0.00000  Uiso   1.00
H198   H     0.18950   0.57110   0.03053   0.00000  Uiso   1.00
H199   H     0.18958   0.42898   0.46974   0.00000  Uiso   1.00
H200   H     0.14383   0.57110   0.46947   0.00000  Uiso   1.00
H201   H     0.14376   0.42898   0.03026   0.00000  Uiso   1.00
H202   H     0.18863   0.57139   0.11098   0.00000  Uiso   1.00
I203   I     0.04496   0.39496   0.21705   0.00000  Uiso   1.00
I204   I     0.28686   0.60662   0.21938   0.00000  Uiso   1.00
I205   I     0.28837   0.39497   0.28297   0.00000  Uiso   1.00
I206   I     0.04647   0.60661   0.28064   0.00000  Uiso   1.00
N207   N     0.16667   0.61736   0.25000   0.00000  Uiso   1.00
N208   N     0.16667   0.38264   0.25000   0.00000  Uiso   1.00
O209   O     0.10655   0.53958   0.25000   0.00000  Uiso   1.00
O210   O     0.22679   0.46042   0.25001   0.00000  Uiso   1.00
O211   O     0.22679   0.53958   0.25001   0.00000  Uiso   1.00
O212   O     0.10655   0.46042   0.25000   0.00000  Uiso   1.00
O213   O     0.16666   0.53959   0.18573   0.00000  Uiso   1.00
O214   O     0.16667   0.46041   0.31427   0.00000  Uiso   1.00
O215   O     0.16667   0.53959   0.31427   0.00000  Uiso   1.00
O216   O     0.16666   0.46041   0.18573   0.00000  Uiso   1.00
C217   C     0.42064   0.50006   0.24988   0.00000  Uiso   1.00
C218   C     0.64579   0.54293   0.24568   0.00000  Uiso   1.00
C219   C     0.64595   0.45799   0.25468   0.00000  Uiso   1.00
C220   C     0.35422   0.54293   0.25433   0.00000  Uiso   1.00
C221   C     0.51241   0.54007   0.04769   0.00000  Uiso   1.00
C222   C     0.51250   0.46000   0.45246   0.00000  Uiso   1.00
C223   C     0.48759   0.54007   0.45231   0.00000  Uiso   1.00
C224   C     0.48750   0.46000   0.04754   0.00000  Uiso   1.00
C225   C     0.51212   0.54017   0.09360   0.00000  Uiso   1.00
C226   C     0.51225   0.45989   0.40654   0.00000  Uiso   1.00
C227   C     0.48788   0.54017   0.40640   0.00000  Uiso   1.00
C228   C     0.57936   0.50006   0.25013   0.00000  Uiso   1.00
C229   C     0.48775   0.45989   0.09346   0.00000  Uiso   1.00
C230   C     0.49994   0.50002   0.11673   0.00000  Uiso   1.00
C231   C     0.50006   0.50002   0.38327   0.00000  Uiso   1.00
C232   C     0.49998   0.50004   0.02428   0.00000  Uiso   1.00
C233   C     0.50002   0.50004   0.47572   0.00000  Uiso   1.00
C234   C     0.62399   0.50034   0.25021   0.00000  Uiso   1.00
C235   C     0.37601   0.50034   0.24980   0.00000  Uiso   1.00
C236   C     0.49996   0.50000   0.16496   0.00000  Uiso   1.00
C237   C     0.50004   0.50000   0.33504   0.00000  Uiso   1.00
C238   C     0.48404   0.35809   0.21523   0.00000  Uiso   1.00
C239   C     0.51628   0.64187   0.28462   0.00000  Uiso   1.00
C240   C     0.51596   0.35809   0.28477   0.00000  Uiso   1.00
C241   C     0.48372   0.64187   0.21538   0.00000  Uiso   1.00
C242   C     0.35405   0.45799   0.24533   0.00000  Uiso   1.00
Cu243  Cu    0.50000   0.54689   0.25000   0.00000  Uiso   1.00
Cu244  Cu    0.50000   0.45311   0.25000   0.00000  Uiso   1.00
H245   H     0.47115   0.37660   0.18733   0.00000  Uiso   1.00
H246   H     0.52212   0.42866   0.38928   0.00000  Uiso   1.00
H247   H     0.47804   0.57139   0.38902   0.00000  Uiso   1.00
H248   H     0.47788   0.42866   0.11072   0.00000  Uiso   1.00
H249   H     0.52964   0.62333   0.31225   0.00000  Uiso   1.00
H250   H     0.52885   0.37660   0.31267   0.00000  Uiso   1.00
H251   H     0.47036   0.62333   0.18775   0.00000  Uiso   1.00
H252   H     0.52284   0.57110   0.03053   0.00000  Uiso   1.00
H253   H     0.52291   0.42898   0.46974   0.00000  Uiso   1.00
H254   H     0.47717   0.57110   0.46947   0.00000  Uiso   1.00
H255   H     0.47709   0.42898   0.03026   0.00000  Uiso   1.00
H256   H     0.52196   0.57139   0.11098   0.00000  Uiso   1.00
I257   I     0.37829   0.39496   0.21705   0.00000  Uiso   1.00
I258   I     0.62020   0.60662   0.21938   0.00000  Uiso   1.00
I259   I     0.62171   0.39497   0.28297   0.00000  Uiso   1.00
I260   I     0.37981   0.60661   0.28064   0.00000  Uiso   1.00
N261   N     0.50000   0.61736   0.25000   0.00000  Uiso   1.00
N262   N     0.50000   0.38264   0.25000   0.00000  Uiso   1.00
O263   O     0.43988   0.53958   0.25000   0.00000  Uiso   1.00
O264   O     0.56012   0.46042   0.25001   0.00000  Uiso   1.00
O265   O     0.56012   0.53958   0.25001   0.00000  Uiso   1.00
O266   O     0.43988   0.46042   0.25000   0.00000  Uiso   1.00
O267   O     0.50000   0.53959   0.18573   0.00000  Uiso   1.00
O268   O     0.50000   0.46041   0.31427   0.00000  Uiso   1.00
O269   O     0.50000   0.53959   0.31427   0.00000  Uiso   1.00
O270   O     0.50000   0.46041   0.18573   0.00000  Uiso   1.00
C271   C     0.75398   0.50006   0.24988   0.00000  Uiso   1.00
C272   C     0.97912   0.54293   0.24568   0.00000  Uiso   1.00
C273   C     0.97929   0.45799   0.25468   0.00000  Uiso   1.00
C274   C     0.68755   0.54293   0.25433   0.00000  Uiso   1.00
C275   C     0.84574   0.54007   0.04769   0.00000  Uiso   1.00
C276   C     0.84583   0.46000   0.45246   0.00000  Uiso   1.00
C277   C     0.82093   0.54007   0.45231   0.00000  Uiso   1.00
C278   C     0.82084   0.46000   0.04754   0.00000  Uiso   1.00
C279   C     0.84545   0.54017   0.09360   0.00000  Uiso   1.00
C280   C     0.84558   0.45989   0.40654   0.00000  Uiso   1.00
C281   C     0.82122   0.54017   0.40640   0.00000  Uiso   1.00
C282   C     0.91269   0.50006   0.25013   0.00000  Uiso   1.00
C283   C     0.82108   0.45989   0.09346   0.00000  Uiso   1.00
C284   C     0.83327   0.50002   0.11673   0.00000  Uiso   1.00
C285   C     0.83339   0.50002   0.38327   0.00000  Uiso   1.00
C286   C     0.83331   0.50004   0.02428   0.00000  Uiso   1.00
C287   C     0.83336   0.50004   0.47572   0.00000  Uiso   1.00
C288   C     0.95733   0.50034   0.25021   0.00000  Uiso   1.00
C289   C     0.70934   0.50034   0.24980   0.00000  Uiso   1.00
C290   C     0.83330   0.50000   0.16496   0.00000  Uiso   1.00
C291   C     0.83337   0.50000   0.33504   0.00000  Uiso   1.00
C292   C     0.81737   0.35809   0.21523   0.00000  Uiso   1.00
C293   C     0.84961   0.64187   0.28462   0.00000  Uiso   1.00
C294   C     0.84929   0.35809   0.28477   0.00000  Uiso   1.00
C295   C     0.81706   0.64187   0.21538   0.00000  Uiso   1.00
C296   C     0.68738   0.45799   0.24533   0.00000  Uiso   1.00
Cu297  Cu    0.83333   0.54689   0.25000   0.00000  Uiso   1.00
Cu298  Cu    0.83333   0.45311   0.25000   0.00000  Uiso   1.00
H299   H     0.80448   0.37660   0.18733   0.00000  Uiso   1.00
H300   H     0.85546   0.42866   0.38928   0.00000  Uiso   1.00
H301   H     0.81137   0.57139   0.38902   0.00000  Uiso   1.00
H302   H     0.81121   0.42866   0.11072   0.00000  Uiso   1.00
H303   H     0.86297   0.62333   0.31225   0.00000  Uiso   1.00
H304   H     0.86218   0.37660   0.31267   0.00000  Uiso   1.00
H305   H     0.80370   0.62333   0.18775   0.00000  Uiso   1.00
H306   H     0.85617   0.57110   0.03053   0.00000  Uiso   1.00
H307   H     0.85624   0.42898   0.46974   0.00000  Uiso   1.00
H308   H     0.81050   0.57110   0.46947   0.00000  Uiso   1.00
H309   H     0.81042   0.42898   0.03026   0.00000  Uiso   1.00
H310   H     0.85530   0.57139   0.11098   0.00000  Uiso   1.00
I311   I     0.71162   0.39496   0.21705   0.00000  Uiso   1.00
I312   I     0.95353   0.60662   0.21938   0.00000  Uiso   1.00
I313   I     0.95504   0.39497   0.28297   0.00000  Uiso   1.00
I314   I     0.71314   0.60661   0.28064   0.00000  Uiso   1.00
N315   N     0.83333   0.61736   0.25000   0.00000  Uiso   1.00
N316   N     0.83333   0.38264   0.25000   0.00000  Uiso   1.00
O317   O     0.77321   0.53958   0.25000   0.00000  Uiso   1.00
O318   O     0.89345   0.46042   0.25001   0.00000  Uiso   1.00
O319   O     0.89345   0.53958   0.25001   0.00000  Uiso   1.00
O320   O     0.77321   0.46042   0.25000   0.00000  Uiso   1.00
O321   O     0.83333   0.53959   0.18573   0.00000  Uiso   1.00
O322   O     0.83334   0.46041   0.31427   0.00000  Uiso   1.00
O323   O     0.83334   0.53959   0.31427   0.00000  Uiso   1.00
O324   O     0.83333   0.46041   0.18573   0.00000  Uiso   1.00
C325   C     0.08731   0.83339   0.24988   0.00000  Uiso   1.00
C326   C     0.31245   0.87626   0.24568   0.00000  Uiso   1.00
C327   C     0.31262   0.79132   0.25468   0.00000  Uiso   1.00
C328   C     0.02088   0.87626   0.25433   0.00000  Uiso   1.00
C329   C     0.17908   0.87340   0.04769   0.00000  Uiso   1.00
C330   C     0.17916   0.79334   0.45246   0.00000  Uiso   1.00
C331   C     0.15426   0.87340   0.45231   0.00000  Uiso   1.00
C332   C     0.15417   0.79334   0.04754   0.00000  Uiso   1.00
C333   C     0.17878   0.87350   0.09360   0.00000  Uiso   1.00
C334   C     0.17892   0.79322   0.40654   0.00000  Uiso   1.00
C335   C     0.15455   0.87350   0.40640   0.00000  Uiso   1.00
C336   C     0.24603   0.83340   0.25013   0.00000  Uiso   1.00
C337   C     0.15442   0.79322   0.09346   0.00000  Uiso   1.00
C338   C     0.16661   0.83335   0.11673   0.00000  Uiso   1.00
C339   C     0.16673   0.83335   0.38327   0.00000  Uiso   1.00
C340   C     0.16664   0.83337   0.02428   0.00000  Uiso   1.00
C341   C     0.16669   0.83337   0.47572   0.00000  Uiso   1.00
C342   C     0.29066   0.83368   0.25021   0.00000  Uiso   1.00
C343   C     0.04267   0.83368   0.24980   0.00000  Uiso   1.00
C344   C     0.16663   0.83334   0.16496   0.00000  Uiso   1.00
C345   C     0.16670   0.83334   0.33504   0.00000  Uiso   1.00
C346   C     0.15071   0.69142   0.21523   0.00000  Uiso   1.00
C347   C     0.18294   0.97520   0.28462   0.00000  Uiso   1.00
C348   C     0.18263   0.69142   0.28477   0.00000  Uiso   1.00
C349   C     0.15039   0.97520   0.21538   0.00000  Uiso   1.00
C350   C     0.02071   0.79132   0.24533   0.00000  Uiso   1.00
Cu351  Cu    0.16667   0.88022   0.25000   0.00000  Uiso   1.00
Cu352  Cu    0.16667   0.78645   0.25000   0.00000  Uiso   1.00
H353   H     0.13782   0.70993   0.18733   0.00000  Uiso   1.00
H354   H     0.18879   0.76200   0.38928   0.00000  Uiso   1.00
H355   H     0.14471   0.90473   0.38902   0.00000  Uiso   1.00
H356   H     0.14454   0.76200   0.11072   0.00000  Uiso   1.00
H357   H     0.19630   0.95666   0.31225   0.00000  Uiso   1.00
H358   H     0.19552   0.70993   0.31267   0.00000  Uiso   1.00
H359   H     0.13703   0.95666   0.18775   0.00000  Uiso   1.00
H360   H     0.18950   0.90443   0.03053   0.00000  Uiso   1.00
H361   H     0.18958   0.76231   0.46974   0.00000  Uiso   1.00
H362   H     0.14383   0.90443   0.46947   0.00000  Uiso   1.00
H363   H     0.14376   0.76231   0.03026   0.00000  Uiso   1.00
H364   H     0.18863   0.90473   0.11098   0.00000  Uiso   1.00
I365   I     0.04496   0.72829   0.21705   0.00000  Uiso   1.00
I366   I     0.28686   0.93995   0.21938   0.00000  Uiso   1.00
I367   I     0.28837   0.72830   0.28297   0.00000  Uiso   1.00
I368   I     0.04647   0.93995   0.28064   0.00000  Uiso   1.00
N369   N     0.16667   0.95069   0.25000   0.00000  Uiso   1.00
N370   N     0.16667   0.71598   0.25000   0.00000  Uiso   1.00
O371   O     0.10655   0.87291   0.25000   0.00000  Uiso   1.00
O372   O     0.22679   0.79375   0.25001   0.00000  Uiso   1.00
O373   O     0.22679   0.87291   0.25001   0.00000  Uiso   1.00
O374   O     0.10655   0.79375   0.25000   0.00000  Uiso   1.00
O375   O     0.16666   0.87293   0.18573   0.00000  Uiso   1.00
O376   O     0.16667   0.79374   0.31427   0.00000  Uiso   1.00
O377   O     0.16667   0.87293   0.31427   0.00000  Uiso   1.00
O378   O     0.16666   0.79374   0.18573   0.00000  Uiso   1.00
C379   C     0.42064   0.83339   0.24988   0.00000  Uiso   1.00
C380   C     0.64579   0.87626   0.24568   0.00000  Uiso   1.00
C381   C     0.64595   0.79132   0.25468   0.00000  Uiso   1.00
C382   C     0.35422   0.87626   0.25433   0.00000  Uiso   1.00
C383   C     0.51241   0.87340   0.04769   0.00000  Uiso   1.00
C384   C     0.51250   0.79334   0.45246   0.00000  Uiso   1.00
C385   C     0.48759   0.87340   0.45231   0.00000  Uiso   1.00
C386   C     0.48750   0.79334   0.04754   0.00000  Uiso   1.00
C387   C     0.51212   0.87350   0.09360   0.00000  Uiso   1.00
C388   C     0.51225   0.79322   0.40654   0.00000  Uiso   1.00
C389   C     0.48788   0.87350   0.40640   0.00000  Uiso   1.00
C390   C     0.57936   0.83340   0.25013   0.00000  Uiso   1.00
C391   C     0.48775   0.79322   0.09346   0.00000  Uiso   1.00
C392   C     0.49994   0.83335   0.11673   0.00000  Uiso   1.00
C393   C     0.50006   0.83335   0.38327   0.00000  Uiso   1.00
C394   C     0.49998   0.83337   0.02428   0.00000  Uiso   1.00
C395   C     0.50002   0.83337   0.47572   0.00000  Uiso   1.00
C396   C     0.62399   0.83368   0.25021   0.00000  Uiso   1.00
C397   C     0.37601   0.83368   0.24980   0.00000  Uiso   1.00
C398   C     0.49996   0.83334   0.16496   0.00000  Uiso   1.00
C399   C     0.50004   0.83334   0.33504   0.00000  Uiso   1.00
C400   C     0.48404   0.69142   0.21523   0.00000  Uiso   1.00
C401   C     0.51628   0.97520   0.28462   0.00000  Uiso   1.00
C402   C     0.51596   0.69142   0.28477   0.00000  Uiso   1.00
C403   C     0.48372   0.97520   0.21538   0.00000  Uiso   1.00
C404   C     0.35405   0.79132   0.24533   0.00000  Uiso   1.00
Cu405  Cu    0.50000   0.88022   0.25000   0.00000  Uiso   1.00
Cu406  Cu    0.50000   0.78645   0.25000   0.00000  Uiso   1.00
H407   H     0.47115   0.70993   0.18733   0.00000  Uiso   1.00
H408   H     0.52212   0.76200   0.38928   0.00000  Uiso   1.00
H409   H     0.47804   0.90473   0.38902   0.00000  Uiso   1.00
H410   H     0.47788   0.76200   0.11072   0.00000  Uiso   1.00
H411   H     0.52964   0.95666   0.31225   0.00000  Uiso   1.00
H412   H     0.52885   0.70993   0.31267   0.00000  Uiso   1.00
H413   H     0.47036   0.95666   0.18775   0.00000  Uiso   1.00
H414   H     0.52284   0.90443   0.03053   0.00000  Uiso   1.00
H415   H     0.52291   0.76231   0.46974   0.00000  Uiso   1.00
H416   H     0.47717   0.90443   0.46947   0.00000  Uiso   1.00
H417   H     0.47709   0.76231   0.03026   0.00000  Uiso   1.00
H418   H     0.52196   0.90473   0.11098   0.00000  Uiso   1.00
I419   I     0.37829   0.72829   0.21705   0.00000  Uiso   1.00
I420   I     0.62020   0.93995   0.21938   0.00000  Uiso   1.00
I421   I     0.62171   0.72830   0.28297   0.00000  Uiso   1.00
I422   I     0.37981   0.93995   0.28064   0.00000  Uiso   1.00
N423   N     0.50000   0.95069   0.25000   0.00000  Uiso   1.00
N424   N     0.50000   0.71598   0.25000   0.00000  Uiso   1.00
O425   O     0.43988   0.87291   0.25000   0.00000  Uiso   1.00
O426   O     0.56012   0.79375   0.25001   0.00000  Uiso   1.00
O427   O     0.56012   0.87291   0.25001   0.00000  Uiso   1.00
O428   O     0.43988   0.79375   0.25000   0.00000  Uiso   1.00
O429   O     0.50000   0.87293   0.18573   0.00000  Uiso   1.00
O430   O     0.50000   0.79374   0.31427   0.00000  Uiso   1.00
O431   O     0.50000   0.87293   0.31427   0.00000  Uiso   1.00
O432   O     0.50000   0.79374   0.18573   0.00000  Uiso   1.00
C433   C     0.75398   0.83339   0.24988   0.00000  Uiso   1.00
C434   C     0.97912   0.87626   0.24568   0.00000  Uiso   1.00
C435   C     0.97929   0.79132   0.25468   0.00000  Uiso   1.00
C436   C     0.68755   0.87626   0.25433   0.00000  Uiso   1.00
C437   C     0.84574   0.87340   0.04769   0.00000  Uiso   1.00
C438   C     0.84583   0.79334   0.45246   0.00000  Uiso   1.00
C439   C     0.82093   0.87340   0.45231   0.00000  Uiso   1.00
C440   C     0.82084   0.79334   0.04754   0.00000  Uiso   1.00
C441   C     0.84545   0.87350   0.09360   0.00000  Uiso   1.00
C442   C     0.84558   0.79322   0.40654   0.00000  Uiso   1.00
C443   C     0.82122   0.87350   0.40640   0.00000  Uiso   1.00
C444   C     0.91269   0.83340   0.25013   0.00000  Uiso   1.00
C445   C     0.82108   0.79322   0.09346   0.00000  Uiso   1.00
C446   C     0.83327   0.83335   0.11673   0.00000  Uiso   1.00
C447   C     0.83339   0.83335   0.38327   0.00000  Uiso   1.00
C448   C     0.83331   0.83337   0.02428   0.00000  Uiso   1.00
C449   C     0.83336   0.83337   0.47572   0.00000  Uiso   1.00
C450   C     0.95733   0.83368   0.25021   0.00000  Uiso   1.00
C451   C     0.70934   0.83368   0.24980   0.00000  Uiso   1.00
C452   C     0.83330   0.83334   0.16496   0.00000  Uiso   1.00
C453   C     0.83337   0.83334   0.33504   0.00000  Uiso   1.00
C454   C     0.81737   0.69142   0.21523   0.00000  Uiso   1.00
C455   C     0.84961   0.97520   0.28462   0.00000  Uiso   1.00
C456   C     0.84929   0.69142   0.28477   0.00000  Uiso   1.00
C457   C     0.81706   0.97520   0.21538   0.00000  Uiso   1.00
C458   C     0.68738   0.79132   0.24533   0.00000  Uiso   1.00
Cu459  Cu    0.83333   0.88022   0.25000   0.00000  Uiso   1.00
Cu460  Cu    0.83333   0.78645   0.25000   0.00000  Uiso   1.00
H461   H     0.80448   0.70993   0.18733   0.00000  Uiso   1.00
H462   H     0.85546   0.76200   0.38928   0.00000  Uiso   1.00
H463   H     0.81137   0.90473   0.38902   0.00000  Uiso   1.00
H464   H     0.81121   0.76200   0.11072   0.00000  Uiso   1.00
H465   H     0.86297   0.95666   0.31225   0.00000  Uiso   1.00
H466   H     0.86218   0.70993   0.31267   0.00000  Uiso   1.00
H467   H     0.80370   0.95666   0.18775   0.00000  Uiso   1.00
H468   H     0.85617   0.90443   0.03053   0.00000  Uiso   1.00
H469   H     0.85624   0.76231   0.46974   0.00000  Uiso   1.00
H470   H     0.81050   0.90443   0.46947   0.00000  Uiso   1.00
H471   H     0.81042   0.76231   0.03026   0.00000  Uiso   1.00
H472   H     0.85530   0.90473   0.11098   0.00000  Uiso   1.00
I473   I     0.71162   0.72829   0.21705   0.00000  Uiso   1.00
I474   I     0.95353   0.93995   0.21938   0.00000  Uiso   1.00
I475   I     0.95504   0.72830   0.28297   0.00000  Uiso   1.00
I476   I     0.71314   0.93995   0.28064   0.00000  Uiso   1.00
N477   N     0.83333   0.95069   0.25000   0.00000  Uiso   1.00
N478   N     0.83333   0.71598   0.25000   0.00000  Uiso   1.00
O479   O     0.77321   0.87291   0.25000   0.00000  Uiso   1.00
O480   O     0.89345   0.79375   0.25001   0.00000  Uiso   1.00
O481   O     0.89345   0.87291   0.25001   0.00000  Uiso   1.00
O482   O     0.77321   0.79375   0.25000   0.00000  Uiso   1.00
O483   O     0.83333   0.87293   0.18573   0.00000  Uiso   1.00
O484   O     0.83334   0.79374   0.31427   0.00000  Uiso   1.00
O485   O     0.83334   0.87293   0.31427   0.00000  Uiso   1.00
O486   O     0.83333   0.79374   0.18573   0.00000  Uiso   1.00
C487   C     0.08731   0.16673   0.74988   0.00000  Uiso   1.00
C488   C     0.31245   0.20959   0.74568   0.00000  Uiso   1.00
C489   C     0.31262   0.12465   0.75468   0.00000  Uiso   1.00
C490   C     0.02088   0.20959   0.75433   0.00000  Uiso   1.00
C491   C     0.17908   0.20673   0.54769   0.00000  Uiso   1.00
C492   C     0.17916   0.12667   0.95246   0.00000  Uiso   1.00
C493   C     0.15426   0.20673   0.95231   0.00000  Uiso   1.00
C494   C     0.15417   0.12667   0.54754   0.00000  Uiso   1.00
C495   C     0.17878   0.20683   0.59360   0.00000  Uiso   1.00
C496   C     0.17892   0.12656   0.90654   0.00000  Uiso   1.00
C497   C     0.15455   0.20683   0.90640   0.00000  Uiso   1.00
C498   C     0.24603   0.16673   0.75013   0.00000  Uiso   1.00
C499   C     0.15442   0.12656   0.59346   0.00000  Uiso   1.00
C500   C     0.16661   0.16668   0.61673   0.00000  Uiso   1.00
C501   C     0.16673   0.16668   0.88327   0.00000  Uiso   1.00
C502   C     0.16664   0.16670   0.52428   0.00000  Uiso   1.00
C503   C     0.16669   0.16670   0.97572   0.00000  Uiso   1.00
C504   C     0.29066   0.16701   0.75021   0.00000  Uiso   1.00
C505   C     0.04267   0.16701   0.74980   0.00000  Uiso   1.00
C506   C     0.16663   0.16667   0.66496   0.00000  Uiso   1.00
C507   C     0.16670   0.16667   0.83504   0.00000  Uiso   1.00
C508   C     0.15071   0.02476   0.71523   0.00000  Uiso   1.00
C509   C     0.18294   0.30854   0.78462   0.00000  Uiso   1.00
C510   C     0.18263   0.02476   0.78477   0.00000  Uiso   1.00
C511   C     0.15039   0.30854   0.71538   0.00000  Uiso   1.00
C512   C     0.02071   0.12465   0.74533   0.00000  Uiso   1.00
Cu513  Cu    0.16667   0.21355   0.75000   0.00000  Uiso   1.00
Cu514  Cu    0.16667   0.11978   0.75000   0.00000  Uiso   1.00
H515   H     0.13782   0.04327   0.68733   0.00000  Uiso   1.00
H516   H     0.18879   0.09533   0.88928   0.00000  Uiso   1.00
H517   H     0.14471   0.23806   0.88902   0.00000  Uiso   1.00
H518   H     0.14454   0.09533   0.61072   0.00000  Uiso   1.00
H519   H     0.19630   0.28999   0.81225   0.00000  Uiso   1.00
H520   H     0.19552   0.04327   0.81267   0.00000  Uiso   1.00
H521   H     0.13703   0.28999   0.68775   0.00000  Uiso   1.00
H522   H     0.18950   0.23777   0.53053   0.00000  Uiso   1.00
H523   H     0.18958   0.09565   0.96974   0.00000  Uiso   1.00
H524   H     0.14383   0.23777   0.96947   0.00000  Uiso   1.00
H525   H     0.14376   0.09565   0.53026   0.00000  Uiso   1.00
H526   H     0.18863   0.23806   0.61098   0.00000  Uiso   1.00
I527   I     0.04496   0.06163   0.71705   0.00000  Uiso   1.00
I528   I     0.28686   0.27329   0.71938   0.00000  Uiso   1.00
I529   I     0.28837   0.06163   0.78297   0.00000  Uiso   1.00
I530   I     0.04647   0.27328   0.78064   0.00000  Uiso   1.00
N531   N     0.16667   0.28402   0.75000   0.00000  Uiso   1.00
N532   N     0.16667   0.04931   0.75000   0.00000  Uiso   1.00
O533   O     0.10655   0.20625   0.75000   0.00000  Uiso   1.00
O534   O     0.22679   0.12709   0.75001   0.00000  Uiso   1.00
O535   O     0.22679   0.20625   0.75001   0.00000  Uiso   1.00
O536   O     0.10655   0.12709   0.75000   0.00000  Uiso   1.00
O537   O     0.16666   0.20626   0.68573   0.00000  Uiso   1.00
O538   O     0.16667   0.12707   0.81427   0.00000  Uiso   1.00
O539   O     0.16667   0.20626   0.81427   0.00000  Uiso   1.00
O540   O     0.16666   0.12707   0.68573   0.00000  Uiso   1.00
C541   C     0.42064   0.16673   0.74988   0.00000  Uiso   1.00
C542   C     0.64579   0.20959   0.74568   0.00000  Uiso   1.00
C543   C     0.64595   0.12465   0.75468   0.00000  Uiso   1.00
C544   C     0.35422   0.20959   0.75433   0.00000  Uiso   1.00
C545   C     0.51241   0.20673   0.54769   0.00000  Uiso   1.00
C546   C     0.51250   0.12667   0.95246   0.00000  Uiso   1.00
C547   C     0.48759   0.20673   0.95231   0.00000  Uiso   1.00
C548   C     0.48750   0.12667   0.54754   0.00000  Uiso   1.00
C549   C     0.51212   0.20683   0.59360   0.00000  Uiso   1.00
C550   C     0.51225   0.12656   0.90654   0.00000  Uiso   1.00
C551   C     0.48788   0.20683   0.90640   0.00000  Uiso   1.00
C552   C     0.57936   0.16673   0.75013   0.00000  Uiso   1.00
C553   C     0.48775   0.12656   0.59346   0.00000  Uiso   1.00
C554   C     0.49994   0.16668   0.61673   0.00000  Uiso   1.00
C555   C     0.50006   0.16668   0.88327   0.00000  Uiso   1.00
C556   C     0.49998   0.16670   0.52428   0.00000  Uiso   1.00
C557   C     0.50002   0.16670   0.97572   0.00000  Uiso   1.00
C558   C     0.62399   0.16701   0.75021   0.00000  Uiso   1.00
C559   C     0.37601   0.16701   0.74980   0.00000  Uiso   1.00
C560   C     0.49996   0.16667   0.66496   0.00000  Uiso   1.00
C561   C     0.50004   0.16667   0.83504   0.00000  Uiso   1.00
C562   C     0.48404   0.02476   0.71523   0.00000  Uiso   1.00
C563   C     0.51628   0.30854   0.78462   0.00000  Uiso   1.00
C564   C     0.51596   0.02476   0.78477   0.00000  Uiso   1.00
C565   C     0.48372   0.30854   0.71538   0.00000  Uiso   1.00
C566   C     0.35405   0.12465   0.74533   0.00000  Uiso   1.00
Cu567  Cu    0.50000   0.21355   0.75000   0.00000  Uiso   1.00
Cu568  Cu    0.50000   0.11978   0.75000   0.00000  Uiso   1.00
H569   H     0.47115   0.04327   0.68733   0.00000  Uiso   1.00
H570   H     0.52212   0.09533   0.88928   0.00000  Uiso   1.00
H571   H     0.47804   0.23806   0.88902   0.00000  Uiso   1.00
H572   H     0.47788   0.09533   0.61072   0.00000  Uiso   1.00
H573   H     0.52964   0.28999   0.81225   0.00000  Uiso   1.00
H574   H     0.52885   0.04327   0.81267   0.00000  Uiso   1.00
H575   H     0.47036   0.28999   0.68775   0.00000  Uiso   1.00
H576   H     0.52284   0.23777   0.53053   0.00000  Uiso   1.00
H577   H     0.52291   0.09565   0.96974   0.00000  Uiso   1.00
H578   H     0.47717   0.23777   0.96947   0.00000  Uiso   1.00
H579   H     0.47709   0.09565   0.53026   0.00000  Uiso   1.00
H580   H     0.52196   0.23806   0.61098   0.00000  Uiso   1.00
I581   I     0.37829   0.06163   0.71705   0.00000  Uiso   1.00
I582   I     0.62020   0.27329   0.71938   0.00000  Uiso   1.00
I583   I     0.62171   0.06163   0.78297   0.00000  Uiso   1.00
I584   I     0.37981   0.27328   0.78064   0.00000  Uiso   1.00
N585   N     0.50000   0.28402   0.75000   0.00000  Uiso   1.00
N586   N     0.50000   0.04931   0.75000   0.00000  Uiso   1.00
O587   O     0.43988   0.20625   0.75000   0.00000  Uiso   1.00
O588   O     0.56012   0.12709   0.75001   0.00000  Uiso   1.00
O589   O     0.56012   0.20625   0.75001   0.00000  Uiso   1.00
O590   O     0.43988   0.12709   0.75000   0.00000  Uiso   1.00
O591   O     0.50000   0.20626   0.68573   0.00000  Uiso   1.00
O592   O     0.50000   0.12707   0.81427   0.00000  Uiso   1.00
O593   O     0.50000   0.20626   0.81427   0.00000  Uiso   1.00
O594   O     0.50000   0.12707   0.68573   0.00000  Uiso   1.00
C595   C     0.75398   0.16673   0.74988   0.00000  Uiso   1.00
C596   C     0.97912   0.20959   0.74568   0.00000  Uiso   1.00
C597   C     0.97929   0.12465   0.75468   0.00000  Uiso   1.00
C598   C     0.68755   0.20959   0.75433   0.00000  Uiso   1.00
C599   C     0.84574   0.20673   0.54769   0.00000  Uiso   1.00
C600   C     0.84583   0.12667   0.95246   0.00000  Uiso   1.00
C601   C     0.82093   0.20673   0.95231   0.00000  Uiso   1.00
C602   C     0.82084   0.12667   0.54754   0.00000  Uiso   1.00
C603   C     0.84545   0.20683   0.59360   0.00000  Uiso   1.00
C604   C     0.84558   0.12656   0.90654   0.00000  Uiso   1.00
C605   C     0.82122   0.20683   0.90640   0.00000  Uiso   1.00
C606   C     0.91269   0.16673   0.75013   0.00000  Uiso   1.00
C607   C     0.82108   0.12656   0.59346   0.00000  Uiso   1.00
C608   C     0.83327   0.16668   0.61673   0.00000  Uiso   1.00
C609   C     0.83339   0.16668   0.88327   0.00000  Uiso   1.00
C610   C     0.83331   0.16670   0.52428   0.00000  Uiso   1.00
C611   C     0.83336   0.16670   0.97572   0.00000  Uiso   1.00
C612   C     0.95733   0.16701   0.75021   0.00000  Uiso   1.00
C613   C     0.70934   0.16701   0.74980   0.00000  Uiso   1.00
C614   C     0.83330   0.16667   0.66496   0.00000  Uiso   1.00
C615   C     0.83337   0.16667   0.83504   0.00000  Uiso   1.00
C616   C     0.81737   0.02476   0.71523   0.00000  Uiso   1.00
C617   C     0.84961   0.30854   0.78462   0.00000  Uiso   1.00
C618   C     0.84929   0.02476   0.78477   0.00000  Uiso   1.00
C619   C     0.81706   0.30854   0.71538   0.00000  Uiso   1.00
C620   C     0.68738   0.12465   0.74533   0.00000  Uiso   1.00
Cu621  Cu    0.83333   0.21355   0.75000   0.00000  Uiso   1.00
Cu622  Cu    0.83333   0.11978   0.75000   0.00000  Uiso   1.00
H623   H     0.80448   0.04327   0.68733   0.00000  Uiso   1.00
H624   H     0.85546   0.09533   0.88928   0.00000  Uiso   1.00
H625   H     0.81137   0.23806   0.88902   0.00000  Uiso   1.00
H626   H     0.81121   0.09533   0.61072   0.00000  Uiso   1.00
H627   H     0.86297   0.28999   0.81225   0.00000  Uiso   1.00
H628   H     0.86218   0.04327   0.81267   0.00000  Uiso   1.00
H629   H     0.80370   0.28999   0.68775   0.00000  Uiso   1.00
H630   H     0.85617   0.23777   0.53053   0.00000  Uiso   1.00
H631   H     0.85624   0.09565   0.96974   0.00000  Uiso   1.00
H632   H     0.81050   0.23777   0.96947   0.00000  Uiso   1.00
H633   H     0.81042   0.09565   0.53026   0.00000  Uiso   1.00
H634   H     0.85530   0.23806   0.61098   0.00000  Uiso   1.00
I635   I     0.71162   0.06163   0.71705   0.00000  Uiso   1.00
I636   I     0.95353   0.27329   0.71938   0.00000  Uiso   1.00
I637   I     0.95504   0.06163   0.78297   0.00000  Uiso   1.00
I638   I     0.71314   0.27328   0.78064   0.00000  Uiso   1.00
N639   N     0.83333   0.28402   0.75000   0.00000  Uiso   1.00
N640   N     0.83333   0.04931   0.75000   0.00000  Uiso   1.00
O641   O     0.77321   0.20625   0.75000   0.00000  Uiso   1.00
O642   O     0.89345   0.12709   0.75001   0.00000  Uiso   1.00
O643   O     0.89345   0.20625   0.75001   0.00000  Uiso   1.00
O644   O     0.77321   0.12709   0.75000   0.00000  Uiso   1.00
O645   O     0.83333   0.20626   0.68573   0.00000  Uiso   1.00
O646   O     0.83334   0.12707   0.81427   0.00000  Uiso   1.00
O647   O     0.83334   0.20626   0.81427   0.00000  Uiso   1.00
O648   O     0.83333   0.12707   0.68573   0.00000  Uiso   1.00
C649   C     0.08731   0.50006   0.74988   0.00000  Uiso   1.00
C650   C     0.31245   0.54293   0.74568   0.00000  Uiso   1.00
C651   C     0.31262   0.45799   0.75468   0.00000  Uiso   1.00
C652   C     0.02088   0.54293   0.75433   0.00000  Uiso   1.00
C653   C     0.17908   0.54007   0.54769   0.00000  Uiso   1.00
C654   C     0.17916   0.46000   0.95246   0.00000  Uiso   1.00
C655   C     0.15426   0.54007   0.95231   0.00000  Uiso   1.00
C656   C     0.15417   0.46000   0.54754   0.00000  Uiso   1.00
C657   C     0.17878   0.54017   0.59360   0.00000  Uiso   1.00
C658   C     0.17892   0.45989   0.90654   0.00000  Uiso   1.00
C659   C     0.15455   0.54017   0.90640   0.00000  Uiso   1.00
C660   C     0.24603   0.50006   0.75013   0.00000  Uiso   1.00
C661   C     0.15442   0.45989   0.59346   0.00000  Uiso   1.00
C662   C     0.16661   0.50002   0.61673   0.00000  Uiso   1.00
C663   C     0.16673   0.50002   0.88327   0.00000  Uiso   1.00
C664   C     0.16664   0.50004   0.52428   0.00000  Uiso   1.00
C665   C     0.16669   0.50004   0.97572   0.00000  Uiso   1.00
C666   C     0.29066   0.50034   0.75021   0.00000  Uiso   1.00
C667   C     0.04267   0.50034   0.74980   0.00000  Uiso   1.00
C668   C     0.16663   0.50000   0.66496   0.00000  Uiso   1.00
C669   C     0.16670   0.50000   0.83504   0.00000  Uiso   1.00
C670   C     0.15071   0.35809   0.71523   0.00000  Uiso   1.00
C671   C     0.18294   0.64187   0.78462   0.00000  Uiso   1.00
C672   C     0.18263   0.35809   0.78477   0.00000  Uiso   1.00
C673   C     0.15039   0.64187   0.71538   0.00000  Uiso   1.00
C674   C     0.02071   0.45799   0.74533   0.00000  Uiso   1.00
Cu675  Cu    0.16667   0.54689   0.75000   0.00000  Uiso   1.00
Cu676  Cu    0.16667   0.45311   0.75000   0.00000  Uiso   1.00
H677   H     0.13782   0.37660   0.68733   0.00000  Uiso   1.00
H678   H     0.18879   0.42866   0.88928   0.00000  Uiso   1.00
H679   H     0.14471   0.57139   0.88902   0.00000  Uiso   1.00
H680   H     0.14454   0.42866   0.61072   0.00000  Uiso   1.00
H681   H     0.19630   0.62333   0.81225   0.00000  Uiso   1.00
H682   H     0.19552   0.37660   0.81267   0.00000  Uiso   1.00
H683   H     0.13703   0.62333   0.68775   0.00000  Uiso   1.00
H684   H     0.18950   0.57110   0.53053   0.00000  Uiso   1.00
H685   H     0.18958   0.42898   0.96974   0.00000  Uiso   1.00
H686   H     0.14383   0.57110   0.96947   0.00000  Uiso   1.00
H687   H     0.14376   0.42898   0.53026   0.00000  Uiso   1.00
H688   H     0.18863   0.57139   0.61098   0.00000  Uiso   1.00
I689   I     0.04496   0.39496   0.71705   0.00000  Uiso   1.00
I690   I     0.28686   0.60662   0.71938   0.00000  Uiso   1.00
I691   I     0.28837   0.39497   0.78297   0.00000  Uiso   1.00
I692   I     0.04647   0.60661   0.78064   0.00000  Uiso   1.00
N693   N     0.16667   0.61736   0.75000   0.00000  Uiso   1.00
N694   N     0.16667   0.38264   0.75000   0.00000  Uiso   1.00
O695   O     0.10655   0.53958   0.75000   0.00000  Uiso   1.00
O696   O     0.22679   0.46042   0.75001   0.00000  Uiso   1.00
O697   O     0.22679   0.53958   0.75001   0.00000  Uiso   1.00
O698   O     0.10655   0.46042   0.75000   0.00000  Uiso   1.00
O699   O     0.16666   0.53959   0.68573   0.00000  Uiso   1.00
O700   O     0.16667   0.46041   0.81427   0.00000  Uiso   1.00
O701   O     0.16667   0.53959   0.81427   0.00000  Uiso   1.00
O702   O     0.16666   0.46041   0.68573   0.00000  Uiso   1.00
C703   C     0.42064   0.50006   0.74988   0.00000  Uiso   1.00
C704   C     0.64579   0.54293   0.74568   0.00000  Uiso   1.00
C705   C     0.64595   0.45799   0.75468   0.00000  Uiso   1.00
C706   C     0.35422   0.54293   0.75433   0.00000  Uiso   1.00
C707   C     0.51241   0.54007   0.54769   0.00000  Uiso   1.00
C708   C     0.51250   0.46000   0.95246   0.00000  Uiso   1.00
C709   C     0.48759   0.54007   0.95231   0.00000  Uiso   1.00
C710   C     0.48750   0.46000   0.54754   0.00000  Uiso   1.00
C711   C     0.51212   0.54017   0.59360   0.00000  Uiso   1.00
C712   C     0.51225   0.45989   0.90654   0.00000  Uiso   1.00
C713   C     0.48788   0.54017   0.90640   0.00000  Uiso   1.00
C714   C     0.57936   0.50006   0.75013   0.00000  Uiso   1.00
C715   C     0.48775   0.45989   0.59346   0.00000  Uiso   1.00
C716   C     0.49994   0.50002   0.61673   0.00000  Uiso   1.00
C717   C     0.50006   0.50002   0.88327   0.00000  Uiso   1.00
C718   C     0.49998   0.50004   0.52428   0.00000  Uiso   1.00
C719   C     0.50002   0.50004   0.97572   0.00000  Uiso   1.00
C720   C     0.62399   0.50034   0.75021   0.00000  Uiso   1.00
C721   C     0.37601   0.50034   0.74980   0.00000  Uiso   1.00
C722   C     0.49996   0.50000   0.66496   0.00000  Uiso   1.00
C723   C     0.50004   0.50000   0.83504   0.00000  Uiso   1.00
C724   C     0.48404   0.35809   0.71523   0.00000  Uiso   1.00
C725   C     0.51628   0.64187   0.78462   0.00000  Uiso   1.00
C726   C     0.51596   0.35809   0.78477   0.00000  Uiso   1.00
C727   C     0.48372   0.64187   0.71538   0.00000  Uiso   1.00
C728   C     0.35405   0.45799   0.74533   0.00000  Uiso   1.00
Cu729  Cu    0.50000   0.54689   0.75000   0.00000  Uiso   1.00
Cu730  Cu    0.50000   0.45311   0.75000   0.00000  Uiso   1.00
H731   H     0.47115   0.37660   0.68733   0.00000  Uiso   1.00
H732   H     0.52212   0.42866   0.88928   0.00000  Uiso   1.00
H733   H     0.47804   0.57139   0.88902   0.00000  Uiso   1.00
H734   H     0.47788   0.42866   0.61072   0.00000  Uiso   1.00
H735   H     0.52964   0.62333   0.81225   0.00000  Uiso   1.00
H736   H     0.52885   0.37660   0.81267   0.00000  Uiso   1.00
H737   H     0.47036   0.62333   0.68775   0.00000  Uiso   1.00
H738   H     0.52284   0.57110   0.53053   0.00000  Uiso   1.00
H739   H     0.52291   0.42898   0.96974   0.00000  Uiso   1.00
H740   H     0.47717   0.57110   0.96947   0.00000  Uiso   1.00
H741   H     0.47709   0.42898   0.53026   0.00000  Uiso   1.00
H742   H     0.52196   0.57139   0.61098   0.00000  Uiso   1.00
I743   I     0.37829   0.39496   0.71705   0.00000  Uiso   1.00
I744   I     0.62020   0.60662   0.71938   0.00000  Uiso   1.00
I745   I     0.62171   0.39497   0.78297   0.00000  Uiso   1.00
I746   I     0.37981   0.60661   0.78064   0.00000  Uiso   1.00
N747   N     0.50000   0.61736   0.75000   0.00000  Uiso   1.00
N748   N     0.50000   0.38264   0.75000   0.00000  Uiso   1.00
O749   O     0.43988   0.53958   0.75000   0.00000  Uiso   1.00
O750   O     0.56012   0.46042   0.75001   0.00000  Uiso   1.00
O751   O     0.56012   0.53958   0.75001   0.00000  Uiso   1.00
O752   O     0.43988   0.46042   0.75000   0.00000  Uiso   1.00
O753   O     0.50000   0.53959   0.68573   0.00000  Uiso   1.00
O754   O     0.50000   0.46041   0.81427   0.00000  Uiso   1.00
O755   O     0.50000   0.53959   0.81427   0.00000  Uiso   1.00
O756   O     0.50000   0.46041   0.68573   0.00000  Uiso   1.00
C757   C     0.75398   0.50006   0.74988   0.00000  Uiso   1.00
C758   C     0.97912   0.54293   0.74568   0.00000  Uiso   1.00
C759   C     0.97929   0.45799   0.75468   0.00000  Uiso   1.00
C760   C     0.68755   0.54293   0.75433   0.00000  Uiso   1.00
C761   C     0.84574   0.54007   0.54769   0.00000  Uiso   1.00
C762   C     0.84583   0.46000   0.95246   0.00000  Uiso   1.00
C763   C     0.82093   0.54007   0.95231   0.00000  Uiso   1.00
C764   C     0.82084   0.46000   0.54754   0.00000  Uiso   1.00
C765   C     0.84545   0.54017   0.59360   0.00000  Uiso   1.00
C766   C     0.84558   0.45989   0.90654   0.00000  Uiso   1.00
C767   C     0.82122   0.54017   0.90640   0.00000  Uiso   1.00
C768   C     0.91269   0.50006   0.75013   0.00000  Uiso   1.00
C769   C     0.82108   0.45989   0.59346   0.00000  Uiso   1.00
C770   C     0.83327   0.50002   0.61673   0.00000  Uiso   1.00
C771   C     0.83339   0.50002   0.88327   0.00000  Uiso   1.00
C772   C     0.83331   0.50004   0.52428   0.00000  Uiso   1.00
C773   C     0.83336   0.50004   0.97572   0.00000  Uiso   1.00
C774   C     0.95733   0.50034   0.75021   0.00000  Uiso   1.00
C775   C     0.70934   0.50034   0.74980   0.00000  Uiso   1.00
C776   C     0.83330   0.50000   0.66496   0.00000  Uiso   1.00
C777   C     0.83337   0.50000   0.83504   0.00000  Uiso   1.00
C778   C     0.81737   0.35809   0.71523   0.00000  Uiso   1.00
C779   C     0.84961   0.64187   0.78462   0.00000  Uiso   1.00
C780   C     0.84929   0.35809   0.78477   0.00000  Uiso   1.00
C781   C     0.81706   0.64187   0.71538   0.00000  Uiso   1.00
C782   C     0.68738   0.45799   0.74533   0.00000  Uiso   1.00
Cu783  Cu    0.83333   0.54689   0.75000   0.00000  Uiso   1.00
Cu784  Cu    0.83333   0.45311   0.75000   0.00000  Uiso   1.00
H785   H     0.80448   0.37660   0.68733   0.00000  Uiso   1.00
H786   H     0.85546   0.42866   0.88928   0.00000  Uiso   1.00
H787   H     0.81137   0.57139   0.88902   0.00000  Uiso   1.00
H788   H     0.81121   0.42866   0.61072   0.00000  Uiso   1.00
H789   H     0.86297   0.62333   0.81225   0.00000  Uiso   1.00
H790   H     0.86218   0.37660   0.81267   0.00000  Uiso   1.00
H791   H     0.80370   0.62333   0.68775   0.00000  Uiso   1.00
H792   H     0.85617   0.57110   0.53053   0.00000  Uiso   1.00
H793   H     0.85624   0.42898   0.96974   0.00000  Uiso   1.00
H794   H     0.81050   0.57110   0.96947   0.00000  Uiso   1.00
H795   H     0.81042   0.42898   0.53026   0.00000  Uiso   1.00
H796   H     0.85530   0.57139   0.61098   0.00000  Uiso   1.00
I797   I     0.71162   0.39496   0.71705   0.00000  Uiso   1.00
I798   I     0.95353   0.60662   0.71938   0.00000  Uiso   1.00
I799   I     0.95504   0.39497   0.78297   0.00000  Uiso   1.00
I800   I     0.71314   0.60661   0.78064   0.00000  Uiso   1.00
N801   N     0.83333   0.61736   0.75000   0.00000  Uiso   1.00
N802   N     0.83333   0.38264   0.75000   0.00000  Uiso   1.00
O803   O     0.77321   0.53958   0.75000   0.00000  Uiso   1.00
O804   O     0.89345   0.46042   0.75001   0.00000  Uiso   1.00
O805   O     0.89345   0.53958   0.75001   0.00000  Uiso   1.00
O806   O     0.77321   0.46042   0.75000   0.00000  Uiso   1.00
O807   O     0.83333   0.53959   0.68573   0.00000  Uiso   1.00
O808   O     0.83334   0.46041   0.81427   0.00000  Uiso   1.00
O809   O     0.83334   0.53959   0.81427   0.00000  Uiso   1.00
O810   O     0.83333   0.46041   0.68573   0.00000  Uiso   1.00
C811   C     0.08731   0.83339   0.74988   0.00000  Uiso   1.00
C812   C     0.31245   0.87626   0.74568   0.00000  Uiso   1.00
C813   C     0.31262   0.79132   0.75468   0.00000  Uiso   1.00
C814   C     0.02088   0.87626   0.75433   0.00000  Uiso   1.00
C815   C     0.17908   0.87340   0.54769   0.00000  Uiso   1.00
C816   C     0.17916   0.79334   0.95246   0.00000  Uiso   1.00
C817   C     0.15426   0.87340   0.95231   0.00000  Uiso   1.00
C818   C     0.15417   0.79334   0.54754   0.00000  Uiso   1.00
C819   C     0.17878   0.87350   0.59360   0.00000  Uiso   1.00
C820   C     0.17892   0.79322   0.90654   0.00000  Uiso   1.00
C821   C     0.15455   0.87350   0.90640   0.00000  Uiso   1.00
C822   C     0.24603   0.83340   0.75013   0.00000  Uiso   1.00
C823   C     0.15442   0.79322   0.59346   0.00000  Uiso   1.00
C824   C     0.16661   0.83335   0.61673   0.00000  Uiso   1.00
C825   C     0.16673   0.83335   0.88327   0.00000  Uiso   1.00
C826   C     0.16664   0.83337   0.52428   0.00000  Uiso   1.00
C827   C     0.16669   0.83337   0.97572   0.00000  Uiso   1.00
C828   C     0.29066   0.83368   0.75021   0.00000  Uiso   1.00
C829   C     0.04267   0.83368   0.74980   0.00000  Uiso   1.00
C830   C     0.16663   0.83334   0.66496   0.00000  Uiso   1.00
C831   C     0.16670   0.83334   0.83504   0.00000  Uiso   1.00
C832   C     0.15071   0.69142   0.71523   0.00000  Uiso   1.00
C833   C     0.18294   0.97520   0.78462   0.00000  Uiso   1.00
C834   C     0.18263   0.69142   0.78477   0.00000  Uiso   1.00
C835   C     0.15039   0.97520   0.71538   0.00000  Uiso   1.00
C836   C     0.02071   0.79132   0.74533   0.00000  Uiso   1.00
Cu837  Cu    0.16667   0.88022   0.75000   0.00000  Uiso   1.00
Cu838  Cu    0.16667   0.78645   0.75000   0.00000  Uiso   1.00
H839   H     0.13782   0.70993   0.68733   0.00000  Uiso   1.00
H840   H     0.18879   0.76200   0.88928   0.00000  Uiso   1.00
H841   H     0.14471   0.90473   0.88902   0.00000  Uiso   1.00
H842   H     0.14454   0.76200   0.61072   0.00000  Uiso   1.00
H843   H     0.19630   0.95666   0.81225   0.00000  Uiso   1.00
H844   H     0.19552   0.70993   0.81267   0.00000  Uiso   1.00
H845   H     0.13703   0.95666   0.68775   0.00000  Uiso   1.00
H846   H     0.18950   0.90443   0.53053   0.00000  Uiso   1.00
H847   H     0.18958   0.76231   0.96974   0.00000  Uiso   1.00
H848   H     0.14383   0.90443   0.96947   0.00000  Uiso   1.00
H849   H     0.14376   0.76231   0.53026   0.00000  Uiso   1.00
H850   H     0.18863   0.90473   0.61098   0.00000  Uiso   1.00
I851   I     0.04496   0.72829   0.71705   0.00000  Uiso   1.00
I852   I     0.28686   0.93995   0.71938   0.00000  Uiso   1.00
I853   I     0.28837   0.72830   0.78297   0.00000  Uiso   1.00
I854   I     0.04647   0.93995   0.78064   0.00000  Uiso   1.00
N855   N     0.16667   0.95069   0.75000   0.00000  Uiso   1.00
N856   N     0.16667   0.71598   0.75000   0.00000  Uiso   1.00
O857   O     0.10655   0.87291   0.75000   0.00000  Uiso   1.00
O858   O     0.22679   0.79375   0.75001   0.00000  Uiso   1.00
O859   O     0.22679   0.87291   0.75001   0.00000  Uiso   1.00
O860   O     0.10655   0.79375   0.75000   0.00000  Uiso   1.00
O861   O     0.16666   0.87293   0.68573   0.00000  Uiso   1.00
O862   O     0.16667   0.79374   0.81427   0.00000  Uiso   1.00
O863   O     0.16667   0.87293   0.81427   0.00000  Uiso   1.00
O864   O     0.16666   0.79374   0.68573   0.00000  Uiso   1.00
C865   C     0.42064   0.83339   0.74988   0.00000  Uiso   1.00
C866   C     0.64579   0.87626   0.74568   0.00000  Uiso   1.00
C867   C     0.64595   0.79132   0.75468   0.00000  Uiso   1.00
C868   C     0.35422   0.87626   0.75433   0.00000  Uiso   1.00
C869   C     0.51241   0.87340   0.54769   0.00000  Uiso   1.00
C870   C     0.51250   0.79334   0.95246   0.00000  Uiso   1.00
C871   C     0.48759   0.87340   0.95231   0.00000  Uiso   1.00
C872   C     0.48750   0.79334   0.54754   0.00000  Uiso   1.00
C873   C     0.51212   0.87350   0.59360   0.00000  Uiso   1.00
C874   C     0.51225   0.79322   0.90654   0.00000  Uiso   1.00
C875   C     0.48788   0.87350   0.90640   0.00000  Uiso   1.00
C876   C     0.57936   0.83340   0.75013   0.00000  Uiso   1.00
C877   C     0.48775   0.79322   0.59346   0.00000  Uiso   1.00
C878   C     0.49994   0.83335   0.61673   0.00000  Uiso   1.00
C879   C     0.50006   0.83335   0.88327   0.00000  Uiso   1.00
C880   C     0.49998   0.83337   0.52428   0.00000  Uiso   1.00
C881   C     0.50002   0.83337   0.97572   0.00000  Uiso   1.00
C882   C     0.62399   0.83368   0.75021   0.00000  Uiso   1.00
C883   C     0.37601   0.83368   0.74980   0.00000  Uiso   1.00
C884   C     0.49996   0.83334   0.66496   0.00000  Uiso   1.00
C885   C     0.50004   0.83334   0.83504   0.00000  Uiso   1.00
C886   C     0.48404   0.69142   0.71523   0.00000  Uiso   1.00
C887   C     0.51628   0.97520   0.78462   0.00000  Uiso   1.00
C888   C     0.51596   0.69142   0.78477   0.00000  Uiso   1.00
C889   C     0.48372   0.97520   0.71538   0.00000  Uiso   1.00
C890   C     0.35405   0.79132   0.74533   0.00000  Uiso   1.00
Cu891  Cu    0.50000   0.88022   0.75000   0.00000  Uiso   1.00
Cu892  Cu    0.50000   0.78645   0.75000   0.00000  Uiso   1.00
H893   H     0.47115   0.70993   0.68733   0.00000  Uiso   1.00
H894   H     0.52212   0.76200   0.88928   0.00000  Uiso   1.00
H895   H     0.47804   0.90473   0.88902   0.00000  Uiso   1.00
H896   H     0.47788   0.76200   0.61072   0.00000  Uiso   1.00
H897   H     0.52964   0.95666   0.81225   0.00000  Uiso   1.00
H898   H     0.52885   0.70993   0.81267   0.00000  Uiso   1.00
H899   H     0.47036   0.95666   0.68775   0.00000  Uiso   1.00
H900   H     0.52284   0.90443   0.53053   0.00000  Uiso   1.00
H901   H     0.52291   0.76231   0.96974   0.00000  Uiso   1.00
H902   H     0.47717   0.90443   0.96947   0.00000  Uiso   1.00
H903   H     0.47709   0.76231   0.53026   0.00000  Uiso   1.00
H904   H     0.52196   0.90473   0.61098   0.00000  Uiso   1.00
I905   I     0.37829   0.72829   0.71705   0.00000  Uiso   1.00
I906   I     0.62020   0.93995   0.71938   0.00000  Uiso   1.00
I907   I     0.62171   0.72830   0.78297   0.00000  Uiso   1.00
I908   I     0.37981   0.93995   0.78064   0.00000  Uiso   1.00
N909   N     0.50000   0.95069   0.75000   0.00000  Uiso   1.00
N910   N     0.50000   0.71598   0.75000   0.00000  Uiso   1.00
O911   O     0.43988   0.87291   0.75000   0.00000  Uiso   1.00
O912   O     0.56012   0.79375   0.75001   0.00000  Uiso   1.00
O913   O     0.56012   0.87291   0.75001   0.00000  Uiso   1.00
O914   O     0.43988   0.79375   0.75000   0.00000  Uiso   1.00
O915   O     0.50000   0.87293   0.68573   0.00000  Uiso   1.00
O916   O     0.50000   0.79374   0.81427   0.00000  Uiso   1.00
O917   O     0.50000   0.87293   0.81427   0.00000  Uiso   1.00
O918   O     0.50000   0.79374   0.68573   0.00000  Uiso   1.00
C919   C     0.75398   0.83339   0.74988   0.00000  Uiso   1.00
C920   C     0.97912   0.87626   0.74568   0.00000  Uiso   1.00
C921   C     0.97929   0.79132   0.75468   0.00000  Uiso   1.00
C922   C     0.68755   0.87626   0.75433   0.00000  Uiso   1.00
C923   C     0.84574   0.87340   0.54769   0.00000  Uiso   1.00
C924   C     0.84583   0.79334   0.95246   0.00000  Uiso   1.00
C925   C     0.82093   0.87340   0.95231   0.00000  Uiso   1.00
C926   C     0.82084   0.79334   0.54754   0.00000  Uiso   1.00
C927   C     0.84545   0.87350   0.59360   0.00000  Uiso   1.00
C928   C     0.84558   0.79322   0.90654   0.00000  Uiso   1.00
C929   C     0.82122   0.87350   0.90640   0.00000  Uiso   1.00
C930   C     0.91269   0.83340   0.75013   0.00000  Uiso   1.00
C931   C     0.82108   0.79322   0.59346   0.00000  Uiso   1.00
C932   C     0.83327   0.83335   0.61673   0.00000  Uiso   1.00
C933   C     0.83339   0.83335   0.88327   0.00000  Uiso   1.00
C934   C     0.83331   0.83337   0.52428   0.00000  Uiso   1.00
C935   C     0.83336   0.83337   0.97572   0.00000  Uiso   1.00
C936   C     0.95733   0.83368   0.75021   0.00000  Uiso   1.00
C937   C     0.70934   0.83368   0.74980   0.00000  Uiso   1.00
C938   C     0.83330   0.83334   0.66496   0.00000  Uiso   1.00
C939   C     0.83337   0.83334   0.83504   0.00000  Uiso   1.00
C940   C     0.81737   0.69142   0.71523   0.00000  Uiso   1.00
C941   C     0.84961   0.97520   0.78462   0.00000  Uiso   1.00
C942   C     0.84929   0.69142   0.78477   0.00000  Uiso   1.00
C943   C     0.81706   0.97520   0.71538   0.00000  Uiso   1.00
C944   C     0.68738   0.79132   0.74533   0.00000  Uiso   1.00
Cu945  Cu    0.83333   0.88022   0.75000   0.00000  Uiso   1.00
Cu946  Cu    0.83333   0.78645   0.75000   0.00000  Uiso   1.00
H947   H     0.80448   0.70993   0.68733   0.00000  Uiso   1.00
H948   H     0.85546   0.76200   0.88928   0.00000  Uiso   1.00
H949   H     0.81137   0.90473   0.88902   0.00000  Uiso   1.00
H950   H     0.81121   0.76200   0.61072   0.00000  Uiso   1.00
H951   H     0.86297   0.95666   0.81225   0.00000  Uiso   1.00
H952   H     0.86218   0.70993   0.81267   0.00000  Uiso   1.00
H953   H     0.80370   0.95666   0.68775   0.00000  Uiso   1.00
H954   H     0.85617   0.90443   0.53053   0.00000  Uiso   1.00
H955   H     0.85624   0.76231   0.96974   0.00000  Uiso   1.00
H956   H     0.81050   0.90443   0.96947   0.00000  Uiso   1.00
H957   H     0.81042   0.76231   0.53026   0.00000  Uiso   1.00
H958   H     0.85530   0.90473   0.61098   0.00000  Uiso   1.00
I959   I     0.71162   0.72829   0.71705   0.00000  Uiso   1.00
I960   I     0.95353   0.93995   0.71938   0.00000  Uiso   1.00
I961   I     0.95504   0.72830   0.78297   0.00000  Uiso   1.00
I962   I     0.71314   0.93995   0.78064   0.00000  Uiso   1.00
N963   N     0.83333   0.95069   0.75000   0.00000  Uiso   1.00
N964   N     0.83333   0.71598   0.75000   0.00000  Uiso   1.00
O965   O     0.77321   0.87291   0.75000   0.00000  Uiso   1.00
O966   O     0.89345   0.79375   0.75001   0.00000  Uiso   1.00
O967   O     0.89345   0.87291   0.75001   0.00000  Uiso   1.00
O968   O     0.77321   0.79375   0.75000   0.00000  Uiso   1.00
O969   O     0.83333   0.87293   0.68573   0.00000  Uiso   1.00
O970   O     0.83334   0.79374   0.81427   0.00000  Uiso   1.00
O971   O     0.83334   0.87293   0.81427   0.00000  Uiso   1.00
O972   O     0.83333   0.79374   0.68573   0.00000  Uiso   1.00
loop_
_geom_bond_atom_site_label_1
_geom_bond_atom_site_label_2
_geom_bond_distance
_geom_bond_site_symmetry_2
_ccdc_geom_bond_type
C1     O50     1.295   .     A
C1     C19     1.464   .     S
C1     O47     1.292   .     A
C2     C18     1.417   .     A
C2     I42     2.153   .     S
C2     C58     1.394   .     S
C3     I43     2.146   .     S
C3     C18     1.413   .     A
C3     C80     1.389   .     S
C4     I44     2.153   .     S
C4     C19     1.417   .     A
C4     C110    1.394   1_455 S
C5     C9      1.390   .     A
C5     H36     1.083   .     S
C5     C16     1.404   .     A
C6     C10     1.390   .     A
C6     H37     1.083   .     S
C6     C17     1.404   .     A
C7     C11     1.390   .     A
C7     H38     1.083   .     S
C7     C17     1.404   .     A
C8     C13     1.390   .     A
C8     H39     1.083   .     S
C8     C16     1.404   .     A
C9     C14     1.402   .     A
C9     H40     1.083   .     S
C10    H30     1.083   .     S
C10    C15     1.402   .     A
C11    H31     1.083   .     S
C11    C15     1.402   .     A
C12    O48     1.295   .     A
C12    O49     1.292   .     A
C12    C18     1.464   .     S
C13    H32     1.083   .     S
C13    C14     1.402   .     A
C14    C20     1.460   .     S
C15    C21     1.460   .     S
C16    C503    1.470   1_554 S
C17    C502    1.470   .     S
C19    C26     1.413   .     A
C20    O51     1.293   .     A
C20    O54     1.293   .     A
C21    O53     1.293   .     A
C21    O52     1.293   .     A
C22    H29     1.081   .     S
C22    N46     1.367   .     A
C22    C349    1.414   1_545 S
C23    N45     1.367   .     A
C23    H33     1.081   .     S
C23    C186    1.414   .     S
C24    N46     1.367   .     A
C24    H34     1.081   .     S
C24    C347    1.414   1_545 S
C25    N45     1.367   .     A
C25    H35     1.081   .     S
C25    C184    1.414   .     S
C26    I41     2.146   .     S
C26    C111    1.389   1_455 S
Cu27   O53     1.957   .     S
Cu27   N45     2.011   .     S
Cu27   O47     1.983   .     S
Cu27   Cu28    2.676   .     S
Cu27   O49     1.983   .     S
Cu27   O51     1.957   .     S
Cu28   N46     2.011   .     S
Cu28   O52     1.957   .     S
Cu28   O50     1.983   .     S
Cu28   O54     1.957   .     S
Cu28   O48     1.983   .     S
C55    O104    1.295   .     A
C55    C73     1.464   .     S
C55    O101    1.292   .     A
C56    C72     1.417   .     A
C56    I96     2.153   .     S
C56    C112    1.394   .     S
C57    I97     2.146   .     S
C57    C72     1.413   .     A
C57    C134    1.389   .     S
C58    I98     2.153   .     S
C58    C73     1.417   .     A
C59    C63     1.390   .     A
C59    H90     1.083   .     S
C59    C70     1.404   .     A
C60    C64     1.390   .     A
C60    H91     1.083   .     S
C60    C71     1.404   .     A
C61    C65     1.390   .     A
C61    H92     1.083   .     S
C61    C71     1.404   .     A
C62    C67     1.390   .     A
C62    H93     1.083   .     S
C62    C70     1.404   .     A
C63    C68     1.402   .     A
C63    H94     1.083   .     S
C64    H84     1.083   .     S
C64    C69     1.402   .     A
C65    H85     1.083   .     S
C65    C69     1.402   .     A
C66    O102    1.295   .     A
C66    O103    1.292   .     A
C66    C72     1.464   .     S
C67    H86     1.083   .     S
C67    C68     1.402   .     A
C68    C74     1.460   .     S
C69    C75     1.460   .     S
C70    C557    1.470   1_554 S
C71    C556    1.470   .     S
C73    C80     1.413   .     A
C74    O105    1.293   .     A
C74    O108    1.293   .     A
C75    O107    1.293   .     A
C75    O106    1.293   .     A
C76    H83     1.081   .     S
C76    N100    1.367   .     A
C76    C403    1.414   1_545 S
C77    N99     1.367   .     A
C77    H87     1.081   .     S
C77    C240    1.414   .     S
C78    N100    1.367   .     A
C78    H88     1.081   .     S
C78    C401    1.414   1_545 S
C79    N99     1.367   .     A
C79    H89     1.081   .     S
C79    C238    1.414   .     S
C80    I95     2.146   .     S
Cu81   O107    1.957   .     S
Cu81   N99     2.011   .     S
Cu81   O101    1.983   .     S
Cu81   Cu82    2.676   .     S
Cu81   O103    1.983   .     S
Cu81   O105    1.957   .     S
Cu82   N100    2.011   .     S
Cu82   O106    1.957   .     S
Cu82   O104    1.983   .     S
Cu82   O108    1.957   .     S
Cu82   O102    1.983   .     S
C109   O158    1.295   .     A
C109   C127    1.464   .     S
C109   O155    1.292   .     A
C110   C126    1.417   .     A
C110   I150    2.153   .     S
C110   C4      1.394   1_655 S
C111   I151    2.146   .     S
C111   C126    1.413   .     A
C111   C26     1.389   1_655 S
C112   I152    2.153   .     S
C112   C127    1.417   .     A
C113   C117    1.390   .     A
C113   H144    1.083   .     S
C113   C124    1.404   .     A
C114   C118    1.390   .     A
C114   H145    1.083   .     S
C114   C125    1.404   .     A
C115   C119    1.390   .     A
C115   H146    1.083   .     S
C115   C125    1.404   .     A
C116   C121    1.390   .     A
C116   H147    1.083   .     S
C116   C124    1.404   .     A
C117   C122    1.402   .     A
C117   H148    1.083   .     S
C118   H138    1.083   .     S
C118   C123    1.402   .     A
C119   H139    1.083   .     S
C119   C123    1.402   .     A
C120   O156    1.295   .     A
C120   O157    1.292   .     A
C120   C126    1.464   .     S
C121   H140    1.083   .     S
C121   C122    1.402   .     A
C122   C128    1.460   .     S
C123   C129    1.460   .     S
C124   C611    1.470   1_554 S
C125   C610    1.470   .     S
C127   C134    1.413   .     A
C128   O159    1.293   .     A
C128   O162    1.293   .     A
C129   O161    1.293   .     A
C129   O160    1.293   .     A
C130   H137    1.081   .     S
C130   N154    1.367   .     A
C130   C457    1.414   1_545 S
C131   N153    1.367   .     A
C131   H141    1.081   .     S
C131   C294    1.414   .     S
C132   N154    1.367   .     A
C132   H142    1.081   .     S
C132   C455    1.414   1_545 S
C133   N153    1.367   .     A
C133   H143    1.081   .     S
C133   C292    1.414   .     S
C134   I149    2.146   .     S
Cu135  O161    1.957   .     S
Cu135  N153    2.011   .     S
Cu135  O155    1.983   .     S
Cu135  Cu136   2.676   .     S
Cu135  O157    1.983   .     S
Cu135  O159    1.957   .     S
Cu136  N154    2.011   .     S
Cu136  O160    1.957   .     S
Cu136  O158    1.983   .     S
Cu136  O162    1.957   .     S
Cu136  O156    1.983   .     S
C163   O212    1.295   .     A
C163   C181    1.464   .     S
C163   O209    1.292   .     A
C164   C180    1.417   .     A
C164   I204    2.153   .     S
C164   C220    1.394   .     S
C165   I205    2.146   .     S
C165   C180    1.413   .     A
C165   C242    1.389   .     S
C166   I206    2.153   .     S
C166   C181    1.417   .     A
C166   C272    1.394   1_455 S
C167   C171    1.390   .     A
C167   H198    1.083   .     S
C167   C178    1.404   .     A
C168   C172    1.390   .     A
C168   H199    1.083   .     S
C168   C179    1.404   .     A
C169   C173    1.390   .     A
C169   H200    1.083   .     S
C169   C179    1.404   .     A
C170   C175    1.390   .     A
C170   H201    1.083   .     S
C170   C178    1.404   .     A
C171   C176    1.402   .     A
C171   H202    1.083   .     S
C172   H192    1.083   .     S
C172   C177    1.402   .     A
C173   H193    1.083   .     S
C173   C177    1.402   .     A
C174   O210    1.295   .     A
C174   O211    1.292   .     A
C174   C180    1.464   .     S
C175   H194    1.083   .     S
C175   C176    1.402   .     A
C176   C182    1.460   .     S
C177   C183    1.460   .     S
C178   C665    1.470   1_554 S
C179   C664    1.470   .     S
C181   C188    1.413   .     A
C182   O213    1.293   .     A
C182   O216    1.293   .     A
C183   O215    1.293   .     A
C183   O214    1.293   .     A
C184   H191    1.081   .     S
C184   N208    1.367   .     A
C185   N207    1.367   .     A
C185   H195    1.081   .     S
C185   C348    1.414   .     S
C186   N208    1.367   .     A
C186   H196    1.081   .     S
C187   N207    1.367   .     A
C187   H197    1.081   .     S
C187   C346    1.414   .     S
C188   I203    2.146   .     S
C188   C273    1.389   1_455 S
Cu189  O215    1.957   .     S
Cu189  N207    2.011   .     S
Cu189  O209    1.983   .     S
Cu189  Cu190   2.676   .     S
Cu189  O211    1.983   .     S
Cu189  O213    1.957   .     S
Cu190  N208    2.011   .     S
Cu190  O214    1.957   .     S
Cu190  O212    1.983   .     S
Cu190  O216    1.957   .     S
Cu190  O210    1.983   .     S
C217   O266    1.295   .     A
C217   C235    1.464   .     S
C217   O263    1.292   .     A
C218   C234    1.417   .     A
C218   I258    2.153   .     S
C218   C274    1.394   .     S
C219   I259    2.146   .     S
C219   C234    1.413   .     A
C219   C296    1.389   .     S
C220   I260    2.153   .     S
C220   C235    1.417   .     A
C221   C225    1.390   .     A
C221   H252    1.083   .     S
C221   C232    1.404   .     A
C222   C226    1.390   .     A
C222   H253    1.083   .     S
C222   C233    1.404   .     A
C223   C227    1.390   .     A
C223   H254    1.083   .     S
C223   C233    1.404   .     A
C224   C229    1.390   .     A
C224   H255    1.083   .     S
C224   C232    1.404   .     A
C225   C230    1.402   .     A
C225   H256    1.083   .     S
C226   H246    1.083   .     S
C226   C231    1.402   .     A
C227   H247    1.083   .     S
C227   C231    1.402   .     A
C228   O264    1.295   .     A
C228   O265    1.292   .     A
C228   C234    1.464   .     S
C229   H248    1.083   .     S
C229   C230    1.402   .     A
C230   C236    1.460   .     S
C231   C237    1.460   .     S
C232   C719    1.470   1_554 S
C233   C718    1.470   .     S
C235   C242    1.413   .     A
C236   O267    1.293   .     A
C236   O270    1.293   .     A
C237   O269    1.293   .     A
C237   O268    1.293   .     A
C238   H245    1.081   .     S
C238   N262    1.367   .     A
C239   N261    1.367   .     A
C239   H249    1.081   .     S
C239   C402    1.414   .     S
C240   N262    1.367   .     A
C240   H250    1.081   .     S
C241   N261    1.367   .     A
C241   H251    1.081   .     S
C241   C400    1.414   .     S
C242   I257    2.146   .     S
Cu243  O269    1.957   .     S
Cu243  N261    2.011   .     S
Cu243  O263    1.983   .     S
Cu243  Cu244   2.676   .     S
Cu243  O265    1.983   .     S
Cu243  O267    1.957   .     S
Cu244  N262    2.011   .     S
Cu244  O268    1.957   .     S
Cu244  O266    1.983   .     S
Cu244  O270    1.957   .     S
Cu244  O264    1.983   .     S
C271   O320    1.295   .     A
C271   C289    1.464   .     S
C271   O317    1.292   .     A
C272   C288    1.417   .     A
C272   I312    2.153   .     S
C272   C166    1.394   1_655 S
C273   I313    2.146   .     S
C273   C288    1.413   .     A
C273   C188    1.389   1_655 S
C274   I314    2.153   .     S
C274   C289    1.417   .     A
C275   C279    1.390   .     A
C275   H306    1.083   .     S
C275   C286    1.404   .     A
C276   C280    1.390   .     A
C276   H307    1.083   .     S
C276   C287    1.404   .     A
C277   C281    1.390   .     A
C277   H308    1.083   .     S
C277   C287    1.404   .     A
C278   C283    1.390   .     A
C278   H309    1.083   .     S
C278   C286    1.404   .     A
C279   C284    1.402   .     A
C279   H310    1.083   .     S
C280   H300    1.083   .     S
C280   C285    1.402   .     A
C281   H301    1.083   .     S
C281   C285    1.402   .     A
C282   O318    1.295   .     A
C282   O319    1.292   .     A
C282   C288    1.464   .     S
C283   H302    1.083   .     S
C283   C284    1.402   .     A
C284   C290    1.460   .     S
C285   C291    1.460   .     S
C286   C773    1.470   1_554 S
C287   C772    1.470   .     S
C289   C296    1.413   .     A
C290   O321    1.293   .     A
C290   O324    1.293   .     A
C291   O323    1.293   .     A
C291   O322    1.293   .     A
C292   H299    1.081   .     S
C292   N316    1.367   .     A
C293   N315    1.367   .     A
C293   H303    1.081   .     S
C293   C456    1.414   .     S
C294   N316    1.367   .     A
C294   H304    1.081   .     S
C295   N315    1.367   .     A
C295   H305    1.081   .     S
C295   C454    1.414   .     S
C296   I311    2.146   .     S
Cu297  O323    1.957   .     S
Cu297  N315    2.011   .     S
Cu297  O317    1.983   .     S
Cu297  Cu298   2.676   .     S
Cu297  O319    1.983   .     S
Cu297  O321    1.957   .     S
Cu298  N316    2.011   .     S
Cu298  O322    1.957   .     S
Cu298  O320    1.983   .     S
Cu298  O324    1.957   .     S
Cu298  O318    1.983   .     S
C325   O374    1.295   .     A
C325   C343    1.464   .     S
C325   O371    1.292   .     A
C326   C342    1.417   .     A
C326   I366    2.153   .     S
C326   C382    1.394   .     S
C327   I367    2.146   .     S
C327   C342    1.413   .     A
C327   C404    1.389   .     S
C328   I368    2.153   .     S
C328   C343    1.417   .     A
C328   C434    1.394   1_455 S
C329   C333    1.390   .     A
C329   H360    1.083   .     S
C329   C340    1.404   .     A
C330   C334    1.390   .     A
C330   H361    1.083   .     S
C330   C341    1.404   .     A
C331   C335    1.390   .     A
C331   H362    1.083   .     S
C331   C341    1.404   .     A
C332   C337    1.390   .     A
C332   H363    1.083   .     S
C332   C340    1.404   .     A
C333   C338    1.402   .     A
C333   H364    1.083   .     S
C334   H354    1.083   .     S
C334   C339    1.402   .     A
C335   H355    1.083   .     S
C335   C339    1.402   .     A
C336   O372    1.295   .     A
C336   O373    1.292   .     A
C336   C342    1.464   .     S
C337   H356    1.083   .     S
C337   C338    1.402   .     A
C338   C344    1.460   .     S
C339   C345    1.460   .     S
C340   C827    1.470   1_554 S
C341   C826    1.470   .     S
C343   C350    1.413   .     A
C344   O375    1.293   .     A
C344   O378    1.293   .     A
C345   O377    1.293   .     A
C345   O376    1.293   .     A
C346   H353    1.081   .     S
C346   N370    1.367   .     A
C347   N369    1.367   .     A
C347   H357    1.081   .     S
C347   C24     1.414   1_565 S
C348   N370    1.367   .     A
C348   H358    1.081   .     S
C349   N369    1.367   .     A
C349   H359    1.081   .     S
C349   C22     1.414   1_565 S
C350   I365    2.146   .     S
C350   C435    1.389   1_455 S
Cu351  O377    1.957   .     S
Cu351  N369    2.011   .     S
Cu351  O371    1.983   .     S
Cu351  Cu352   2.676   .     S
Cu351  O373    1.983   .     S
Cu351  O375    1.957   .     S
Cu352  N370    2.011   .     S
Cu352  O376    1.957   .     S
Cu352  O374    1.983   .     S
Cu352  O378    1.957   .     S
Cu352  O372    1.983   .     S
C379   O428    1.295   .     A
C379   C397    1.464   .     S
C379   O425    1.292   .     A
C380   C396    1.417   .     A
C380   I420    2.153   .     S
C380   C436    1.394   .     S
C381   I421    2.146   .     S
C381   C396    1.413   .     A
C381   C458    1.389   .     S
C382   I422    2.153   .     S
C382   C397    1.417   .     A
C383   C387    1.390   .     A
C383   H414    1.083   .     S
C383   C394    1.404   .     A
C384   C388    1.390   .     A
C384   H415    1.083   .     S
C384   C395    1.404   .     A
C385   C389    1.390   .     A
C385   H416    1.083   .     S
C385   C395    1.404   .     A
C386   C391    1.390   .     A
C386   H417    1.083   .     S
C386   C394    1.404   .     A
C387   C392    1.402   .     A
C387   H418    1.083   .     S
C388   H408    1.083   .     S
C388   C393    1.402   .     A
C389   H409    1.083   .     S
C389   C393    1.402   .     A
C390   O426    1.295   .     A
C390   O427    1.292   .     A
C390   C396    1.464   .     S
C391   H410    1.083   .     S
C391   C392    1.402   .     A
C392   C398    1.460   .     S
C393   C399    1.460   .     S
C394   C881    1.470   1_554 S
C395   C880    1.470   .     S
C397   C404    1.413   .     A
C398   O429    1.293   .     A
C398   O432    1.293   .     A
C399   O431    1.293   .     A
C399   O430    1.293   .     A
C400   H407    1.081   .     S
C400   N424    1.367   .     A
C401   N423    1.367   .     A
C401   H411    1.081   .     S
C401   C78     1.414   1_565 S
C402   N424    1.367   .     A
C402   H412    1.081   .     S
C403   N423    1.367   .     A
C403   H413    1.081   .     S
C403   C76     1.414   1_565 S
C404   I419    2.146   .     S
Cu405  O431    1.957   .     S
Cu405  N423    2.011   .     S
Cu405  O425    1.983   .     S
Cu405  Cu406   2.676   .     S
Cu405  O427    1.983   .     S
Cu405  O429    1.957   .     S
Cu406  N424    2.011   .     S
Cu406  O430    1.957   .     S
Cu406  O428    1.983   .     S
Cu406  O432    1.957   .     S
Cu406  O426    1.983   .     S
C433   O482    1.295   .     A
C433   C451    1.464   .     S
C433   O479    1.292   .     A
C434   C450    1.417   .     A
C434   I474    2.153   .     S
C434   C328    1.394   1_655 S
C435   I475    2.146   .     S
C435   C450    1.413   .     A
C435   C350    1.389   1_655 S
C436   I476    2.153   .     S
C436   C451    1.417   .     A
C437   C441    1.390   .     A
C437   H468    1.083   .     S
C437   C448    1.404   .     A
C438   C442    1.390   .     A
C438   H469    1.083   .     S
C438   C449    1.404   .     A
C439   C443    1.390   .     A
C439   H470    1.083   .     S
C439   C449    1.404   .     A
C440   C445    1.390   .     A
C440   H471    1.083   .     S
C440   C448    1.404   .     A
C441   C446    1.402   .     A
C441   H472    1.083   .     S
C442   H462    1.083   .     S
C442   C447    1.402   .     A
C443   H463    1.083   .     S
C443   C447    1.402   .     A
C444   O480    1.295   .     A
C444   O481    1.292   .     A
C444   C450    1.464   .     S
C445   H464    1.083   .     S
C445   C446    1.402   .     A
C446   C452    1.460   .     S
C447   C453    1.460   .     S
C448   C935    1.470   1_554 S
C449   C934    1.470   .     S
C451   C458    1.413   .     A
C452   O483    1.293   .     A
C452   O486    1.293   .     A
C453   O485    1.293   .     A
C453   O484    1.293   .     A
C454   H461    1.081   .     S
C454   N478    1.367   .     A
C455   N477    1.367   .     A
C455   H465    1.081   .     S
C455   C132    1.414   1_565 S
C456   N478    1.367   .     A
C456   H466    1.081   .     S
C457   N477    1.367   .     A
C457   H467    1.081   .     S
C457   C130    1.414   1_565 S
C458   I473    2.146   .     S
Cu459  O485    1.957   .     S
Cu459  N477    2.011   .     S
Cu459  O479    1.983   .     S
Cu459  Cu460   2.676   .     S
Cu459  O481    1.983   .     S
Cu459  O483    1.957   .     S
Cu460  N478    2.011   .     S
Cu460  O484    1.957   .     S
Cu460  O482    1.983   .     S
Cu460  O486    1.957   .     S
Cu460  O480    1.983   .     S
C487   O536    1.295   .     A
C487   C505    1.464   .     S
C487   O533    1.292   .     A
C488   C504    1.417   .     A
C488   I528    2.153   .     S
C488   C544    1.394   .     S
C489   I529    2.146   .     S
C489   C504    1.413   .     A
C489   C566    1.389   .     S
C490   I530    2.153   .     S
C490   C505    1.417   .     A
C490   C596    1.394   1_455 S
C491   C495    1.390   .     A
C491   H522    1.083   .     S
C491   C502    1.404   .     A
C492   C496    1.390   .     A
C492   H523    1.083   .     S
C492   C503    1.404   .     A
C493   C497    1.390   .     A
C493   H524    1.083   .     S
C493   C503    1.404   .     A
C494   C499    1.390   .     A
C494   H525    1.083   .     S
C494   C502    1.404   .     A
C495   C500    1.402   .     A
C495   H526    1.083   .     S
C496   H516    1.083   .     S
C496   C501    1.402   .     A
C497   H517    1.083   .     S
C497   C501    1.402   .     A
C498   O534    1.295   .     A
C498   O535    1.292   .     A
C498   C504    1.464   .     S
C499   H518    1.083   .     S
C499   C500    1.402   .     A
C500   C506    1.460   .     S
C501   C507    1.460   .     S
C503   C16     1.470   1_556 S
C505   C512    1.413   .     A
C506   O537    1.293   .     A
C506   O540    1.293   .     A
C507   O539    1.293   .     A
C507   O538    1.293   .     A
C508   H515    1.081   .     S
C508   N532    1.367   .     A
C508   C835    1.414   1_545 S
C509   N531    1.367   .     A
C509   H519    1.081   .     S
C509   C672    1.414   .     S
C510   N532    1.367   .     A
C510   H520    1.081   .     S
C510   C833    1.414   1_545 S
C511   N531    1.367   .     A
C511   H521    1.081   .     S
C511   C670    1.414   .     S
C512   I527    2.146   .     S
C512   C597    1.389   1_455 S
Cu513  O539    1.957   .     S
Cu513  N531    2.011   .     S
Cu513  O533    1.983   .     S
Cu513  Cu514   2.676   .     S
Cu513  O535    1.983   .     S
Cu513  O537    1.957   .     S
Cu514  N532    2.011   .     S
Cu514  O538    1.957   .     S
Cu514  O536    1.983   .     S
Cu514  O540    1.957   .     S
Cu514  O534    1.983   .     S
C541   O590    1.295   .     A
C541   C559    1.464   .     S
C541   O587    1.292   .     A
C542   C558    1.417   .     A
C542   I582    2.153   .     S
C542   C598    1.394   .     S
C543   I583    2.146   .     S
C543   C558    1.413   .     A
C543   C620    1.389   .     S
C544   I584    2.153   .     S
C544   C559    1.417   .     A
C545   C549    1.390   .     A
C545   H576    1.083   .     S
C545   C556    1.404   .     A
C546   C550    1.390   .     A
C546   H577    1.083   .     S
C546   C557    1.404   .     A
C547   C551    1.390   .     A
C547   H578    1.083   .     S
C547   C557    1.404   .     A
C548   C553    1.390   .     A
C548   H579    1.083   .     S
C548   C556    1.404   .     A
C549   C554    1.402   .     A
C549   H580    1.083   .     S
C550   H570    1.083   .     S
C550   C555    1.402   .     A
C551   H571    1.083   .     S
C551   C555    1.402   .     A
C552   O588    1.295   .     A
C552   O589    1.292   .     A
C552   C558    1.464   .     S
C553   H572    1.083   .     S
C553   C554    1.402   .     A
C554   C560    1.460   .     S
C555   C561    1.460   .     S
C557   C70     1.470   1_556 S
C559   C566    1.413   .     A
C560   O591    1.293   .     A
C560   O594    1.293   .     A
C561   O593    1.293   .     A
C561   O592    1.293   .     A
C562   H569    1.081   .     S
C562   N586    1.367   .     A
C562   C889    1.414   1_545 S
C563   N585    1.367   .     A
C563   H573    1.081   .     S
C563   C726    1.414   .     S
C564   N586    1.367   .     A
C564   H574    1.081   .     S
C564   C887    1.414   1_545 S
C565   N585    1.367   .     A
C565   H575    1.081   .     S
C565   C724    1.414   .     S
C566   I581    2.146   .     S
Cu567  O593    1.957   .     S
Cu567  N585    2.011   .     S
Cu567  O587    1.983   .     S
Cu567  Cu568   2.676   .     S
Cu567  O589    1.983   .     S
Cu567  O591    1.957   .     S
Cu568  N586    2.011   .     S
Cu568  O592    1.957   .     S
Cu568  O590    1.983   .     S
Cu568  O594    1.957   .     S
Cu568  O588    1.983   .     S
C595   O644    1.295   .     A
C595   C613    1.464   .     S
C595   O641    1.292   .     A
C596   C612    1.417   .     A
C596   I636    2.153   .     S
C596   C490    1.394   1_655 S
C597   I637    2.146   .     S
C597   C612    1.413   .     A
C597   C512    1.389   1_655 S
C598   I638    2.153   .     S
C598   C613    1.417   .     A
C599   C603    1.390   .     A
C599   H630    1.083   .     S
C599   C610    1.404   .     A
C600   C604    1.390   .     A
C600   H631    1.083   .     S
C600   C611    1.404   .     A
C601   C605    1.390   .     A
C601   H632    1.083   .     S
C601   C611    1.404   .     A
C602   C607    1.390   .     A
C602   H633    1.083   .     S
C602   C610    1.404   .     A
C603   C608    1.402   .     A
C603   H634    1.083   .     S
C604   H624    1.083   .     S
C604   C609    1.402   .     A
C605   H625    1.083   .     S
C605   C609    1.402   .     A
C606   O642    1.295   .     A
C606   O643    1.292   .     A
C606   C612    1.464   .     S
C607   H626    1.083   .     S
C607   C608    1.402   .     A
C608   C614    1.460   .     S
C609   C615    1.460   .     S
C611   C124    1.470   1_556 S
C613   C620    1.413   .     A
C614   O645    1.293   .     A
C614   O648    1.293   .     A
C615   O647    1.293   .     A
C615   O646    1.293   .     A
C616   H623    1.081   .     S
C616   N640    1.367   .     A
C616   C943    1.414   1_545 S
C617   N639    1.367   .     A
C617   H627    1.081   .     S
C617   C780    1.414   .     S
C618   N640    1.367   .     A
C618   H628    1.081   .     S
C618   C941    1.414   1_545 S
C619   N639    1.367   .     A
C619   H629    1.081   .     S
C619   C778    1.414   .     S
C620   I635    2.146   .     S
Cu621  O647    1.957   .     S
Cu621  N639    2.011   .     S
Cu621  O641    1.983   .     S
Cu621  Cu622   2.676   .     S
Cu621  O643    1.983   .     S
Cu621  O645    1.957   .     S
Cu622  N640    2.011   .     S
Cu622  O646    1.957   .     S
Cu622  O644    1.983   .     S
Cu622  O648    1.957   .     S
Cu622  O642    1.983   .     S
C649   O698    1.295   .     A
C649   C667    1.464   .     S
C649   O695    1.292   .     A
C650   C666    1.417   .     A
C650   I690    2.153   .     S
C650   C706    1.394   .     S
C651   I691    2.146   .     S
C651   C666    1.413   .     A
C651   C728    1.389   .     S
C652   I692    2.153   .     S
C652   C667    1.417   .     A
C652   C758    1.394   1_455 S
C653   C657    1.390   .     A
C653   H684    1.083   .     S
C653   C664    1.404   .     A
C654   C658    1.390   .     A
C654   H685    1.083   .     S
C654   C665    1.404   .     A
C655   C659    1.390   .     A
C655   H686    1.083   .     S
C655   C665    1.404   .     A
C656   C661    1.390   .     A
C656   H687    1.083   .     S
C656   C664    1.404   .     A
C657   C662    1.402   .     A
C657   H688    1.083   .     S
C658   H678    1.083   .     S
C658   C663    1.402   .     A
C659   H679    1.083   .     S
C659   C663    1.402   .     A
C660   O696    1.295   .     A
C660   O697    1.292   .     A
C660   C666    1.464   .     S
C661   H680    1.083   .     S
C661   C662    1.402   .     A
C662   C668    1.460   .     S
C663   C669    1.460   .     S
C665   C178    1.470   1_556 S
C667   C674    1.413   .     A
C668   O699    1.293   .     A
C668   O702    1.293   .     A
C669   O701    1.293   .     A
C669   O700    1.293   .     A
C670   H677    1.081   .     S
C670   N694    1.367   .     A
C671   N693    1.367   .     A
C671   H681    1.081   .     S
C671   C834    1.414   .     S
C672   N694    1.367   .     A
C672   H682    1.081   .     S
C673   N693    1.367   .     A
C673   H683    1.081   .     S
C673   C832    1.414   .     S
C674   I689    2.146   .     S
C674   C759    1.389   1_455 S
Cu675  O701    1.957   .     S
Cu675  N693    2.011   .     S
Cu675  O695    1.983   .     S
Cu675  Cu676   2.676   .     S
Cu675  O697    1.983   .     S
Cu675  O699    1.957   .     S
Cu676  N694    2.011   .     S
Cu676  O700    1.957   .     S
Cu676  O698    1.983   .     S
Cu676  O702    1.957   .     S
Cu676  O696    1.983   .     S
C703   O752    1.295   .     A
C703   C721    1.464   .     S
C703   O749    1.292   .     A
C704   C720    1.417   .     A
C704   I744    2.153   .     S
C704   C760    1.394   .     S
C705   I745    2.146   .     S
C705   C720    1.413   .     A
C705   C782    1.389   .     S
C706   I746    2.153   .     S
C706   C721    1.417   .     A
C707   C711    1.390   .     A
C707   H738    1.083   .     S
C707   C718    1.404   .     A
C708   C712    1.390   .     A
C708   H739    1.083   .     S
C708   C719    1.404   .     A
C709   C713    1.390   .     A
C709   H740    1.083   .     S
C709   C719    1.404   .     A
C710   C715    1.390   .     A
C710   H741    1.083   .     S
C710   C718    1.404   .     A
C711   C716    1.402   .     A
C711   H742    1.083   .     S
C712   H732    1.083   .     S
C712   C717    1.402   .     A
C713   H733    1.083   .     S
C713   C717    1.402   .     A
C714   O750    1.295   .     A
C714   O751    1.292   .     A
C714   C720    1.464   .     S
C715   H734    1.083   .     S
C715   C716    1.402   .     A
C716   C722    1.460   .     S
C717   C723    1.460   .     S
C719   C232    1.470   1_556 S
C721   C728    1.413   .     A
C722   O753    1.293   .     A
C722   O756    1.293   .     A
C723   O755    1.293   .     A
C723   O754    1.293   .     A
C724   H731    1.081   .     S
C724   N748    1.367   .     A
C725   N747    1.367   .     A
C725   H735    1.081   .     S
C725   C888    1.414   .     S
C726   N748    1.367   .     A
C726   H736    1.081   .     S
C727   N747    1.367   .     A
C727   H737    1.081   .     S
C727   C886    1.414   .     S
C728   I743    2.146   .     S
Cu729  O755    1.957   .     S
Cu729  N747    2.011   .     S
Cu729  O749    1.983   .     S
Cu729  Cu730   2.676   .     S
Cu729  O751    1.983   .     S
Cu729  O753    1.957   .     S
Cu730  N748    2.011   .     S
Cu730  O754    1.957   .     S
Cu730  O752    1.983   .     S
Cu730  O756    1.957   .     S
Cu730  O750    1.983   .     S
C757   O806    1.295   .     A
C757   C775    1.464   .     S
C757   O803    1.292   .     A
C758   C774    1.417   .     A
C758   I798    2.153   .     S
C758   C652    1.394   1_655 S
C759   I799    2.146   .     S
C759   C774    1.413   .     A
C759   C674    1.389   1_655 S
C760   I800    2.153   .     S
C760   C775    1.417   .     A
C761   C765    1.390   .     A
C761   H792    1.083   .     S
C761   C772    1.404   .     A
C762   C766    1.390   .     A
C762   H793    1.083   .     S
C762   C773    1.404   .     A
C763   C767    1.390   .     A
C763   H794    1.083   .     S
C763   C773    1.404   .     A
C764   C769    1.390   .     A
C764   H795    1.083   .     S
C764   C772    1.404   .     A
C765   C770    1.402   .     A
C765   H796    1.083   .     S
C766   H786    1.083   .     S
C766   C771    1.402   .     A
C767   H787    1.083   .     S
C767   C771    1.402   .     A
C768   O804    1.295   .     A
C768   O805    1.292   .     A
C768   C774    1.464   .     S
C769   H788    1.083   .     S
C769   C770    1.402   .     A
C770   C776    1.460   .     S
C771   C777    1.460   .     S
C773   C286    1.470   1_556 S
C775   C782    1.413   .     A
C776   O807    1.293   .     A
C776   O810    1.293   .     A
C777   O809    1.293   .     A
C777   O808    1.293   .     A
C778   H785    1.081   .     S
C778   N802    1.367   .     A
C779   N801    1.367   .     A
C779   H789    1.081   .     S
C779   C942    1.414   .     S
C780   N802    1.367   .     A
C780   H790    1.081   .     S
C781   N801    1.367   .     A
C781   H791    1.081   .     S
C781   C940    1.414   .     S
C782   I797    2.146   .     S
Cu783  O809    1.957   .     S
Cu783  N801    2.011   .     S
Cu783  O803    1.983   .     S
Cu783  Cu784   2.676   .     S
Cu783  O805    1.983   .     S
Cu783  O807    1.957   .     S
Cu784  N802    2.011   .     S
Cu784  O808    1.957   .     S
Cu784  O806    1.983   .     S
Cu784  O810    1.957   .     S
Cu784  O804    1.983   .     S
C811   O860    1.295   .     A
C811   C829    1.464   .     S
C811   O857    1.292   .     A
C812   C828    1.417   .     A
C812   I852    2.153   .     S
C812   C868    1.394   .     S
C813   I853    2.146   .     S
C813   C828    1.413   .     A
C813   C890    1.389   .     S
C814   I854    2.153   .     S
C814   C829    1.417   .     A
C814   C920    1.394   1_455 S
C815   C819    1.390   .     A
C815   H846    1.083   .     S
C815   C826    1.404   .     A
C816   C820    1.390   .     A
C816   H847    1.083   .     S
C816   C827    1.404   .     A
C817   C821    1.390   .     A
C817   H848    1.083   .     S
C817   C827    1.404   .     A
C818   C823    1.390   .     A
C818   H849    1.083   .     S
C818   C826    1.404   .     A
C819   C824    1.402   .     A
C819   H850    1.083   .     S
C820   H840    1.083   .     S
C820   C825    1.402   .     A
C821   H841    1.083   .     S
C821   C825    1.402   .     A
C822   O858    1.295   .     A
C822   O859    1.292   .     A
C822   C828    1.464   .     S
C823   H842    1.083   .     S
C823   C824    1.402   .     A
C824   C830    1.460   .     S
C825   C831    1.460   .     S
C827   C340    1.470   1_556 S
C829   C836    1.413   .     A
C830   O861    1.293   .     A
C830   O864    1.293   .     A
C831   O863    1.293   .     A
C831   O862    1.293   .     A
C832   H839    1.081   .     S
C832   N856    1.367   .     A
C833   N855    1.367   .     A
C833   H843    1.081   .     S
C833   C510    1.414   1_565 S
C834   N856    1.367   .     A
C834   H844    1.081   .     S
C835   N855    1.367   .     A
C835   H845    1.081   .     S
C835   C508    1.414   1_565 S
C836   I851    2.146   .     S
C836   C921    1.389   1_455 S
Cu837  O863    1.957   .     S
Cu837  N855    2.011   .     S
Cu837  O857    1.983   .     S
Cu837  Cu838   2.676   .     S
Cu837  O859    1.983   .     S
Cu837  O861    1.957   .     S
Cu838  N856    2.011   .     S
Cu838  O862    1.957   .     S
Cu838  O860    1.983   .     S
Cu838  O864    1.957   .     S
Cu838  O858    1.983   .     S
C865   O914    1.295   .     A
C865   C883    1.464   .     S
C865   O911    1.292   .     A
C866   C882    1.417   .     A
C866   I906    2.153   .     S
C866   C922    1.394   .     S
C867   I907    2.146   .     S
C867   C882    1.413   .     A
C867   C944    1.389   .     S
C868   I908    2.153   .     S
C868   C883    1.417   .     A
C869   C873    1.390   .     A
C869   H900    1.083   .     S
C869   C880    1.404   .     A
C870   C874    1.390   .     A
C870   H901    1.083   .     S
C870   C881    1.404   .     A
C871   C875    1.390   .     A
C871   H902    1.083   .     S
C871   C881    1.404   .     A
C872   C877    1.390   .     A
C872   H903    1.083   .     S
C872   C880    1.404   .     A
C873   C878    1.402   .     A
C873   H904    1.083   .     S
C874   H894    1.083   .     S
C874   C879    1.402   .     A
C875   H895    1.083   .     S
C875   C879    1.402   .     A
C876   O912    1.295   .     A
C876   O913    1.292   .     A
C876   C882    1.464   .     S
C877   H896    1.083   .     S
C877   C878    1.402   .     A
C878   C884    1.460   .     S
C879   C885    1.460   .     S
C881   C394    1.470   1_556 S
C883   C890    1.413   .     A
C884   O915    1.293   .     A
C884   O918    1.293   .     A
C885   O917    1.293   .     A
C885   O916    1.293   .     A
C886   H893    1.081   .     S
C886   N910    1.367   .     A
C887   N909    1.367   .     A
C887   H897    1.081   .     S
C887   C564    1.414   1_565 S
C888   N910    1.367   .     A
C888   H898    1.081   .     S
C889   N909    1.367   .     A
C889   H899    1.081   .     S
C889   C562    1.414   1_565 S
C890   I905    2.146   .     S
Cu891  O917    1.957   .     S
Cu891  N909    2.011   .     S
Cu891  O911    1.983   .     S
Cu891  Cu892   2.676   .     S
Cu891  O913    1.983   .     S
Cu891  O915    1.957   .     S
Cu892  N910    2.011   .     S
Cu892  O916    1.957   .     S
Cu892  O914    1.983   .     S
Cu892  O918    1.957   .     S
Cu892  O912    1.983   .     S
C919   O968    1.295   .     A
C919   C937    1.464   .     S
C919   O965    1.292   .     A
C920   C936    1.417   .     A
C920   I960    2.153   .     S
C920   C814    1.394   1_655 S
C921   I961    2.146   .     S
C921   C936    1.413   .     A
C921   C836    1.389   1_655 S
C922   I962    2.153   .     S
C922   C937    1.417   .     A
C923   C927    1.390   .     A
C923   H954    1.083   .     S
C923   C934    1.404   .     A
C924   C928    1.390   .     A
C924   H955    1.083   .     S
C924   C935    1.404   .     A
C925   C929    1.390   .     A
C925   H956    1.083   .     S
C925   C935    1.404   .     A
C926   C931    1.390   .     A
C926   H957    1.083   .     S
C926   C934    1.404   .     A
C927   C932    1.402   .     A
C927   H958    1.083   .     S
C928   H948    1.083   .     S
C928   C933    1.402   .     A
C929   H949    1.083   .     S
C929   C933    1.402   .     A
C930   O966    1.295   .     A
C930   O967    1.292   .     A
C930   C936    1.464   .     S
C931   H950    1.083   .     S
C931   C932    1.402   .     A
C932   C938    1.460   .     S
C933   C939    1.460   .     S
C935   C448    1.470   1_556 S
C937   C944    1.413   .     A
C938   O969    1.293   .     A
C938   O972    1.293   .     A
C939   O971    1.293   .     A
C939   O970    1.293   .     A
C940   H947    1.081   .     S
C940   N964    1.367   .     A
C941   N963    1.367   .     A
C941   H951    1.081   .     S
C941   C618    1.414   1_565 S
C942   N964    1.367   .     A
C942   H952    1.081   .     S
C943   N963    1.367   .     A
C943   H953    1.081   .     S
C943   C616    1.414   1_565 S
C944   I959    2.146   .     S
Cu945  O971    1.957   .     S
Cu945  N963    2.011   .     S
Cu945  O965    1.983   .     S
Cu945  Cu946   2.676   .     S
Cu945  O967    1.983   .     S
Cu945  O969    1.957   .     S
Cu946  N964    2.011   .     S
Cu946  O970    1.957   .     S
Cu946  O968    1.983   .     S
Cu946  O972    1.957   .     S
Cu946  O966    1.983   .     S
