data_str_m2_o1_o16_pcu_sym.228
_audit_creation_date              2020-01-03
_audit_creation_method            'Materials Studio'
_symmetry_space_group_name_H-M    'P1'
_symmetry_Int_Tables_number       1
_symmetry_cell_setting            triclinic
loop_
_symmetry_equiv_pos_as_xyz
  x,y,z
_cell_length_a                    28.5247
_cell_length_b                    32.4851
_cell_length_c                    26.9165
_cell_angle_alpha                 90.1419
_cell_angle_beta                  72.3425
_cell_angle_gamma                 89.8900
loop_
_atom_site_label
_atom_site_type_symbol
_atom_site_fract_x
_atom_site_fract_y
_atom_site_fract_z
_atom_site_U_iso_or_equiv
_atom_site_adp_type
_atom_site_occupancy
C1     C     0.16655   0.24598   0.25035   0.00000  Uiso   1.00
C2     C     0.14488   0.16071   0.48966   0.00000  Uiso   1.00
C3     C     0.15755   0.15133   0.43567   0.00000  Uiso   1.00
C4     C     0.18132   0.15608   0.01557   0.00000  Uiso   1.00
C5     C     0.22790   0.13882   0.48860   0.00000  Uiso   1.00
C6     C     0.23734   0.12530   0.43742   0.00000  Uiso   1.00
C7     C     0.20243   0.13070   0.41166   0.00000  Uiso   1.00
C8     C     0.17301   0.16829   0.06751   0.00000  Uiso   1.00
C9     C     0.25417   0.14508   0.06590   0.00000  Uiso   1.00
C10    C     0.12452   0.16229   0.40750   0.00000  Uiso   1.00
C11    C     0.20807   0.31197   0.25386   0.00000  Uiso   1.00
C12    C     0.14043   0.16434   0.35008   0.00000  Uiso   1.00
C13    C     0.20812   0.02122   0.25377   0.00000  Uiso   1.00
C14    C     0.16646   0.04273   0.25077   0.00000  Uiso   1.00
C15    C     0.12460   0.02134   0.24832   0.00000  Uiso   1.00
C16    C     0.12456   0.31210   0.24838   0.00000  Uiso   1.00
C17    C     0.16637   0.29059   0.25091   0.00000  Uiso   1.00
C18    C     0.29912   0.19284   0.28170   0.00000  Uiso   1.00
C19    C     0.01592   0.19285   0.28269   0.00000  Uiso   1.00
C20    C     0.03390   0.14068   0.21815   0.00000  Uiso   1.00
C21    C     0.31765   0.14063   0.21826   0.00000  Uiso   1.00
C22    C     0.16662   0.08734   0.25022   0.00000  Uiso   1.00
C23    C     0.19298   0.16619   0.14994   0.00000  Uiso   1.00
C24    C     0.26418   0.13418   0.01364   0.00000  Uiso   1.00
C25    C     0.20802   0.16121   0.09326   0.00000  Uiso   1.00
C26    C     0.07664   0.17520   0.43470   0.00000  Uiso   1.00
C27    C     0.06237   0.17999   0.48840   0.00000  Uiso   1.00
C28    C     0.09610   0.17378   0.01564   0.00000  Uiso   1.00
Cu29   Cu    0.11978   0.16666   0.25000   0.00000  Uiso   1.00
Cu30   Cu    0.21355   0.16667   0.25000   0.00000  Uiso   1.00
H31    H     0.28173   0.13944   0.08531   0.00000  Uiso   1.00
H32    H     0.24074   0.03718   0.25600   0.00000  Uiso   1.00
H33    H     0.09198   0.03740   0.24610   0.00000  Uiso   1.00
H34    H     0.09195   0.29613   0.24613   0.00000  Uiso   1.00
H35    H     0.27187   0.21361   0.30547   0.00000  Uiso   1.00
H36    H     0.05995   0.11985   0.19254   0.00000  Uiso   1.00
H37    H     0.30626   0.11977   0.19275   0.00000  Uiso   1.00
H38    H     0.27185   0.11027   0.41717   0.00000  Uiso   1.00
H39    H     0.29979   0.12105   0.49318   0.00000  Uiso   1.00
H40    H     0.13921   0.18308   0.08931   0.00000  Uiso   1.00
H41    H     0.05030   0.18247   0.41431   0.00000  Uiso   1.00
H42    H     0.08231   0.17848   0.05717   0.00000  Uiso   1.00
H43    H     0.02522   0.18981   0.00896   0.00000  Uiso   1.00
H44    H     0.21080   0.11725   0.37324   0.00000  Uiso   1.00
H45    H     0.24065   0.29589   0.25614   0.00000  Uiso   1.00
N46    N     0.04931   0.16666   0.24999   0.00000  Uiso   1.00
N47    N     0.28402   0.16669   0.24999   0.00000  Uiso   1.00
O48    O     0.12708   0.22678   0.25001   0.00000  Uiso   1.00
O49    O     0.20627   0.22679   0.25000   0.00000  Uiso   1.00
O50    O     0.10775   0.16665   0.32549   0.00000  Uiso   1.00
O51    O     0.18694   0.16666   0.32549   0.00000  Uiso   1.00
O52    O     0.12706   0.10654   0.24999   0.00000  Uiso   1.00
O53    O     0.20625   0.10655   0.24999   0.00000  Uiso   1.00
O54    O     0.14640   0.16667   0.17451   0.00000  Uiso   1.00
O55    O     0.22559   0.16668   0.17451   0.00000  Uiso   1.00
O56    O     0.03399   0.21956   0.31330   0.00000  Uiso   1.00
C57    C     0.33128   0.23880   0.35499   0.00000  Uiso   1.00
H58    H     0.01488   0.24459   0.38644   0.00000  Uiso   1.00
H59    H     0.29919   0.21862   0.37324   0.00000  Uiso   1.00
C60    C     0.31674   0.28079   0.33798   0.00000  Uiso   1.00
H61    H     0.01502   0.30225   0.33127   0.00000  Uiso   1.00
H62    H     0.30787   0.27797   0.30072   0.00000  Uiso   1.00
C63    C     0.27245   0.29905   0.37929   0.00000  Uiso   1.00
H64    H     0.24000   0.27863   0.38537   0.00000  Uiso   1.00
H65    H     0.26338   0.32962   0.36620   0.00000  Uiso   1.00
H66    H     0.28077   0.30295   0.41675   0.00000  Uiso   1.00
C67    C     0.49988   0.24598   0.25035   0.00000  Uiso   1.00
C68    C     0.47822   0.16071   0.48966   0.00000  Uiso   1.00
C69    C     0.49089   0.15133   0.43567   0.00000  Uiso   1.00
C70    C     0.51465   0.15608   0.01557   0.00000  Uiso   1.00
C71    C     0.56124   0.13882   0.48860   0.00000  Uiso   1.00
C72    C     0.57067   0.12530   0.43742   0.00000  Uiso   1.00
C73    C     0.53576   0.13070   0.41166   0.00000  Uiso   1.00
C74    C     0.50634   0.16829   0.06751   0.00000  Uiso   1.00
C75    C     0.58751   0.14508   0.06590   0.00000  Uiso   1.00
C76    C     0.45786   0.16229   0.40750   0.00000  Uiso   1.00
C77    C     0.54140   0.31197   0.25386   0.00000  Uiso   1.00
C78    C     0.47376   0.16434   0.35008   0.00000  Uiso   1.00
C79    C     0.54146   0.02122   0.25377   0.00000  Uiso   1.00
C80    C     0.49980   0.04273   0.25077   0.00000  Uiso   1.00
C81    C     0.45793   0.02134   0.24832   0.00000  Uiso   1.00
C82    C     0.45789   0.31210   0.24838   0.00000  Uiso   1.00
C83    C     0.49970   0.29059   0.25091   0.00000  Uiso   1.00
C84    C     0.63245   0.19284   0.28170   0.00000  Uiso   1.00
C85    C     0.34925   0.19285   0.28269   0.00000  Uiso   1.00
C86    C     0.36724   0.14068   0.21815   0.00000  Uiso   1.00
C87    C     0.65099   0.14063   0.21826   0.00000  Uiso   1.00
C88    C     0.49995   0.08734   0.25022   0.00000  Uiso   1.00
C89    C     0.52631   0.16619   0.14994   0.00000  Uiso   1.00
C90    C     0.59751   0.13418   0.01364   0.00000  Uiso   1.00
C91    C     0.54136   0.16121   0.09326   0.00000  Uiso   1.00
C92    C     0.40997   0.17520   0.43470   0.00000  Uiso   1.00
C93    C     0.39570   0.17999   0.48840   0.00000  Uiso   1.00
C94    C     0.42944   0.17378   0.01564   0.00000  Uiso   1.00
Cu95   Cu    0.45311   0.16666   0.25000   0.00000  Uiso   1.00
Cu96   Cu    0.54689   0.16667   0.25000   0.00000  Uiso   1.00
H97    H     0.61506   0.13944   0.08531   0.00000  Uiso   1.00
H98    H     0.57407   0.03718   0.25600   0.00000  Uiso   1.00
H99    H     0.42531   0.03740   0.24610   0.00000  Uiso   1.00
H100   H     0.42529   0.29613   0.24613   0.00000  Uiso   1.00
H101   H     0.60520   0.21361   0.30547   0.00000  Uiso   1.00
H102   H     0.39328   0.11985   0.19254   0.00000  Uiso   1.00
H103   H     0.63959   0.11977   0.19275   0.00000  Uiso   1.00
H104   H     0.60518   0.11027   0.41717   0.00000  Uiso   1.00
H105   H     0.63313   0.12105   0.49318   0.00000  Uiso   1.00
H106   H     0.47254   0.18308   0.08931   0.00000  Uiso   1.00
H107   H     0.38363   0.18247   0.41431   0.00000  Uiso   1.00
H108   H     0.41565   0.17848   0.05717   0.00000  Uiso   1.00
H109   H     0.35856   0.18981   0.00896   0.00000  Uiso   1.00
H110   H     0.54414   0.11725   0.37324   0.00000  Uiso   1.00
H111   H     0.57398   0.29589   0.25614   0.00000  Uiso   1.00
N112   N     0.38265   0.16666   0.24999   0.00000  Uiso   1.00
N113   N     0.61735   0.16669   0.24999   0.00000  Uiso   1.00
O114   O     0.46042   0.22678   0.25001   0.00000  Uiso   1.00
O115   O     0.53961   0.22679   0.25000   0.00000  Uiso   1.00
O116   O     0.44108   0.16665   0.32549   0.00000  Uiso   1.00
O117   O     0.52027   0.16666   0.32549   0.00000  Uiso   1.00
O118   O     0.46039   0.10654   0.24999   0.00000  Uiso   1.00
O119   O     0.53958   0.10655   0.24999   0.00000  Uiso   1.00
O120   O     0.47973   0.16667   0.17451   0.00000  Uiso   1.00
O121   O     0.55892   0.16668   0.17451   0.00000  Uiso   1.00
O122   O     0.36732   0.21956   0.31330   0.00000  Uiso   1.00
C123   C     0.66461   0.23880   0.35499   0.00000  Uiso   1.00
H124   H     0.34822   0.24459   0.38644   0.00000  Uiso   1.00
H125   H     0.63252   0.21862   0.37324   0.00000  Uiso   1.00
C126   C     0.65008   0.28079   0.33798   0.00000  Uiso   1.00
H127   H     0.34835   0.30225   0.33127   0.00000  Uiso   1.00
H128   H     0.64120   0.27797   0.30072   0.00000  Uiso   1.00
C129   C     0.60578   0.29905   0.37929   0.00000  Uiso   1.00
H130   H     0.57333   0.27863   0.38537   0.00000  Uiso   1.00
H131   H     0.59672   0.32962   0.36620   0.00000  Uiso   1.00
H132   H     0.61411   0.30295   0.41675   0.00000  Uiso   1.00
C133   C     0.83322   0.24598   0.25035   0.00000  Uiso   1.00
C134   C     0.81155   0.16071   0.48966   0.00000  Uiso   1.00
C135   C     0.82422   0.15133   0.43567   0.00000  Uiso   1.00
C136   C     0.84798   0.15608   0.01557   0.00000  Uiso   1.00
C137   C     0.89457   0.13882   0.48860   0.00000  Uiso   1.00
C138   C     0.90400   0.12530   0.43742   0.00000  Uiso   1.00
C139   C     0.86909   0.13070   0.41166   0.00000  Uiso   1.00
C140   C     0.83968   0.16829   0.06751   0.00000  Uiso   1.00
C141   C     0.92084   0.14508   0.06590   0.00000  Uiso   1.00
C142   C     0.79119   0.16229   0.40750   0.00000  Uiso   1.00
C143   C     0.87473   0.31197   0.25386   0.00000  Uiso   1.00
C144   C     0.80710   0.16434   0.35008   0.00000  Uiso   1.00
C145   C     0.87479   0.02122   0.25377   0.00000  Uiso   1.00
C146   C     0.83313   0.04273   0.25077   0.00000  Uiso   1.00
C147   C     0.79126   0.02134   0.24832   0.00000  Uiso   1.00
C148   C     0.79122   0.31210   0.24838   0.00000  Uiso   1.00
C149   C     0.83303   0.29059   0.25091   0.00000  Uiso   1.00
C150   C     0.96578   0.19284   0.28170   0.00000  Uiso   1.00
C151   C     0.68258   0.19285   0.28269   0.00000  Uiso   1.00
C152   C     0.70057   0.14068   0.21815   0.00000  Uiso   1.00
C153   C     0.98432   0.14063   0.21826   0.00000  Uiso   1.00
C154   C     0.83329   0.08734   0.25022   0.00000  Uiso   1.00
C155   C     0.85965   0.16619   0.14994   0.00000  Uiso   1.00
C156   C     0.93084   0.13418   0.01364   0.00000  Uiso   1.00
C157   C     0.87469   0.16121   0.09326   0.00000  Uiso   1.00
C158   C     0.74330   0.17520   0.43470   0.00000  Uiso   1.00
C159   C     0.72903   0.17999   0.48840   0.00000  Uiso   1.00
C160   C     0.76277   0.17378   0.01564   0.00000  Uiso   1.00
Cu161  Cu    0.78645   0.16666   0.25000   0.00000  Uiso   1.00
Cu162  Cu    0.88022   0.16667   0.25000   0.00000  Uiso   1.00
H163   H     0.94840   0.13944   0.08531   0.00000  Uiso   1.00
H164   H     0.90740   0.03718   0.25600   0.00000  Uiso   1.00
H165   H     0.75865   0.03740   0.24610   0.00000  Uiso   1.00
H166   H     0.75862   0.29613   0.24613   0.00000  Uiso   1.00
H167   H     0.93853   0.21361   0.30547   0.00000  Uiso   1.00
H168   H     0.72661   0.11985   0.19254   0.00000  Uiso   1.00
H169   H     0.97293   0.11977   0.19275   0.00000  Uiso   1.00
H170   H     0.93852   0.11027   0.41717   0.00000  Uiso   1.00
H171   H     0.96646   0.12105   0.49318   0.00000  Uiso   1.00
H172   H     0.80588   0.18308   0.08931   0.00000  Uiso   1.00
H173   H     0.71697   0.18247   0.41431   0.00000  Uiso   1.00
H174   H     0.74898   0.17848   0.05717   0.00000  Uiso   1.00
H175   H     0.69189   0.18981   0.00896   0.00000  Uiso   1.00
H176   H     0.87747   0.11725   0.37324   0.00000  Uiso   1.00
H177   H     0.90731   0.29589   0.25614   0.00000  Uiso   1.00
N178   N     0.71598   0.16666   0.24999   0.00000  Uiso   1.00
N179   N     0.95069   0.16669   0.24999   0.00000  Uiso   1.00
O180   O     0.79375   0.22678   0.25001   0.00000  Uiso   1.00
O181   O     0.87294   0.22679   0.25000   0.00000  Uiso   1.00
O182   O     0.77441   0.16665   0.32549   0.00000  Uiso   1.00
O183   O     0.85360   0.16666   0.32549   0.00000  Uiso   1.00
O184   O     0.79373   0.10654   0.24999   0.00000  Uiso   1.00
O185   O     0.87292   0.10655   0.24999   0.00000  Uiso   1.00
O186   O     0.81306   0.16667   0.17451   0.00000  Uiso   1.00
O187   O     0.89225   0.16668   0.17451   0.00000  Uiso   1.00
O188   O     0.70066   0.21956   0.31330   0.00000  Uiso   1.00
C189   C     0.99795   0.23880   0.35499   0.00000  Uiso   1.00
H190   H     0.68155   0.24459   0.38644   0.00000  Uiso   1.00
H191   H     0.96586   0.21862   0.37324   0.00000  Uiso   1.00
C192   C     0.98341   0.28079   0.33798   0.00000  Uiso   1.00
H193   H     0.68168   0.30225   0.33127   0.00000  Uiso   1.00
H194   H     0.97454   0.27797   0.30072   0.00000  Uiso   1.00
C195   C     0.93912   0.29905   0.37929   0.00000  Uiso   1.00
H196   H     0.90666   0.27863   0.38537   0.00000  Uiso   1.00
H197   H     0.93005   0.32962   0.36620   0.00000  Uiso   1.00
H198   H     0.94744   0.30295   0.41675   0.00000  Uiso   1.00
C199   C     0.16655   0.57932   0.25035   0.00000  Uiso   1.00
C200   C     0.14488   0.49404   0.48966   0.00000  Uiso   1.00
C201   C     0.15755   0.48467   0.43567   0.00000  Uiso   1.00
C202   C     0.18132   0.48941   0.01557   0.00000  Uiso   1.00
C203   C     0.22790   0.47215   0.48860   0.00000  Uiso   1.00
C204   C     0.23734   0.45863   0.43742   0.00000  Uiso   1.00
C205   C     0.20243   0.46403   0.41166   0.00000  Uiso   1.00
C206   C     0.17301   0.50163   0.06751   0.00000  Uiso   1.00
C207   C     0.25417   0.47841   0.06590   0.00000  Uiso   1.00
C208   C     0.12452   0.49562   0.40750   0.00000  Uiso   1.00
C209   C     0.20807   0.64530   0.25386   0.00000  Uiso   1.00
C210   C     0.14043   0.49767   0.35008   0.00000  Uiso   1.00
C211   C     0.20812   0.35455   0.25377   0.00000  Uiso   1.00
C212   C     0.16646   0.37606   0.25077   0.00000  Uiso   1.00
C213   C     0.12460   0.35467   0.24832   0.00000  Uiso   1.00
C214   C     0.12456   0.64543   0.24838   0.00000  Uiso   1.00
C215   C     0.16637   0.62392   0.25091   0.00000  Uiso   1.00
C216   C     0.29912   0.52617   0.28170   0.00000  Uiso   1.00
C217   C     0.01592   0.52618   0.28269   0.00000  Uiso   1.00
C218   C     0.03390   0.47401   0.21815   0.00000  Uiso   1.00
C219   C     0.31765   0.47396   0.21826   0.00000  Uiso   1.00
C220   C     0.16662   0.42068   0.25022   0.00000  Uiso   1.00
C221   C     0.19298   0.49953   0.14994   0.00000  Uiso   1.00
C222   C     0.26418   0.46752   0.01364   0.00000  Uiso   1.00
C223   C     0.20802   0.49454   0.09326   0.00000  Uiso   1.00
C224   C     0.07664   0.50853   0.43470   0.00000  Uiso   1.00
C225   C     0.06237   0.51332   0.48840   0.00000  Uiso   1.00
C226   C     0.09610   0.50711   0.01564   0.00000  Uiso   1.00
Cu227  Cu    0.11978   0.49999   0.25000   0.00000  Uiso   1.00
Cu228  Cu    0.21355   0.50001   0.25000   0.00000  Uiso   1.00
H229   H     0.28173   0.47277   0.08531   0.00000  Uiso   1.00
H230   H     0.24074   0.37052   0.25600   0.00000  Uiso   1.00
H231   H     0.09198   0.37074   0.24610   0.00000  Uiso   1.00
H232   H     0.09195   0.62946   0.24613   0.00000  Uiso   1.00
H233   H     0.27187   0.54694   0.30547   0.00000  Uiso   1.00
H234   H     0.05995   0.45318   0.19254   0.00000  Uiso   1.00
H235   H     0.30626   0.45310   0.19275   0.00000  Uiso   1.00
H236   H     0.27185   0.44361   0.41717   0.00000  Uiso   1.00
H237   H     0.29979   0.45439   0.49318   0.00000  Uiso   1.00
H238   H     0.13921   0.51642   0.08931   0.00000  Uiso   1.00
H239   H     0.05030   0.51580   0.41431   0.00000  Uiso   1.00
H240   H     0.08231   0.51181   0.05717   0.00000  Uiso   1.00
H241   H     0.02522   0.52314   0.00896   0.00000  Uiso   1.00
H242   H     0.21080   0.45058   0.37324   0.00000  Uiso   1.00
H243   H     0.24065   0.62922   0.25614   0.00000  Uiso   1.00
N244   N     0.04931   0.49999   0.24999   0.00000  Uiso   1.00
N245   N     0.28402   0.50002   0.24999   0.00000  Uiso   1.00
O246   O     0.12708   0.56011   0.25001   0.00000  Uiso   1.00
O247   O     0.20627   0.56012   0.25000   0.00000  Uiso   1.00
O248   O     0.10775   0.49998   0.32549   0.00000  Uiso   1.00
O249   O     0.18694   0.49999   0.32549   0.00000  Uiso   1.00
O250   O     0.12706   0.43988   0.24999   0.00000  Uiso   1.00
O251   O     0.20625   0.43989   0.24999   0.00000  Uiso   1.00
O252   O     0.14640   0.50001   0.17451   0.00000  Uiso   1.00
O253   O     0.22559   0.50002   0.17451   0.00000  Uiso   1.00
O254   O     0.03399   0.55289   0.31330   0.00000  Uiso   1.00
C255   C     0.33128   0.57214   0.35499   0.00000  Uiso   1.00
H256   H     0.01488   0.57793   0.38644   0.00000  Uiso   1.00
H257   H     0.29919   0.55196   0.37324   0.00000  Uiso   1.00
C258   C     0.31674   0.61412   0.33798   0.00000  Uiso   1.00
H259   H     0.01502   0.63558   0.33127   0.00000  Uiso   1.00
H260   H     0.30787   0.61130   0.30072   0.00000  Uiso   1.00
C261   C     0.27245   0.63238   0.37929   0.00000  Uiso   1.00
H262   H     0.24000   0.61196   0.38537   0.00000  Uiso   1.00
H263   H     0.26338   0.66296   0.36620   0.00000  Uiso   1.00
H264   H     0.28077   0.63629   0.41675   0.00000  Uiso   1.00
C265   C     0.49988   0.57932   0.25035   0.00000  Uiso   1.00
C266   C     0.47822   0.49404   0.48966   0.00000  Uiso   1.00
C267   C     0.49089   0.48467   0.43567   0.00000  Uiso   1.00
C268   C     0.51465   0.48941   0.01557   0.00000  Uiso   1.00
C269   C     0.56124   0.47215   0.48860   0.00000  Uiso   1.00
C270   C     0.57067   0.45863   0.43742   0.00000  Uiso   1.00
C271   C     0.53576   0.46403   0.41166   0.00000  Uiso   1.00
C272   C     0.50634   0.50163   0.06751   0.00000  Uiso   1.00
C273   C     0.58751   0.47841   0.06590   0.00000  Uiso   1.00
C274   C     0.45786   0.49562   0.40750   0.00000  Uiso   1.00
C275   C     0.54140   0.64530   0.25386   0.00000  Uiso   1.00
C276   C     0.47376   0.49767   0.35008   0.00000  Uiso   1.00
C277   C     0.54146   0.35455   0.25377   0.00000  Uiso   1.00
C278   C     0.49980   0.37606   0.25077   0.00000  Uiso   1.00
C279   C     0.45793   0.35467   0.24832   0.00000  Uiso   1.00
C280   C     0.45789   0.64543   0.24838   0.00000  Uiso   1.00
C281   C     0.49970   0.62392   0.25091   0.00000  Uiso   1.00
C282   C     0.63245   0.52617   0.28170   0.00000  Uiso   1.00
C283   C     0.34925   0.52618   0.28269   0.00000  Uiso   1.00
C284   C     0.36724   0.47401   0.21815   0.00000  Uiso   1.00
C285   C     0.65099   0.47396   0.21826   0.00000  Uiso   1.00
C286   C     0.49995   0.42068   0.25022   0.00000  Uiso   1.00
C287   C     0.52631   0.49953   0.14994   0.00000  Uiso   1.00
C288   C     0.59751   0.46752   0.01364   0.00000  Uiso   1.00
C289   C     0.54136   0.49454   0.09326   0.00000  Uiso   1.00
C290   C     0.40997   0.50853   0.43470   0.00000  Uiso   1.00
C291   C     0.39570   0.51332   0.48840   0.00000  Uiso   1.00
C292   C     0.42944   0.50711   0.01564   0.00000  Uiso   1.00
Cu293  Cu    0.45311   0.49999   0.25000   0.00000  Uiso   1.00
Cu294  Cu    0.54689   0.50001   0.25000   0.00000  Uiso   1.00
H295   H     0.61506   0.47277   0.08531   0.00000  Uiso   1.00
H296   H     0.57407   0.37052   0.25600   0.00000  Uiso   1.00
H297   H     0.42531   0.37074   0.24610   0.00000  Uiso   1.00
H298   H     0.42529   0.62946   0.24613   0.00000  Uiso   1.00
H299   H     0.60520   0.54694   0.30547   0.00000  Uiso   1.00
H300   H     0.39328   0.45318   0.19254   0.00000  Uiso   1.00
H301   H     0.63959   0.45310   0.19275   0.00000  Uiso   1.00
H302   H     0.60518   0.44361   0.41717   0.00000  Uiso   1.00
H303   H     0.63313   0.45439   0.49318   0.00000  Uiso   1.00
H304   H     0.47254   0.51642   0.08931   0.00000  Uiso   1.00
H305   H     0.38363   0.51580   0.41431   0.00000  Uiso   1.00
H306   H     0.41565   0.51181   0.05717   0.00000  Uiso   1.00
H307   H     0.35856   0.52314   0.00896   0.00000  Uiso   1.00
H308   H     0.54414   0.45058   0.37324   0.00000  Uiso   1.00
H309   H     0.57398   0.62922   0.25614   0.00000  Uiso   1.00
N310   N     0.38265   0.49999   0.24999   0.00000  Uiso   1.00
N311   N     0.61735   0.50002   0.24999   0.00000  Uiso   1.00
O312   O     0.46042   0.56011   0.25001   0.00000  Uiso   1.00
O313   O     0.53961   0.56012   0.25000   0.00000  Uiso   1.00
O314   O     0.44108   0.49998   0.32549   0.00000  Uiso   1.00
O315   O     0.52027   0.49999   0.32549   0.00000  Uiso   1.00
O316   O     0.46039   0.43988   0.24999   0.00000  Uiso   1.00
O317   O     0.53958   0.43989   0.24999   0.00000  Uiso   1.00
O318   O     0.47973   0.50001   0.17451   0.00000  Uiso   1.00
O319   O     0.55892   0.50002   0.17451   0.00000  Uiso   1.00
O320   O     0.36732   0.55289   0.31330   0.00000  Uiso   1.00
C321   C     0.66461   0.57214   0.35499   0.00000  Uiso   1.00
H322   H     0.34822   0.57793   0.38644   0.00000  Uiso   1.00
H323   H     0.63252   0.55196   0.37324   0.00000  Uiso   1.00
C324   C     0.65008   0.61412   0.33798   0.00000  Uiso   1.00
H325   H     0.34835   0.63558   0.33127   0.00000  Uiso   1.00
H326   H     0.64120   0.61130   0.30072   0.00000  Uiso   1.00
C327   C     0.60578   0.63238   0.37929   0.00000  Uiso   1.00
H328   H     0.57333   0.61196   0.38537   0.00000  Uiso   1.00
H329   H     0.59672   0.66296   0.36620   0.00000  Uiso   1.00
H330   H     0.61411   0.63629   0.41675   0.00000  Uiso   1.00
C331   C     0.83322   0.57932   0.25035   0.00000  Uiso   1.00
C332   C     0.81155   0.49404   0.48966   0.00000  Uiso   1.00
C333   C     0.82422   0.48467   0.43567   0.00000  Uiso   1.00
C334   C     0.84798   0.48941   0.01557   0.00000  Uiso   1.00
C335   C     0.89457   0.47215   0.48860   0.00000  Uiso   1.00
C336   C     0.90400   0.45863   0.43742   0.00000  Uiso   1.00
C337   C     0.86909   0.46403   0.41166   0.00000  Uiso   1.00
C338   C     0.83968   0.50163   0.06751   0.00000  Uiso   1.00
C339   C     0.92084   0.47841   0.06590   0.00000  Uiso   1.00
C340   C     0.79119   0.49562   0.40750   0.00000  Uiso   1.00
C341   C     0.87473   0.64530   0.25386   0.00000  Uiso   1.00
C342   C     0.80710   0.49767   0.35008   0.00000  Uiso   1.00
C343   C     0.87479   0.35455   0.25377   0.00000  Uiso   1.00
C344   C     0.83313   0.37606   0.25077   0.00000  Uiso   1.00
C345   C     0.79126   0.35467   0.24832   0.00000  Uiso   1.00
C346   C     0.79122   0.64543   0.24838   0.00000  Uiso   1.00
C347   C     0.83303   0.62392   0.25091   0.00000  Uiso   1.00
C348   C     0.96578   0.52617   0.28170   0.00000  Uiso   1.00
C349   C     0.68258   0.52618   0.28269   0.00000  Uiso   1.00
C350   C     0.70057   0.47401   0.21815   0.00000  Uiso   1.00
C351   C     0.98432   0.47396   0.21826   0.00000  Uiso   1.00
C352   C     0.83329   0.42068   0.25022   0.00000  Uiso   1.00
C353   C     0.85965   0.49953   0.14994   0.00000  Uiso   1.00
C354   C     0.93084   0.46752   0.01364   0.00000  Uiso   1.00
C355   C     0.87469   0.49454   0.09326   0.00000  Uiso   1.00
C356   C     0.74330   0.50853   0.43470   0.00000  Uiso   1.00
C357   C     0.72903   0.51332   0.48840   0.00000  Uiso   1.00
C358   C     0.76277   0.50711   0.01564   0.00000  Uiso   1.00
Cu359  Cu    0.78645   0.49999   0.25000   0.00000  Uiso   1.00
Cu360  Cu    0.88022   0.50001   0.25000   0.00000  Uiso   1.00
H361   H     0.94840   0.47277   0.08531   0.00000  Uiso   1.00
H362   H     0.90740   0.37052   0.25600   0.00000  Uiso   1.00
H363   H     0.75865   0.37074   0.24610   0.00000  Uiso   1.00
H364   H     0.75862   0.62946   0.24613   0.00000  Uiso   1.00
H365   H     0.93853   0.54694   0.30547   0.00000  Uiso   1.00
H366   H     0.72661   0.45318   0.19254   0.00000  Uiso   1.00
H367   H     0.97293   0.45310   0.19275   0.00000  Uiso   1.00
H368   H     0.93852   0.44361   0.41717   0.00000  Uiso   1.00
H369   H     0.96646   0.45439   0.49318   0.00000  Uiso   1.00
H370   H     0.80588   0.51642   0.08931   0.00000  Uiso   1.00
H371   H     0.71697   0.51580   0.41431   0.00000  Uiso   1.00
H372   H     0.74898   0.51181   0.05717   0.00000  Uiso   1.00
H373   H     0.69189   0.52314   0.00896   0.00000  Uiso   1.00
H374   H     0.87747   0.45058   0.37324   0.00000  Uiso   1.00
H375   H     0.90731   0.62922   0.25614   0.00000  Uiso   1.00
N376   N     0.71598   0.49999   0.24999   0.00000  Uiso   1.00
N377   N     0.95069   0.50002   0.24999   0.00000  Uiso   1.00
O378   O     0.79375   0.56011   0.25001   0.00000  Uiso   1.00
O379   O     0.87294   0.56012   0.25000   0.00000  Uiso   1.00
O380   O     0.77441   0.49998   0.32549   0.00000  Uiso   1.00
O381   O     0.85360   0.49999   0.32549   0.00000  Uiso   1.00
O382   O     0.79373   0.43988   0.24999   0.00000  Uiso   1.00
O383   O     0.87292   0.43989   0.24999   0.00000  Uiso   1.00
O384   O     0.81306   0.50001   0.17451   0.00000  Uiso   1.00
O385   O     0.89225   0.50002   0.17451   0.00000  Uiso   1.00
O386   O     0.70066   0.55289   0.31330   0.00000  Uiso   1.00
C387   C     0.99795   0.57214   0.35499   0.00000  Uiso   1.00
H388   H     0.68155   0.57793   0.38644   0.00000  Uiso   1.00
H389   H     0.96586   0.55196   0.37324   0.00000  Uiso   1.00
C390   C     0.98341   0.61412   0.33798   0.00000  Uiso   1.00
H391   H     0.68168   0.63558   0.33127   0.00000  Uiso   1.00
H392   H     0.97454   0.61130   0.30072   0.00000  Uiso   1.00
C393   C     0.93912   0.63238   0.37929   0.00000  Uiso   1.00
H394   H     0.90666   0.61196   0.38537   0.00000  Uiso   1.00
H395   H     0.93005   0.66296   0.36620   0.00000  Uiso   1.00
H396   H     0.94744   0.63629   0.41675   0.00000  Uiso   1.00
C397   C     0.16655   0.91265   0.25035   0.00000  Uiso   1.00
C398   C     0.14488   0.82737   0.48966   0.00000  Uiso   1.00
C399   C     0.15755   0.81800   0.43567   0.00000  Uiso   1.00
C400   C     0.18132   0.82274   0.01557   0.00000  Uiso   1.00
C401   C     0.22790   0.80549   0.48860   0.00000  Uiso   1.00
C402   C     0.23734   0.79196   0.43742   0.00000  Uiso   1.00
C403   C     0.20243   0.79736   0.41166   0.00000  Uiso   1.00
C404   C     0.17301   0.83496   0.06751   0.00000  Uiso   1.00
C405   C     0.25417   0.81174   0.06590   0.00000  Uiso   1.00
C406   C     0.12452   0.82896   0.40750   0.00000  Uiso   1.00
C407   C     0.20807   0.97864   0.25386   0.00000  Uiso   1.00
C408   C     0.14043   0.83101   0.35008   0.00000  Uiso   1.00
C409   C     0.20812   0.68788   0.25377   0.00000  Uiso   1.00
C410   C     0.16646   0.70940   0.25077   0.00000  Uiso   1.00
C411   C     0.12460   0.68801   0.24832   0.00000  Uiso   1.00
C412   C     0.12456   0.97877   0.24838   0.00000  Uiso   1.00
C413   C     0.16637   0.95725   0.25091   0.00000  Uiso   1.00
C414   C     0.29912   0.85951   0.28170   0.00000  Uiso   1.00
C415   C     0.01592   0.85951   0.28269   0.00000  Uiso   1.00
C416   C     0.03390   0.80734   0.21815   0.00000  Uiso   1.00
C417   C     0.31765   0.80730   0.21826   0.00000  Uiso   1.00
C418   C     0.16662   0.75401   0.25022   0.00000  Uiso   1.00
C419   C     0.19298   0.83286   0.14994   0.00000  Uiso   1.00
C420   C     0.26418   0.80085   0.01364   0.00000  Uiso   1.00
C421   C     0.20802   0.82788   0.09326   0.00000  Uiso   1.00
C422   C     0.07664   0.84186   0.43470   0.00000  Uiso   1.00
C423   C     0.06237   0.84666   0.48840   0.00000  Uiso   1.00
C424   C     0.09610   0.84044   0.01564   0.00000  Uiso   1.00
Cu425  Cu    0.11978   0.83333   0.25000   0.00000  Uiso   1.00
Cu426  Cu    0.21355   0.83334   0.25000   0.00000  Uiso   1.00
H427   H     0.28173   0.80611   0.08531   0.00000  Uiso   1.00
H428   H     0.24074   0.70385   0.25600   0.00000  Uiso   1.00
H429   H     0.09198   0.70407   0.24610   0.00000  Uiso   1.00
H430   H     0.09195   0.96279   0.24613   0.00000  Uiso   1.00
H431   H     0.27187   0.88027   0.30547   0.00000  Uiso   1.00
H432   H     0.05995   0.78651   0.19254   0.00000  Uiso   1.00
H433   H     0.30626   0.78643   0.19275   0.00000  Uiso   1.00
H434   H     0.27185   0.77694   0.41717   0.00000  Uiso   1.00
H435   H     0.29979   0.78772   0.49318   0.00000  Uiso   1.00
H436   H     0.13921   0.84975   0.08931   0.00000  Uiso   1.00
H437   H     0.05030   0.84913   0.41431   0.00000  Uiso   1.00
H438   H     0.08231   0.84515   0.05717   0.00000  Uiso   1.00
H439   H     0.02522   0.85647   0.00896   0.00000  Uiso   1.00
H440   H     0.21080   0.78392   0.37324   0.00000  Uiso   1.00
H441   H     0.24065   0.96256   0.25614   0.00000  Uiso   1.00
N442   N     0.04931   0.83332   0.24999   0.00000  Uiso   1.00
N443   N     0.28402   0.83335   0.24999   0.00000  Uiso   1.00
O444   O     0.12708   0.89345   0.25001   0.00000  Uiso   1.00
O445   O     0.20627   0.89346   0.25000   0.00000  Uiso   1.00
O446   O     0.10775   0.83332   0.32549   0.00000  Uiso   1.00
O447   O     0.18694   0.83333   0.32549   0.00000  Uiso   1.00
O448   O     0.12706   0.77321   0.24999   0.00000  Uiso   1.00
O449   O     0.20625   0.77322   0.24999   0.00000  Uiso   1.00
O450   O     0.14640   0.83334   0.17451   0.00000  Uiso   1.00
O451   O     0.22559   0.83335   0.17451   0.00000  Uiso   1.00
O452   O     0.03399   0.88623   0.31330   0.00000  Uiso   1.00
C453   C     0.33128   0.90547   0.35499   0.00000  Uiso   1.00
H454   H     0.01488   0.91126   0.38644   0.00000  Uiso   1.00
H455   H     0.29919   0.88529   0.37324   0.00000  Uiso   1.00
C456   C     0.31674   0.94745   0.33798   0.00000  Uiso   1.00
H457   H     0.01502   0.96891   0.33127   0.00000  Uiso   1.00
H458   H     0.30787   0.94463   0.30072   0.00000  Uiso   1.00
C459   C     0.27245   0.96571   0.37929   0.00000  Uiso   1.00
H460   H     0.24000   0.94530   0.38537   0.00000  Uiso   1.00
H461   H     0.26338   0.99629   0.36620   0.00000  Uiso   1.00
H462   H     0.28077   0.96962   0.41675   0.00000  Uiso   1.00
C463   C     0.49988   0.91265   0.25035   0.00000  Uiso   1.00
C464   C     0.47822   0.82737   0.48966   0.00000  Uiso   1.00
C465   C     0.49089   0.81800   0.43567   0.00000  Uiso   1.00
C466   C     0.51465   0.82274   0.01557   0.00000  Uiso   1.00
C467   C     0.56124   0.80549   0.48860   0.00000  Uiso   1.00
C468   C     0.57067   0.79196   0.43742   0.00000  Uiso   1.00
C469   C     0.53576   0.79736   0.41166   0.00000  Uiso   1.00
C470   C     0.50634   0.83496   0.06751   0.00000  Uiso   1.00
C471   C     0.58751   0.81174   0.06590   0.00000  Uiso   1.00
C472   C     0.45786   0.82896   0.40750   0.00000  Uiso   1.00
C473   C     0.54140   0.97864   0.25386   0.00000  Uiso   1.00
C474   C     0.47376   0.83101   0.35008   0.00000  Uiso   1.00
C475   C     0.54146   0.68788   0.25377   0.00000  Uiso   1.00
C476   C     0.49980   0.70940   0.25077   0.00000  Uiso   1.00
C477   C     0.45793   0.68801   0.24832   0.00000  Uiso   1.00
C478   C     0.45789   0.97877   0.24838   0.00000  Uiso   1.00
C479   C     0.49970   0.95725   0.25091   0.00000  Uiso   1.00
C480   C     0.63245   0.85951   0.28170   0.00000  Uiso   1.00
C481   C     0.34925   0.85951   0.28269   0.00000  Uiso   1.00
C482   C     0.36724   0.80734   0.21815   0.00000  Uiso   1.00
C483   C     0.65099   0.80730   0.21826   0.00000  Uiso   1.00
C484   C     0.49995   0.75401   0.25022   0.00000  Uiso   1.00
C485   C     0.52631   0.83286   0.14994   0.00000  Uiso   1.00
C486   C     0.59751   0.80085   0.01364   0.00000  Uiso   1.00
C487   C     0.54136   0.82788   0.09326   0.00000  Uiso   1.00
C488   C     0.40997   0.84186   0.43470   0.00000  Uiso   1.00
C489   C     0.39570   0.84666   0.48840   0.00000  Uiso   1.00
C490   C     0.42944   0.84044   0.01564   0.00000  Uiso   1.00
Cu491  Cu    0.45311   0.83333   0.25000   0.00000  Uiso   1.00
Cu492  Cu    0.54689   0.83334   0.25000   0.00000  Uiso   1.00
H493   H     0.61506   0.80611   0.08531   0.00000  Uiso   1.00
H494   H     0.57407   0.70385   0.25600   0.00000  Uiso   1.00
H495   H     0.42531   0.70407   0.24610   0.00000  Uiso   1.00
H496   H     0.42529   0.96279   0.24613   0.00000  Uiso   1.00
H497   H     0.60520   0.88027   0.30547   0.00000  Uiso   1.00
H498   H     0.39328   0.78651   0.19254   0.00000  Uiso   1.00
H499   H     0.63959   0.78643   0.19275   0.00000  Uiso   1.00
H500   H     0.60518   0.77694   0.41717   0.00000  Uiso   1.00
H501   H     0.63313   0.78772   0.49318   0.00000  Uiso   1.00
H502   H     0.47254   0.84975   0.08931   0.00000  Uiso   1.00
H503   H     0.38363   0.84913   0.41431   0.00000  Uiso   1.00
H504   H     0.41565   0.84515   0.05717   0.00000  Uiso   1.00
H505   H     0.35856   0.85647   0.00896   0.00000  Uiso   1.00
H506   H     0.54414   0.78392   0.37324   0.00000  Uiso   1.00
H507   H     0.57398   0.96256   0.25614   0.00000  Uiso   1.00
N508   N     0.38265   0.83332   0.24999   0.00000  Uiso   1.00
N509   N     0.61735   0.83335   0.24999   0.00000  Uiso   1.00
O510   O     0.46042   0.89345   0.25001   0.00000  Uiso   1.00
O511   O     0.53961   0.89346   0.25000   0.00000  Uiso   1.00
O512   O     0.44108   0.83332   0.32549   0.00000  Uiso   1.00
O513   O     0.52027   0.83333   0.32549   0.00000  Uiso   1.00
O514   O     0.46039   0.77321   0.24999   0.00000  Uiso   1.00
O515   O     0.53958   0.77322   0.24999   0.00000  Uiso   1.00
O516   O     0.47973   0.83334   0.17451   0.00000  Uiso   1.00
O517   O     0.55892   0.83335   0.17451   0.00000  Uiso   1.00
O518   O     0.36732   0.88623   0.31330   0.00000  Uiso   1.00
C519   C     0.66461   0.90547   0.35499   0.00000  Uiso   1.00
H520   H     0.34822   0.91126   0.38644   0.00000  Uiso   1.00
H521   H     0.63252   0.88529   0.37324   0.00000  Uiso   1.00
C522   C     0.65008   0.94745   0.33798   0.00000  Uiso   1.00
H523   H     0.34835   0.96891   0.33127   0.00000  Uiso   1.00
H524   H     0.64120   0.94463   0.30072   0.00000  Uiso   1.00
C525   C     0.60578   0.96571   0.37929   0.00000  Uiso   1.00
H526   H     0.57333   0.94530   0.38537   0.00000  Uiso   1.00
H527   H     0.59672   0.99629   0.36620   0.00000  Uiso   1.00
H528   H     0.61411   0.96962   0.41675   0.00000  Uiso   1.00
C529   C     0.83322   0.91265   0.25035   0.00000  Uiso   1.00
C530   C     0.81155   0.82737   0.48966   0.00000  Uiso   1.00
C531   C     0.82422   0.81800   0.43567   0.00000  Uiso   1.00
C532   C     0.84798   0.82274   0.01557   0.00000  Uiso   1.00
C533   C     0.89457   0.80549   0.48860   0.00000  Uiso   1.00
C534   C     0.90400   0.79196   0.43742   0.00000  Uiso   1.00
C535   C     0.86909   0.79736   0.41166   0.00000  Uiso   1.00
C536   C     0.83968   0.83496   0.06751   0.00000  Uiso   1.00
C537   C     0.92084   0.81174   0.06590   0.00000  Uiso   1.00
C538   C     0.79119   0.82896   0.40750   0.00000  Uiso   1.00
C539   C     0.87473   0.97864   0.25386   0.00000  Uiso   1.00
C540   C     0.80710   0.83101   0.35008   0.00000  Uiso   1.00
C541   C     0.87479   0.68788   0.25377   0.00000  Uiso   1.00
C542   C     0.83313   0.70940   0.25077   0.00000  Uiso   1.00
C543   C     0.79126   0.68801   0.24832   0.00000  Uiso   1.00
C544   C     0.79122   0.97877   0.24838   0.00000  Uiso   1.00
C545   C     0.83303   0.95725   0.25091   0.00000  Uiso   1.00
C546   C     0.96578   0.85951   0.28170   0.00000  Uiso   1.00
C547   C     0.68258   0.85951   0.28269   0.00000  Uiso   1.00
C548   C     0.70057   0.80734   0.21815   0.00000  Uiso   1.00
C549   C     0.98432   0.80730   0.21826   0.00000  Uiso   1.00
C550   C     0.83329   0.75401   0.25022   0.00000  Uiso   1.00
C551   C     0.85965   0.83286   0.14994   0.00000  Uiso   1.00
C552   C     0.93084   0.80085   0.01364   0.00000  Uiso   1.00
C553   C     0.87469   0.82788   0.09326   0.00000  Uiso   1.00
C554   C     0.74330   0.84186   0.43470   0.00000  Uiso   1.00
C555   C     0.72903   0.84666   0.48840   0.00000  Uiso   1.00
C556   C     0.76277   0.84044   0.01564   0.00000  Uiso   1.00
Cu557  Cu    0.78645   0.83333   0.25000   0.00000  Uiso   1.00
Cu558  Cu    0.88022   0.83334   0.25000   0.00000  Uiso   1.00
H559   H     0.94840   0.80611   0.08531   0.00000  Uiso   1.00
H560   H     0.90740   0.70385   0.25600   0.00000  Uiso   1.00
H561   H     0.75865   0.70407   0.24610   0.00000  Uiso   1.00
H562   H     0.75862   0.96279   0.24613   0.00000  Uiso   1.00
H563   H     0.93853   0.88027   0.30547   0.00000  Uiso   1.00
H564   H     0.72661   0.78651   0.19254   0.00000  Uiso   1.00
H565   H     0.97293   0.78643   0.19275   0.00000  Uiso   1.00
H566   H     0.93852   0.77694   0.41717   0.00000  Uiso   1.00
H567   H     0.96646   0.78772   0.49318   0.00000  Uiso   1.00
H568   H     0.80588   0.84975   0.08931   0.00000  Uiso   1.00
H569   H     0.71697   0.84913   0.41431   0.00000  Uiso   1.00
H570   H     0.74898   0.84515   0.05717   0.00000  Uiso   1.00
H571   H     0.69189   0.85647   0.00896   0.00000  Uiso   1.00
H572   H     0.87747   0.78392   0.37324   0.00000  Uiso   1.00
H573   H     0.90731   0.96256   0.25614   0.00000  Uiso   1.00
N574   N     0.71598   0.83332   0.24999   0.00000  Uiso   1.00
N575   N     0.95069   0.83335   0.24999   0.00000  Uiso   1.00
O576   O     0.79375   0.89345   0.25001   0.00000  Uiso   1.00
O577   O     0.87294   0.89346   0.25000   0.00000  Uiso   1.00
O578   O     0.77441   0.83332   0.32549   0.00000  Uiso   1.00
O579   O     0.85360   0.83333   0.32549   0.00000  Uiso   1.00
O580   O     0.79373   0.77321   0.24999   0.00000  Uiso   1.00
O581   O     0.87292   0.77322   0.24999   0.00000  Uiso   1.00
O582   O     0.81306   0.83334   0.17451   0.00000  Uiso   1.00
O583   O     0.89225   0.83335   0.17451   0.00000  Uiso   1.00
O584   O     0.70066   0.88623   0.31330   0.00000  Uiso   1.00
C585   C     0.99795   0.90547   0.35499   0.00000  Uiso   1.00
H586   H     0.68155   0.91126   0.38644   0.00000  Uiso   1.00
H587   H     0.96586   0.88529   0.37324   0.00000  Uiso   1.00
C588   C     0.98341   0.94745   0.33798   0.00000  Uiso   1.00
H589   H     0.68168   0.96891   0.33127   0.00000  Uiso   1.00
H590   H     0.97454   0.94463   0.30072   0.00000  Uiso   1.00
C591   C     0.93912   0.96571   0.37929   0.00000  Uiso   1.00
H592   H     0.90666   0.94530   0.38537   0.00000  Uiso   1.00
H593   H     0.93005   0.99629   0.36620   0.00000  Uiso   1.00
H594   H     0.94744   0.96962   0.41675   0.00000  Uiso   1.00
C595   C     0.16655   0.24598   0.75035   0.00000  Uiso   1.00
C596   C     0.14488   0.16071   0.98966   0.00000  Uiso   1.00
C597   C     0.15755   0.15133   0.93567   0.00000  Uiso   1.00
C598   C     0.18132   0.15608   0.51557   0.00000  Uiso   1.00
C599   C     0.22790   0.13882   0.98860   0.00000  Uiso   1.00
C600   C     0.23734   0.12530   0.93742   0.00000  Uiso   1.00
C601   C     0.20243   0.13070   0.91166   0.00000  Uiso   1.00
C602   C     0.17301   0.16829   0.56751   0.00000  Uiso   1.00
C603   C     0.25417   0.14508   0.56590   0.00000  Uiso   1.00
C604   C     0.12452   0.16229   0.90750   0.00000  Uiso   1.00
C605   C     0.20807   0.31197   0.75386   0.00000  Uiso   1.00
C606   C     0.14043   0.16434   0.85008   0.00000  Uiso   1.00
C607   C     0.20812   0.02122   0.75377   0.00000  Uiso   1.00
C608   C     0.16646   0.04273   0.75077   0.00000  Uiso   1.00
C609   C     0.12460   0.02134   0.74832   0.00000  Uiso   1.00
C610   C     0.12456   0.31210   0.74838   0.00000  Uiso   1.00
C611   C     0.16637   0.29059   0.75091   0.00000  Uiso   1.00
C612   C     0.29912   0.19284   0.78170   0.00000  Uiso   1.00
C613   C     0.01592   0.19285   0.78269   0.00000  Uiso   1.00
C614   C     0.03390   0.14068   0.71815   0.00000  Uiso   1.00
C615   C     0.31765   0.14063   0.71826   0.00000  Uiso   1.00
C616   C     0.16662   0.08734   0.75022   0.00000  Uiso   1.00
C617   C     0.19298   0.16619   0.64994   0.00000  Uiso   1.00
C618   C     0.26418   0.13418   0.51364   0.00000  Uiso   1.00
C619   C     0.20802   0.16121   0.59326   0.00000  Uiso   1.00
C620   C     0.07664   0.17520   0.93470   0.00000  Uiso   1.00
C621   C     0.06237   0.17999   0.98840   0.00000  Uiso   1.00
C622   C     0.09610   0.17378   0.51564   0.00000  Uiso   1.00
Cu623  Cu    0.11978   0.16666   0.75000   0.00000  Uiso   1.00
Cu624  Cu    0.21355   0.16667   0.75000   0.00000  Uiso   1.00
H625   H     0.28173   0.13944   0.58531   0.00000  Uiso   1.00
H626   H     0.24074   0.03718   0.75600   0.00000  Uiso   1.00
H627   H     0.09198   0.03740   0.74610   0.00000  Uiso   1.00
H628   H     0.09195   0.29613   0.74613   0.00000  Uiso   1.00
H629   H     0.27187   0.21361   0.80547   0.00000  Uiso   1.00
H630   H     0.05995   0.11985   0.69254   0.00000  Uiso   1.00
H631   H     0.30626   0.11977   0.69275   0.00000  Uiso   1.00
H632   H     0.27185   0.11027   0.91717   0.00000  Uiso   1.00
H633   H     0.29979   0.12105   0.99318   0.00000  Uiso   1.00
H634   H     0.13921   0.18308   0.58931   0.00000  Uiso   1.00
H635   H     0.05030   0.18247   0.91431   0.00000  Uiso   1.00
H636   H     0.08231   0.17848   0.55717   0.00000  Uiso   1.00
H637   H     0.02522   0.18981   0.50896   0.00000  Uiso   1.00
H638   H     0.21080   0.11725   0.87324   0.00000  Uiso   1.00
H639   H     0.24065   0.29589   0.75614   0.00000  Uiso   1.00
N640   N     0.04931   0.16666   0.74999   0.00000  Uiso   1.00
N641   N     0.28402   0.16669   0.74999   0.00000  Uiso   1.00
O642   O     0.12708   0.22678   0.75001   0.00000  Uiso   1.00
O643   O     0.20627   0.22679   0.75000   0.00000  Uiso   1.00
O644   O     0.10775   0.16665   0.82549   0.00000  Uiso   1.00
O645   O     0.18694   0.16666   0.82549   0.00000  Uiso   1.00
O646   O     0.12706   0.10654   0.74999   0.00000  Uiso   1.00
O647   O     0.20625   0.10655   0.74999   0.00000  Uiso   1.00
O648   O     0.14640   0.16667   0.67451   0.00000  Uiso   1.00
O649   O     0.22559   0.16668   0.67451   0.00000  Uiso   1.00
O650   O     0.03399   0.21956   0.81330   0.00000  Uiso   1.00
C651   C     0.33128   0.23880   0.85499   0.00000  Uiso   1.00
H652   H     0.01488   0.24459   0.88644   0.00000  Uiso   1.00
H653   H     0.29919   0.21862   0.87324   0.00000  Uiso   1.00
C654   C     0.31674   0.28079   0.83798   0.00000  Uiso   1.00
H655   H     0.01502   0.30225   0.83127   0.00000  Uiso   1.00
H656   H     0.30787   0.27797   0.80072   0.00000  Uiso   1.00
C657   C     0.27245   0.29905   0.87929   0.00000  Uiso   1.00
H658   H     0.24000   0.27863   0.88537   0.00000  Uiso   1.00
H659   H     0.26338   0.32962   0.86620   0.00000  Uiso   1.00
H660   H     0.28077   0.30295   0.91675   0.00000  Uiso   1.00
C661   C     0.49988   0.24598   0.75035   0.00000  Uiso   1.00
C662   C     0.47822   0.16071   0.98966   0.00000  Uiso   1.00
C663   C     0.49089   0.15133   0.93567   0.00000  Uiso   1.00
C664   C     0.51465   0.15608   0.51557   0.00000  Uiso   1.00
C665   C     0.56124   0.13882   0.98860   0.00000  Uiso   1.00
C666   C     0.57067   0.12530   0.93742   0.00000  Uiso   1.00
C667   C     0.53576   0.13070   0.91166   0.00000  Uiso   1.00
C668   C     0.50634   0.16829   0.56751   0.00000  Uiso   1.00
C669   C     0.58751   0.14508   0.56590   0.00000  Uiso   1.00
C670   C     0.45786   0.16229   0.90750   0.00000  Uiso   1.00
C671   C     0.54140   0.31197   0.75386   0.00000  Uiso   1.00
C672   C     0.47376   0.16434   0.85008   0.00000  Uiso   1.00
C673   C     0.54146   0.02122   0.75377   0.00000  Uiso   1.00
C674   C     0.49980   0.04273   0.75077   0.00000  Uiso   1.00
C675   C     0.45793   0.02134   0.74832   0.00000  Uiso   1.00
C676   C     0.45789   0.31210   0.74838   0.00000  Uiso   1.00
C677   C     0.49970   0.29059   0.75091   0.00000  Uiso   1.00
C678   C     0.63245   0.19284   0.78170   0.00000  Uiso   1.00
C679   C     0.34925   0.19285   0.78269   0.00000  Uiso   1.00
C680   C     0.36724   0.14068   0.71815   0.00000  Uiso   1.00
C681   C     0.65099   0.14063   0.71826   0.00000  Uiso   1.00
C682   C     0.49995   0.08734   0.75022   0.00000  Uiso   1.00
C683   C     0.52631   0.16619   0.64994   0.00000  Uiso   1.00
C684   C     0.59751   0.13418   0.51364   0.00000  Uiso   1.00
C685   C     0.54136   0.16121   0.59326   0.00000  Uiso   1.00
C686   C     0.40997   0.17520   0.93470   0.00000  Uiso   1.00
C687   C     0.39570   0.17999   0.98840   0.00000  Uiso   1.00
C688   C     0.42944   0.17378   0.51564   0.00000  Uiso   1.00
Cu689  Cu    0.45311   0.16666   0.75000   0.00000  Uiso   1.00
Cu690  Cu    0.54689   0.16667   0.75000   0.00000  Uiso   1.00
H691   H     0.61506   0.13944   0.58531   0.00000  Uiso   1.00
H692   H     0.57407   0.03718   0.75600   0.00000  Uiso   1.00
H693   H     0.42531   0.03740   0.74610   0.00000  Uiso   1.00
H694   H     0.42529   0.29613   0.74613   0.00000  Uiso   1.00
H695   H     0.60520   0.21361   0.80547   0.00000  Uiso   1.00
H696   H     0.39328   0.11985   0.69254   0.00000  Uiso   1.00
H697   H     0.63959   0.11977   0.69275   0.00000  Uiso   1.00
H698   H     0.60518   0.11027   0.91717   0.00000  Uiso   1.00
H699   H     0.63313   0.12105   0.99318   0.00000  Uiso   1.00
H700   H     0.47254   0.18308   0.58931   0.00000  Uiso   1.00
H701   H     0.38363   0.18247   0.91431   0.00000  Uiso   1.00
H702   H     0.41565   0.17848   0.55717   0.00000  Uiso   1.00
H703   H     0.35856   0.18981   0.50896   0.00000  Uiso   1.00
H704   H     0.54414   0.11725   0.87324   0.00000  Uiso   1.00
H705   H     0.57398   0.29589   0.75614   0.00000  Uiso   1.00
N706   N     0.38265   0.16666   0.74999   0.00000  Uiso   1.00
N707   N     0.61735   0.16669   0.74999   0.00000  Uiso   1.00
O708   O     0.46042   0.22678   0.75001   0.00000  Uiso   1.00
O709   O     0.53961   0.22679   0.75000   0.00000  Uiso   1.00
O710   O     0.44108   0.16665   0.82549   0.00000  Uiso   1.00
O711   O     0.52027   0.16666   0.82549   0.00000  Uiso   1.00
O712   O     0.46039   0.10654   0.74999   0.00000  Uiso   1.00
O713   O     0.53958   0.10655   0.74999   0.00000  Uiso   1.00
O714   O     0.47973   0.16667   0.67451   0.00000  Uiso   1.00
O715   O     0.55892   0.16668   0.67451   0.00000  Uiso   1.00
O716   O     0.36732   0.21956   0.81330   0.00000  Uiso   1.00
C717   C     0.66461   0.23880   0.85499   0.00000  Uiso   1.00
H718   H     0.34822   0.24459   0.88644   0.00000  Uiso   1.00
H719   H     0.63252   0.21862   0.87324   0.00000  Uiso   1.00
C720   C     0.65008   0.28079   0.83798   0.00000  Uiso   1.00
H721   H     0.34835   0.30225   0.83127   0.00000  Uiso   1.00
H722   H     0.64120   0.27797   0.80072   0.00000  Uiso   1.00
C723   C     0.60578   0.29905   0.87929   0.00000  Uiso   1.00
H724   H     0.57333   0.27863   0.88537   0.00000  Uiso   1.00
H725   H     0.59672   0.32962   0.86620   0.00000  Uiso   1.00
H726   H     0.61411   0.30295   0.91675   0.00000  Uiso   1.00
C727   C     0.83322   0.24598   0.75035   0.00000  Uiso   1.00
C728   C     0.81155   0.16071   0.98966   0.00000  Uiso   1.00
C729   C     0.82422   0.15133   0.93567   0.00000  Uiso   1.00
C730   C     0.84798   0.15608   0.51557   0.00000  Uiso   1.00
C731   C     0.89457   0.13882   0.98860   0.00000  Uiso   1.00
C732   C     0.90400   0.12530   0.93742   0.00000  Uiso   1.00
C733   C     0.86909   0.13070   0.91166   0.00000  Uiso   1.00
C734   C     0.83968   0.16829   0.56751   0.00000  Uiso   1.00
C735   C     0.92084   0.14508   0.56590   0.00000  Uiso   1.00
C736   C     0.79119   0.16229   0.90750   0.00000  Uiso   1.00
C737   C     0.87473   0.31197   0.75386   0.00000  Uiso   1.00
C738   C     0.80710   0.16434   0.85008   0.00000  Uiso   1.00
C739   C     0.87479   0.02122   0.75377   0.00000  Uiso   1.00
C740   C     0.83313   0.04273   0.75077   0.00000  Uiso   1.00
C741   C     0.79126   0.02134   0.74832   0.00000  Uiso   1.00
C742   C     0.79122   0.31210   0.74838   0.00000  Uiso   1.00
C743   C     0.83303   0.29059   0.75091   0.00000  Uiso   1.00
C744   C     0.96578   0.19284   0.78170   0.00000  Uiso   1.00
C745   C     0.68258   0.19285   0.78269   0.00000  Uiso   1.00
C746   C     0.70057   0.14068   0.71815   0.00000  Uiso   1.00
C747   C     0.98432   0.14063   0.71826   0.00000  Uiso   1.00
C748   C     0.83329   0.08734   0.75022   0.00000  Uiso   1.00
C749   C     0.85965   0.16619   0.64994   0.00000  Uiso   1.00
C750   C     0.93084   0.13418   0.51364   0.00000  Uiso   1.00
C751   C     0.87469   0.16121   0.59326   0.00000  Uiso   1.00
C752   C     0.74330   0.17520   0.93470   0.00000  Uiso   1.00
C753   C     0.72903   0.17999   0.98840   0.00000  Uiso   1.00
C754   C     0.76277   0.17378   0.51564   0.00000  Uiso   1.00
Cu755  Cu    0.78645   0.16666   0.75000   0.00000  Uiso   1.00
Cu756  Cu    0.88022   0.16667   0.75000   0.00000  Uiso   1.00
H757   H     0.94840   0.13944   0.58531   0.00000  Uiso   1.00
H758   H     0.90740   0.03718   0.75600   0.00000  Uiso   1.00
H759   H     0.75865   0.03740   0.74610   0.00000  Uiso   1.00
H760   H     0.75862   0.29613   0.74613   0.00000  Uiso   1.00
H761   H     0.93853   0.21361   0.80547   0.00000  Uiso   1.00
H762   H     0.72661   0.11985   0.69254   0.00000  Uiso   1.00
H763   H     0.97293   0.11977   0.69275   0.00000  Uiso   1.00
H764   H     0.93852   0.11027   0.91717   0.00000  Uiso   1.00
H765   H     0.96646   0.12105   0.99318   0.00000  Uiso   1.00
H766   H     0.80588   0.18308   0.58931   0.00000  Uiso   1.00
H767   H     0.71697   0.18247   0.91431   0.00000  Uiso   1.00
H768   H     0.74898   0.17848   0.55717   0.00000  Uiso   1.00
H769   H     0.69189   0.18981   0.50896   0.00000  Uiso   1.00
H770   H     0.87747   0.11725   0.87324   0.00000  Uiso   1.00
H771   H     0.90731   0.29589   0.75614   0.00000  Uiso   1.00
N772   N     0.71598   0.16666   0.74999   0.00000  Uiso   1.00
N773   N     0.95069   0.16669   0.74999   0.00000  Uiso   1.00
O774   O     0.79375   0.22678   0.75001   0.00000  Uiso   1.00
O775   O     0.87294   0.22679   0.75000   0.00000  Uiso   1.00
O776   O     0.77441   0.16665   0.82549   0.00000  Uiso   1.00
O777   O     0.85360   0.16666   0.82549   0.00000  Uiso   1.00
O778   O     0.79373   0.10654   0.74999   0.00000  Uiso   1.00
O779   O     0.87292   0.10655   0.74999   0.00000  Uiso   1.00
O780   O     0.81306   0.16667   0.67451   0.00000  Uiso   1.00
O781   O     0.89225   0.16668   0.67451   0.00000  Uiso   1.00
O782   O     0.70066   0.21956   0.81330   0.00000  Uiso   1.00
C783   C     0.99795   0.23880   0.85499   0.00000  Uiso   1.00
H784   H     0.68155   0.24459   0.88644   0.00000  Uiso   1.00
H785   H     0.96586   0.21862   0.87324   0.00000  Uiso   1.00
C786   C     0.98341   0.28079   0.83798   0.00000  Uiso   1.00
H787   H     0.68168   0.30225   0.83127   0.00000  Uiso   1.00
H788   H     0.97454   0.27797   0.80072   0.00000  Uiso   1.00
C789   C     0.93912   0.29905   0.87929   0.00000  Uiso   1.00
H790   H     0.90666   0.27863   0.88537   0.00000  Uiso   1.00
H791   H     0.93005   0.32962   0.86620   0.00000  Uiso   1.00
H792   H     0.94744   0.30295   0.91675   0.00000  Uiso   1.00
C793   C     0.16655   0.57932   0.75035   0.00000  Uiso   1.00
C794   C     0.14488   0.49404   0.98966   0.00000  Uiso   1.00
C795   C     0.15755   0.48467   0.93567   0.00000  Uiso   1.00
C796   C     0.18132   0.48941   0.51557   0.00000  Uiso   1.00
C797   C     0.22790   0.47215   0.98860   0.00000  Uiso   1.00
C798   C     0.23734   0.45863   0.93742   0.00000  Uiso   1.00
C799   C     0.20243   0.46403   0.91166   0.00000  Uiso   1.00
C800   C     0.17301   0.50163   0.56751   0.00000  Uiso   1.00
C801   C     0.25417   0.47841   0.56590   0.00000  Uiso   1.00
C802   C     0.12452   0.49562   0.90750   0.00000  Uiso   1.00
C803   C     0.20807   0.64530   0.75386   0.00000  Uiso   1.00
C804   C     0.14043   0.49767   0.85008   0.00000  Uiso   1.00
C805   C     0.20812   0.35455   0.75377   0.00000  Uiso   1.00
C806   C     0.16646   0.37606   0.75077   0.00000  Uiso   1.00
C807   C     0.12460   0.35467   0.74832   0.00000  Uiso   1.00
C808   C     0.12456   0.64543   0.74838   0.00000  Uiso   1.00
C809   C     0.16637   0.62392   0.75091   0.00000  Uiso   1.00
C810   C     0.29912   0.52617   0.78170   0.00000  Uiso   1.00
C811   C     0.01592   0.52618   0.78269   0.00000  Uiso   1.00
C812   C     0.03390   0.47401   0.71815   0.00000  Uiso   1.00
C813   C     0.31765   0.47396   0.71826   0.00000  Uiso   1.00
C814   C     0.16662   0.42068   0.75022   0.00000  Uiso   1.00
C815   C     0.19298   0.49953   0.64994   0.00000  Uiso   1.00
C816   C     0.26418   0.46752   0.51364   0.00000  Uiso   1.00
C817   C     0.20802   0.49454   0.59326   0.00000  Uiso   1.00
C818   C     0.07664   0.50853   0.93470   0.00000  Uiso   1.00
C819   C     0.06237   0.51332   0.98840   0.00000  Uiso   1.00
C820   C     0.09610   0.50711   0.51564   0.00000  Uiso   1.00
Cu821  Cu    0.11978   0.49999   0.75000   0.00000  Uiso   1.00
Cu822  Cu    0.21355   0.50001   0.75000   0.00000  Uiso   1.00
H823   H     0.28173   0.47277   0.58531   0.00000  Uiso   1.00
H824   H     0.24074   0.37052   0.75600   0.00000  Uiso   1.00
H825   H     0.09198   0.37074   0.74610   0.00000  Uiso   1.00
H826   H     0.09195   0.62946   0.74613   0.00000  Uiso   1.00
H827   H     0.27187   0.54694   0.80547   0.00000  Uiso   1.00
H828   H     0.05995   0.45318   0.69254   0.00000  Uiso   1.00
H829   H     0.30626   0.45310   0.69275   0.00000  Uiso   1.00
H830   H     0.27185   0.44361   0.91717   0.00000  Uiso   1.00
H831   H     0.29979   0.45439   0.99318   0.00000  Uiso   1.00
H832   H     0.13921   0.51642   0.58931   0.00000  Uiso   1.00
H833   H     0.05030   0.51580   0.91431   0.00000  Uiso   1.00
H834   H     0.08231   0.51181   0.55717   0.00000  Uiso   1.00
H835   H     0.02522   0.52314   0.50896   0.00000  Uiso   1.00
H836   H     0.21080   0.45058   0.87324   0.00000  Uiso   1.00
H837   H     0.24065   0.62922   0.75614   0.00000  Uiso   1.00
N838   N     0.04931   0.49999   0.74999   0.00000  Uiso   1.00
N839   N     0.28402   0.50002   0.74999   0.00000  Uiso   1.00
O840   O     0.12708   0.56011   0.75001   0.00000  Uiso   1.00
O841   O     0.20627   0.56012   0.75000   0.00000  Uiso   1.00
O842   O     0.10775   0.49998   0.82549   0.00000  Uiso   1.00
O843   O     0.18694   0.49999   0.82549   0.00000  Uiso   1.00
O844   O     0.12706   0.43988   0.74999   0.00000  Uiso   1.00
O845   O     0.20625   0.43989   0.74999   0.00000  Uiso   1.00
O846   O     0.14640   0.50001   0.67451   0.00000  Uiso   1.00
O847   O     0.22559   0.50002   0.67451   0.00000  Uiso   1.00
O848   O     0.03399   0.55289   0.81330   0.00000  Uiso   1.00
C849   C     0.33128   0.57214   0.85499   0.00000  Uiso   1.00
H850   H     0.01488   0.57793   0.88644   0.00000  Uiso   1.00
H851   H     0.29919   0.55196   0.87324   0.00000  Uiso   1.00
C852   C     0.31674   0.61412   0.83798   0.00000  Uiso   1.00
H853   H     0.01502   0.63558   0.83127   0.00000  Uiso   1.00
H854   H     0.30787   0.61130   0.80072   0.00000  Uiso   1.00
C855   C     0.27245   0.63238   0.87929   0.00000  Uiso   1.00
H856   H     0.24000   0.61196   0.88537   0.00000  Uiso   1.00
H857   H     0.26338   0.66296   0.86620   0.00000  Uiso   1.00
H858   H     0.28077   0.63629   0.91675   0.00000  Uiso   1.00
C859   C     0.49988   0.57932   0.75035   0.00000  Uiso   1.00
C860   C     0.47822   0.49404   0.98966   0.00000  Uiso   1.00
C861   C     0.49089   0.48467   0.93567   0.00000  Uiso   1.00
C862   C     0.51465   0.48941   0.51557   0.00000  Uiso   1.00
C863   C     0.56124   0.47215   0.98860   0.00000  Uiso   1.00
C864   C     0.57067   0.45863   0.93742   0.00000  Uiso   1.00
C865   C     0.53576   0.46403   0.91166   0.00000  Uiso   1.00
C866   C     0.50634   0.50163   0.56751   0.00000  Uiso   1.00
C867   C     0.58751   0.47841   0.56590   0.00000  Uiso   1.00
C868   C     0.45786   0.49562   0.90750   0.00000  Uiso   1.00
C869   C     0.54140   0.64530   0.75386   0.00000  Uiso   1.00
C870   C     0.47376   0.49767   0.85008   0.00000  Uiso   1.00
C871   C     0.54146   0.35455   0.75377   0.00000  Uiso   1.00
C872   C     0.49980   0.37606   0.75077   0.00000  Uiso   1.00
C873   C     0.45793   0.35467   0.74832   0.00000  Uiso   1.00
C874   C     0.45789   0.64543   0.74838   0.00000  Uiso   1.00
C875   C     0.49970   0.62392   0.75091   0.00000  Uiso   1.00
C876   C     0.63245   0.52617   0.78170   0.00000  Uiso   1.00
C877   C     0.34925   0.52618   0.78269   0.00000  Uiso   1.00
C878   C     0.36724   0.47401   0.71815   0.00000  Uiso   1.00
C879   C     0.65099   0.47396   0.71826   0.00000  Uiso   1.00
C880   C     0.49995   0.42068   0.75022   0.00000  Uiso   1.00
C881   C     0.52631   0.49953   0.64994   0.00000  Uiso   1.00
C882   C     0.59751   0.46752   0.51364   0.00000  Uiso   1.00
C883   C     0.54136   0.49454   0.59326   0.00000  Uiso   1.00
C884   C     0.40997   0.50853   0.93470   0.00000  Uiso   1.00
C885   C     0.39570   0.51332   0.98840   0.00000  Uiso   1.00
C886   C     0.42944   0.50711   0.51564   0.00000  Uiso   1.00
Cu887  Cu    0.45311   0.49999   0.75000   0.00000  Uiso   1.00
Cu888  Cu    0.54689   0.50001   0.75000   0.00000  Uiso   1.00
H889   H     0.61506   0.47277   0.58531   0.00000  Uiso   1.00
H890   H     0.57407   0.37052   0.75600   0.00000  Uiso   1.00
H891   H     0.42531   0.37074   0.74610   0.00000  Uiso   1.00
H892   H     0.42529   0.62946   0.74613   0.00000  Uiso   1.00
H893   H     0.60520   0.54694   0.80547   0.00000  Uiso   1.00
H894   H     0.39328   0.45318   0.69254   0.00000  Uiso   1.00
H895   H     0.63959   0.45310   0.69275   0.00000  Uiso   1.00
H896   H     0.60518   0.44361   0.91717   0.00000  Uiso   1.00
H897   H     0.63313   0.45439   0.99318   0.00000  Uiso   1.00
H898   H     0.47254   0.51642   0.58931   0.00000  Uiso   1.00
H899   H     0.38363   0.51580   0.91431   0.00000  Uiso   1.00
H900   H     0.41565   0.51181   0.55717   0.00000  Uiso   1.00
H901   H     0.35856   0.52314   0.50896   0.00000  Uiso   1.00
H902   H     0.54414   0.45058   0.87324   0.00000  Uiso   1.00
H903   H     0.57398   0.62922   0.75614   0.00000  Uiso   1.00
N904   N     0.38265   0.49999   0.74999   0.00000  Uiso   1.00
N905   N     0.61735   0.50002   0.74999   0.00000  Uiso   1.00
O906   O     0.46042   0.56011   0.75001   0.00000  Uiso   1.00
O907   O     0.53961   0.56012   0.75000   0.00000  Uiso   1.00
O908   O     0.44108   0.49998   0.82549   0.00000  Uiso   1.00
O909   O     0.52027   0.49999   0.82549   0.00000  Uiso   1.00
O910   O     0.46039   0.43988   0.74999   0.00000  Uiso   1.00
O911   O     0.53958   0.43989   0.74999   0.00000  Uiso   1.00
O912   O     0.47973   0.50001   0.67451   0.00000  Uiso   1.00
O913   O     0.55892   0.50002   0.67451   0.00000  Uiso   1.00
O914   O     0.36732   0.55289   0.81330   0.00000  Uiso   1.00
C915   C     0.66461   0.57214   0.85499   0.00000  Uiso   1.00
H916   H     0.34822   0.57793   0.88644   0.00000  Uiso   1.00
H917   H     0.63252   0.55196   0.87324   0.00000  Uiso   1.00
C918   C     0.65008   0.61412   0.83798   0.00000  Uiso   1.00
H919   H     0.34835   0.63558   0.83127   0.00000  Uiso   1.00
H920   H     0.64120   0.61130   0.80072   0.00000  Uiso   1.00
C921   C     0.60578   0.63238   0.87929   0.00000  Uiso   1.00
H922   H     0.57333   0.61196   0.88537   0.00000  Uiso   1.00
H923   H     0.59672   0.66296   0.86620   0.00000  Uiso   1.00
H924   H     0.61411   0.63629   0.91675   0.00000  Uiso   1.00
C925   C     0.83322   0.57932   0.75035   0.00000  Uiso   1.00
C926   C     0.81155   0.49404   0.98966   0.00000  Uiso   1.00
C927   C     0.82422   0.48467   0.93567   0.00000  Uiso   1.00
C928   C     0.84798   0.48941   0.51557   0.00000  Uiso   1.00
C929   C     0.89457   0.47215   0.98860   0.00000  Uiso   1.00
C930   C     0.90400   0.45863   0.93742   0.00000  Uiso   1.00
C931   C     0.86909   0.46403   0.91166   0.00000  Uiso   1.00
C932   C     0.83968   0.50163   0.56751   0.00000  Uiso   1.00
C933   C     0.92084   0.47841   0.56590   0.00000  Uiso   1.00
C934   C     0.79119   0.49562   0.90750   0.00000  Uiso   1.00
C935   C     0.87473   0.64530   0.75386   0.00000  Uiso   1.00
C936   C     0.80710   0.49767   0.85008   0.00000  Uiso   1.00
C937   C     0.87479   0.35455   0.75377   0.00000  Uiso   1.00
C938   C     0.83313   0.37606   0.75077   0.00000  Uiso   1.00
C939   C     0.79126   0.35467   0.74832   0.00000  Uiso   1.00
C940   C     0.79122   0.64543   0.74838   0.00000  Uiso   1.00
C941   C     0.83303   0.62392   0.75091   0.00000  Uiso   1.00
C942   C     0.96578   0.52617   0.78170   0.00000  Uiso   1.00
C943   C     0.68258   0.52618   0.78269   0.00000  Uiso   1.00
C944   C     0.70057   0.47401   0.71815   0.00000  Uiso   1.00
C945   C     0.98432   0.47396   0.71826   0.00000  Uiso   1.00
C946   C     0.83329   0.42068   0.75022   0.00000  Uiso   1.00
C947   C     0.85965   0.49953   0.64994   0.00000  Uiso   1.00
C948   C     0.93084   0.46752   0.51364   0.00000  Uiso   1.00
C949   C     0.87469   0.49454   0.59326   0.00000  Uiso   1.00
C950   C     0.74330   0.50853   0.93470   0.00000  Uiso   1.00
C951   C     0.72903   0.51332   0.98840   0.00000  Uiso   1.00
C952   C     0.76277   0.50711   0.51564   0.00000  Uiso   1.00
Cu953  Cu    0.78645   0.49999   0.75000   0.00000  Uiso   1.00
Cu954  Cu    0.88022   0.50001   0.75000   0.00000  Uiso   1.00
H955   H     0.94840   0.47277   0.58531   0.00000  Uiso   1.00
H956   H     0.90740   0.37052   0.75600   0.00000  Uiso   1.00
H957   H     0.75865   0.37074   0.74610   0.00000  Uiso   1.00
H958   H     0.75862   0.62946   0.74613   0.00000  Uiso   1.00
H959   H     0.93853   0.54694   0.80547   0.00000  Uiso   1.00
H960   H     0.72661   0.45318   0.69254   0.00000  Uiso   1.00
H961   H     0.97293   0.45310   0.69275   0.00000  Uiso   1.00
H962   H     0.93852   0.44361   0.91717   0.00000  Uiso   1.00
H963   H     0.96646   0.45439   0.99318   0.00000  Uiso   1.00
H964   H     0.80588   0.51642   0.58931   0.00000  Uiso   1.00
H965   H     0.71697   0.51580   0.91431   0.00000  Uiso   1.00
H966   H     0.74898   0.51181   0.55717   0.00000  Uiso   1.00
H967   H     0.69189   0.52314   0.50896   0.00000  Uiso   1.00
H968   H     0.87747   0.45058   0.87324   0.00000  Uiso   1.00
H969   H     0.90731   0.62922   0.75614   0.00000  Uiso   1.00
N970   N     0.71598   0.49999   0.74999   0.00000  Uiso   1.00
N971   N     0.95069   0.50002   0.74999   0.00000  Uiso   1.00
O972   O     0.79375   0.56011   0.75001   0.00000  Uiso   1.00
O973   O     0.87294   0.56012   0.75000   0.00000  Uiso   1.00
O974   O     0.77441   0.49998   0.82549   0.00000  Uiso   1.00
O975   O     0.85360   0.49999   0.82549   0.00000  Uiso   1.00
O976   O     0.79373   0.43988   0.74999   0.00000  Uiso   1.00
O977   O     0.87292   0.43989   0.74999   0.00000  Uiso   1.00
O978   O     0.81306   0.50001   0.67451   0.00000  Uiso   1.00
O979   O     0.89225   0.50002   0.67451   0.00000  Uiso   1.00
O980   O     0.70066   0.55289   0.81330   0.00000  Uiso   1.00
C981   C     0.99795   0.57214   0.85499   0.00000  Uiso   1.00
H982   H     0.68155   0.57793   0.88644   0.00000  Uiso   1.00
H983   H     0.96586   0.55196   0.87324   0.00000  Uiso   1.00
C984   C     0.98341   0.61412   0.83798   0.00000  Uiso   1.00
H985   H     0.68168   0.63558   0.83127   0.00000  Uiso   1.00
H986   H     0.97454   0.61130   0.80072   0.00000  Uiso   1.00
C987   C     0.93912   0.63238   0.87929   0.00000  Uiso   1.00
H988   H     0.90666   0.61196   0.88537   0.00000  Uiso   1.00
H989   H     0.93005   0.66296   0.86620   0.00000  Uiso   1.00
H990   H     0.94744   0.63629   0.91675   0.00000  Uiso   1.00
C991   C     0.16655   0.91265   0.75035   0.00000  Uiso   1.00
C992   C     0.14488   0.82737   0.98966   0.00000  Uiso   1.00
C993   C     0.15755   0.81800   0.93567   0.00000  Uiso   1.00
C994   C     0.18132   0.82274   0.51557   0.00000  Uiso   1.00
C995   C     0.22790   0.80549   0.98860   0.00000  Uiso   1.00
C996   C     0.23734   0.79196   0.93742   0.00000  Uiso   1.00
C997   C     0.20243   0.79736   0.91166   0.00000  Uiso   1.00
C998   C     0.17301   0.83496   0.56751   0.00000  Uiso   1.00
C999   C     0.25417   0.81174   0.56590   0.00000  Uiso   1.00
C1000  C     0.12452   0.82896   0.90750   0.00000  Uiso   1.00
C1001  C     0.20807   0.97864   0.75386   0.00000  Uiso   1.00
C1002  C     0.14043   0.83101   0.85008   0.00000  Uiso   1.00
C1003  C     0.20812   0.68788   0.75377   0.00000  Uiso   1.00
C1004  C     0.16646   0.70940   0.75077   0.00000  Uiso   1.00
C1005  C     0.12460   0.68801   0.74832   0.00000  Uiso   1.00
C1006  C     0.12456   0.97877   0.74838   0.00000  Uiso   1.00
C1007  C     0.16637   0.95725   0.75091   0.00000  Uiso   1.00
C1008  C     0.29912   0.85951   0.78170   0.00000  Uiso   1.00
C1009  C     0.01592   0.85951   0.78269   0.00000  Uiso   1.00
C1010  C     0.03390   0.80734   0.71815   0.00000  Uiso   1.00
C1011  C     0.31765   0.80730   0.71826   0.00000  Uiso   1.00
C1012  C     0.16662   0.75401   0.75022   0.00000  Uiso   1.00
C1013  C     0.19298   0.83286   0.64994   0.00000  Uiso   1.00
C1014  C     0.26418   0.80085   0.51364   0.00000  Uiso   1.00
C1015  C     0.20802   0.82788   0.59326   0.00000  Uiso   1.00
C1016  C     0.07664   0.84186   0.93470   0.00000  Uiso   1.00
C1017  C     0.06237   0.84666   0.98840   0.00000  Uiso   1.00
C1018  C     0.09610   0.84044   0.51564   0.00000  Uiso   1.00
Cu1019 Cu    0.11978   0.83333   0.75000   0.00000  Uiso   1.00
Cu1020 Cu    0.21355   0.83334   0.75000   0.00000  Uiso   1.00
H1021  H     0.28173   0.80611   0.58531   0.00000  Uiso   1.00
H1022  H     0.24074   0.70385   0.75600   0.00000  Uiso   1.00
H1023  H     0.09198   0.70407   0.74610   0.00000  Uiso   1.00
H1024  H     0.09195   0.96279   0.74613   0.00000  Uiso   1.00
H1025  H     0.27187   0.88027   0.80547   0.00000  Uiso   1.00
H1026  H     0.05995   0.78651   0.69254   0.00000  Uiso   1.00
H1027  H     0.30626   0.78643   0.69275   0.00000  Uiso   1.00
H1028  H     0.27185   0.77694   0.91717   0.00000  Uiso   1.00
H1029  H     0.29979   0.78772   0.99318   0.00000  Uiso   1.00
H1030  H     0.13921   0.84975   0.58931   0.00000  Uiso   1.00
H1031  H     0.05030   0.84913   0.91431   0.00000  Uiso   1.00
H1032  H     0.08231   0.84515   0.55717   0.00000  Uiso   1.00
H1033  H     0.02522   0.85647   0.50896   0.00000  Uiso   1.00
H1034  H     0.21080   0.78392   0.87324   0.00000  Uiso   1.00
H1035  H     0.24065   0.96256   0.75614   0.00000  Uiso   1.00
N1036  N     0.04931   0.83332   0.74999   0.00000  Uiso   1.00
N1037  N     0.28402   0.83335   0.74999   0.00000  Uiso   1.00
O1038  O     0.12708   0.89345   0.75001   0.00000  Uiso   1.00
O1039  O     0.20627   0.89346   0.75000   0.00000  Uiso   1.00
O1040  O     0.10775   0.83332   0.82549   0.00000  Uiso   1.00
O1041  O     0.18694   0.83333   0.82549   0.00000  Uiso   1.00
O1042  O     0.12706   0.77321   0.74999   0.00000  Uiso   1.00
O1043  O     0.20625   0.77322   0.74999   0.00000  Uiso   1.00
O1044  O     0.14640   0.83334   0.67451   0.00000  Uiso   1.00
O1045  O     0.22559   0.83335   0.67451   0.00000  Uiso   1.00
O1046  O     0.03399   0.88623   0.81330   0.00000  Uiso   1.00
C1047  C     0.33128   0.90547   0.85499   0.00000  Uiso   1.00
H1048  H     0.01488   0.91126   0.88644   0.00000  Uiso   1.00
H1049  H     0.29919   0.88529   0.87324   0.00000  Uiso   1.00
C1050  C     0.31674   0.94745   0.83798   0.00000  Uiso   1.00
H1051  H     0.01502   0.96891   0.83127   0.00000  Uiso   1.00
H1052  H     0.30787   0.94463   0.80072   0.00000  Uiso   1.00
C1053  C     0.27245   0.96571   0.87929   0.00000  Uiso   1.00
H1054  H     0.24000   0.94530   0.88537   0.00000  Uiso   1.00
H1055  H     0.26338   0.99629   0.86620   0.00000  Uiso   1.00
H1056  H     0.28077   0.96962   0.91675   0.00000  Uiso   1.00
C1057  C     0.49988   0.91265   0.75035   0.00000  Uiso   1.00
C1058  C     0.47822   0.82737   0.98966   0.00000  Uiso   1.00
C1059  C     0.49089   0.81800   0.93567   0.00000  Uiso   1.00
C1060  C     0.51465   0.82274   0.51557   0.00000  Uiso   1.00
C1061  C     0.56124   0.80549   0.98860   0.00000  Uiso   1.00
C1062  C     0.57067   0.79196   0.93742   0.00000  Uiso   1.00
C1063  C     0.53576   0.79736   0.91166   0.00000  Uiso   1.00
C1064  C     0.50634   0.83496   0.56751   0.00000  Uiso   1.00
C1065  C     0.58751   0.81174   0.56590   0.00000  Uiso   1.00
C1066  C     0.45786   0.82896   0.90750   0.00000  Uiso   1.00
C1067  C     0.54140   0.97864   0.75386   0.00000  Uiso   1.00
C1068  C     0.47376   0.83101   0.85008   0.00000  Uiso   1.00
C1069  C     0.54146   0.68788   0.75377   0.00000  Uiso   1.00
C1070  C     0.49980   0.70940   0.75077   0.00000  Uiso   1.00
C1071  C     0.45793   0.68801   0.74832   0.00000  Uiso   1.00
C1072  C     0.45789   0.97877   0.74838   0.00000  Uiso   1.00
C1073  C     0.49970   0.95725   0.75091   0.00000  Uiso   1.00
C1074  C     0.63245   0.85951   0.78170   0.00000  Uiso   1.00
C1075  C     0.34925   0.85951   0.78269   0.00000  Uiso   1.00
C1076  C     0.36724   0.80734   0.71815   0.00000  Uiso   1.00
C1077  C     0.65099   0.80730   0.71826   0.00000  Uiso   1.00
C1078  C     0.49995   0.75401   0.75022   0.00000  Uiso   1.00
C1079  C     0.52631   0.83286   0.64994   0.00000  Uiso   1.00
C1080  C     0.59751   0.80085   0.51364   0.00000  Uiso   1.00
C1081  C     0.54136   0.82788   0.59326   0.00000  Uiso   1.00
C1082  C     0.40997   0.84186   0.93470   0.00000  Uiso   1.00
C1083  C     0.39570   0.84666   0.98840   0.00000  Uiso   1.00
C1084  C     0.42944   0.84044   0.51564   0.00000  Uiso   1.00
Cu1085 Cu    0.45311   0.83333   0.75000   0.00000  Uiso   1.00
Cu1086 Cu    0.54689   0.83334   0.75000   0.00000  Uiso   1.00
H1087  H     0.61506   0.80611   0.58531   0.00000  Uiso   1.00
H1088  H     0.57407   0.70385   0.75600   0.00000  Uiso   1.00
H1089  H     0.42531   0.70407   0.74610   0.00000  Uiso   1.00
H1090  H     0.42529   0.96279   0.74613   0.00000  Uiso   1.00
H1091  H     0.60520   0.88027   0.80547   0.00000  Uiso   1.00
H1092  H     0.39328   0.78651   0.69254   0.00000  Uiso   1.00
H1093  H     0.63959   0.78643   0.69275   0.00000  Uiso   1.00
H1094  H     0.60518   0.77694   0.91717   0.00000  Uiso   1.00
H1095  H     0.63313   0.78772   0.99318   0.00000  Uiso   1.00
H1096  H     0.47254   0.84975   0.58931   0.00000  Uiso   1.00
H1097  H     0.38363   0.84913   0.91431   0.00000  Uiso   1.00
H1098  H     0.41565   0.84515   0.55717   0.00000  Uiso   1.00
H1099  H     0.35856   0.85647   0.50896   0.00000  Uiso   1.00
H1100  H     0.54414   0.78392   0.87324   0.00000  Uiso   1.00
H1101  H     0.57398   0.96256   0.75614   0.00000  Uiso   1.00
N1102  N     0.38265   0.83332   0.74999   0.00000  Uiso   1.00
N1103  N     0.61735   0.83335   0.74999   0.00000  Uiso   1.00
O1104  O     0.46042   0.89345   0.75001   0.00000  Uiso   1.00
O1105  O     0.53961   0.89346   0.75000   0.00000  Uiso   1.00
O1106  O     0.44108   0.83332   0.82549   0.00000  Uiso   1.00
O1107  O     0.52027   0.83333   0.82549   0.00000  Uiso   1.00
O1108  O     0.46039   0.77321   0.74999   0.00000  Uiso   1.00
O1109  O     0.53958   0.77322   0.74999   0.00000  Uiso   1.00
O1110  O     0.47973   0.83334   0.67451   0.00000  Uiso   1.00
O1111  O     0.55892   0.83335   0.67451   0.00000  Uiso   1.00
O1112  O     0.36732   0.88623   0.81330   0.00000  Uiso   1.00
C1113  C     0.66461   0.90547   0.85499   0.00000  Uiso   1.00
H1114  H     0.34822   0.91126   0.88644   0.00000  Uiso   1.00
H1115  H     0.63252   0.88529   0.87324   0.00000  Uiso   1.00
C1116  C     0.65008   0.94745   0.83798   0.00000  Uiso   1.00
H1117  H     0.34835   0.96891   0.83127   0.00000  Uiso   1.00
H1118  H     0.64120   0.94463   0.80072   0.00000  Uiso   1.00
C1119  C     0.60578   0.96571   0.87929   0.00000  Uiso   1.00
H1120  H     0.57333   0.94530   0.88537   0.00000  Uiso   1.00
H1121  H     0.59672   0.99629   0.86620   0.00000  Uiso   1.00
H1122  H     0.61411   0.96962   0.91675   0.00000  Uiso   1.00
C1123  C     0.83322   0.91265   0.75035   0.00000  Uiso   1.00
C1124  C     0.81155   0.82737   0.98966   0.00000  Uiso   1.00
C1125  C     0.82422   0.81800   0.93567   0.00000  Uiso   1.00
C1126  C     0.84798   0.82274   0.51557   0.00000  Uiso   1.00
C1127  C     0.89457   0.80549   0.98860   0.00000  Uiso   1.00
C1128  C     0.90400   0.79196   0.93742   0.00000  Uiso   1.00
C1129  C     0.86909   0.79736   0.91166   0.00000  Uiso   1.00
C1130  C     0.83968   0.83496   0.56751   0.00000  Uiso   1.00
C1131  C     0.92084   0.81174   0.56590   0.00000  Uiso   1.00
C1132  C     0.79119   0.82896   0.90750   0.00000  Uiso   1.00
C1133  C     0.87473   0.97864   0.75386   0.00000  Uiso   1.00
C1134  C     0.80710   0.83101   0.85008   0.00000  Uiso   1.00
C1135  C     0.87479   0.68788   0.75377   0.00000  Uiso   1.00
C1136  C     0.83313   0.70940   0.75077   0.00000  Uiso   1.00
C1137  C     0.79126   0.68801   0.74832   0.00000  Uiso   1.00
C1138  C     0.79122   0.97877   0.74838   0.00000  Uiso   1.00
C1139  C     0.83303   0.95725   0.75091   0.00000  Uiso   1.00
C1140  C     0.96578   0.85951   0.78170   0.00000  Uiso   1.00
C1141  C     0.68258   0.85951   0.78269   0.00000  Uiso   1.00
C1142  C     0.70057   0.80734   0.71815   0.00000  Uiso   1.00
C1143  C     0.98432   0.80730   0.71826   0.00000  Uiso   1.00
C1144  C     0.83329   0.75401   0.75022   0.00000  Uiso   1.00
C1145  C     0.85965   0.83286   0.64994   0.00000  Uiso   1.00
C1146  C     0.93084   0.80085   0.51364   0.00000  Uiso   1.00
C1147  C     0.87469   0.82788   0.59326   0.00000  Uiso   1.00
C1148  C     0.74330   0.84186   0.93470   0.00000  Uiso   1.00
C1149  C     0.72903   0.84666   0.98840   0.00000  Uiso   1.00
C1150  C     0.76277   0.84044   0.51564   0.00000  Uiso   1.00
Cu1151 Cu    0.78645   0.83333   0.75000   0.00000  Uiso   1.00
Cu1152 Cu    0.88022   0.83334   0.75000   0.00000  Uiso   1.00
H1153  H     0.94840   0.80611   0.58531   0.00000  Uiso   1.00
H1154  H     0.90740   0.70385   0.75600   0.00000  Uiso   1.00
H1155  H     0.75865   0.70407   0.74610   0.00000  Uiso   1.00
H1156  H     0.75862   0.96279   0.74613   0.00000  Uiso   1.00
H1157  H     0.93853   0.88027   0.80547   0.00000  Uiso   1.00
H1158  H     0.72661   0.78651   0.69254   0.00000  Uiso   1.00
H1159  H     0.97293   0.78643   0.69275   0.00000  Uiso   1.00
H1160  H     0.93852   0.77694   0.91717   0.00000  Uiso   1.00
H1161  H     0.96646   0.78772   0.99318   0.00000  Uiso   1.00
H1162  H     0.80588   0.84975   0.58931   0.00000  Uiso   1.00
H1163  H     0.71697   0.84913   0.91431   0.00000  Uiso   1.00
H1164  H     0.74898   0.84515   0.55717   0.00000  Uiso   1.00
H1165  H     0.69189   0.85647   0.50896   0.00000  Uiso   1.00
H1166  H     0.87747   0.78392   0.87324   0.00000  Uiso   1.00
H1167  H     0.90731   0.96256   0.75614   0.00000  Uiso   1.00
N1168  N     0.71598   0.83332   0.74999   0.00000  Uiso   1.00
N1169  N     0.95069   0.83335   0.74999   0.00000  Uiso   1.00
O1170  O     0.79375   0.89345   0.75001   0.00000  Uiso   1.00
O1171  O     0.87294   0.89346   0.75000   0.00000  Uiso   1.00
O1172  O     0.77441   0.83332   0.82549   0.00000  Uiso   1.00
O1173  O     0.85360   0.83333   0.82549   0.00000  Uiso   1.00
O1174  O     0.79373   0.77321   0.74999   0.00000  Uiso   1.00
O1175  O     0.87292   0.77322   0.74999   0.00000  Uiso   1.00
O1176  O     0.81306   0.83334   0.67451   0.00000  Uiso   1.00
O1177  O     0.89225   0.83335   0.67451   0.00000  Uiso   1.00
O1178  O     0.70066   0.88623   0.81330   0.00000  Uiso   1.00
C1179  C     0.99795   0.90547   0.85499   0.00000  Uiso   1.00
H1180  H     0.68155   0.91126   0.88644   0.00000  Uiso   1.00
H1181  H     0.96586   0.88529   0.87324   0.00000  Uiso   1.00
C1182  C     0.98341   0.94745   0.83798   0.00000  Uiso   1.00
H1183  H     0.68168   0.96891   0.83127   0.00000  Uiso   1.00
H1184  H     0.97454   0.94463   0.80072   0.00000  Uiso   1.00
C1185  C     0.93912   0.96571   0.87929   0.00000  Uiso   1.00
H1186  H     0.90666   0.94530   0.88537   0.00000  Uiso   1.00
H1187  H     0.93005   0.99629   0.86620   0.00000  Uiso   1.00
H1188  H     0.94744   0.96962   0.91675   0.00000  Uiso   1.00
loop_
_geom_bond_atom_site_label_1
_geom_bond_atom_site_label_2
_geom_bond_distance
_geom_bond_site_symmetry_2
_ccdc_geom_bond_type
C1     C17     1.449   .     S
C1     O48     1.291   .     A
C1     O49     1.290   .     A
C2     C3      1.419   .     A
C2     C598    1.424   .     S
C2     C622    1.418   .     S
C3     C10     1.422   .     A
C3     C7      1.414   .     A
C4     C8      1.401   .     A
C4     C596    1.424   1_554 S
C4     C599    1.420   1_554 S
C5     C6      1.391   .     A
C5     C598    1.420   .     S
C5     C618    1.404   .     S
C6     H38     1.084   .     S
C6     C7      1.386   .     A
C7     H44     1.079   .     S
C8     C25     1.397   .     A
C8     H40     1.076   .     S
C9     C24     1.392   .     A
C9     C25     1.399   .     A
C9     H31     1.083   .     S
C10    C26     1.403   .     A
C10    C12     1.474   .     S
C11    H45     1.083   .     S
C11    C17     1.401   .     A
C11    C211    1.383   .     S
C12    O50     1.299   .     A
C12    O51     1.293   .     A
C13    H32     1.083   .     S
C13    C14     1.401   .     A
C13    C407    1.383   1_545 S
C14    C22     1.449   .     S
C14    C15     1.401   .     A
C15    H33     1.083   .     S
C15    C412    1.383   1_545 S
C16    H34     1.083   .     S
C16    C17     1.401   .     A
C16    C213    1.383   .     S
C18    H35     1.078   .     S
C18    N47     1.363   .     A
C18    C85     1.438   .     S
C19    O56     1.398   .     S
C19    N46     1.375   .     A
C19    C150    1.438   1_455 S
C20    N46     1.366   .     A
C20    H36     1.082   .     S
C20    C153    1.413   1_455 S
C21    H37     1.082   .     S
C21    N47     1.365   .     A
C21    C86     1.413   .     S
C22    O52     1.290   .     A
C22    O53     1.291   .     A
C23    O55     1.295   .     A
C23    C25     1.463   .     S
C23    O54     1.292   .     A
C24    C599    1.404   1_554 S
C24    H633    1.084   1_554 S
C26    C27     1.386   .     A
C26    H41     1.082   .     S
C27    C622    1.390   .     S
C27    H637    1.083   .     S
C28    H42     1.077   .     S
C28    C621    1.390   1_554 S
C28    C596    1.418   1_554 S
Cu29   N46     2.010   .     S
Cu29   Cu30    2.675   .     S
Cu29   O50     1.955   .     S
Cu29   O54     1.941   .     S
Cu29   O48     1.964   .     S
Cu29   O52     1.964   .     S
Cu30   O51     1.941   .     S
Cu30   O49     1.964   .     S
Cu30   O53     1.964   .     S
Cu30   N47     2.010   .     S
Cu30   O55     1.955   .     S
H39    C618    1.084   .     S
H43    C621    1.083   1_554 S
O56    C189    1.415   1_455 S
C57    H59     1.114   .     S
C57    C60     1.535   .     S
C57    O122    1.415   .     S
C57    H124    1.111   .     S
H58    C189    1.111   1_455 S
C60    C63     1.525   .     S
C60    H62     1.110   .     S
C60    H127    1.112   .     S
H61    C192    1.112   1_455 S
C63    H65     1.111   .     S
C63    H66     1.111   .     S
C63    H64     1.111   .     S
C67    C83     1.449   .     S
C67    O114    1.291   .     A
C67    O115    1.290   .     A
C68    C69     1.419   .     A
C68    C664    1.424   .     S
C68    C688    1.418   .     S
C69    C76     1.422   .     A
C69    C73     1.414   .     A
C70    C74     1.401   .     A
C70    C662    1.424   1_554 S
C70    C665    1.420   1_554 S
C71    C72     1.391   .     A
C71    C664    1.420   .     S
C71    C684    1.404   .     S
C72    H104    1.084   .     S
C72    C73     1.386   .     A
C73    H110    1.079   .     S
C74    C91     1.397   .     A
C74    H106    1.076   .     S
C75    C90     1.392   .     A
C75    C91     1.399   .     A
C75    H97     1.083   .     S
C76    C92     1.403   .     A
C76    C78     1.474   .     S
C77    H111    1.083   .     S
C77    C83     1.401   .     A
C77    C277    1.383   .     S
C78    O116    1.299   .     A
C78    O117    1.293   .     A
C79    H98     1.083   .     S
C79    C80     1.401   .     A
C79    C473    1.383   1_545 S
C80    C88     1.449   .     S
C80    C81     1.401   .     A
C81    H99     1.083   .     S
C81    C478    1.383   1_545 S
C82    H100    1.083   .     S
C82    C83     1.401   .     A
C82    C279    1.383   .     S
C84    H101    1.078   .     S
C84    N113    1.363   .     A
C84    C151    1.438   .     S
C85    O122    1.398   .     S
C85    N112    1.375   .     A
C86    N112    1.366   .     A
C86    H102    1.082   .     S
C87    H103    1.082   .     S
C87    N113    1.365   .     A
C87    C152    1.413   .     S
C88    O118    1.290   .     A
C88    O119    1.291   .     A
C89    O121    1.295   .     A
C89    C91     1.463   .     S
C89    O120    1.292   .     A
C90    C665    1.404   1_554 S
C90    H699    1.084   1_554 S
C92    C93     1.386   .     A
C92    H107    1.082   .     S
C93    C688    1.390   .     S
C93    H703    1.083   .     S
C94    H108    1.077   .     S
C94    C687    1.390   1_554 S
C94    C662    1.418   1_554 S
Cu95   N112    2.010   .     S
Cu95   Cu96    2.675   .     S
Cu95   O116    1.955   .     S
Cu95   O120    1.941   .     S
Cu95   O114    1.964   .     S
Cu95   O118    1.964   .     S
Cu96   O117    1.941   .     S
Cu96   O115    1.964   .     S
Cu96   O119    1.964   .     S
Cu96   N113    2.010   .     S
Cu96   O121    1.955   .     S
H105   C684    1.084   .     S
H109   C687    1.083   1_554 S
C123   H125    1.114   .     S
C123   C126    1.535   .     S
C123   O188    1.415   .     S
C123   H190    1.111   .     S
C126   C129    1.525   .     S
C126   H128    1.110   .     S
C126   H193    1.112   .     S
C129   H131    1.111   .     S
C129   H132    1.111   .     S
C129   H130    1.111   .     S
C133   C149    1.449   .     S
C133   O180    1.291   .     A
C133   O181    1.290   .     A
C134   C135    1.419   .     A
C134   C730    1.424   .     S
C134   C754    1.418   .     S
C135   C142    1.422   .     A
C135   C139    1.414   .     A
C136   C140    1.401   .     A
C136   C728    1.424   1_554 S
C136   C731    1.420   1_554 S
C137   C138    1.391   .     A
C137   C730    1.420   .     S
C137   C750    1.404   .     S
C138   H170    1.084   .     S
C138   C139    1.386   .     A
C139   H176    1.079   .     S
C140   C157    1.397   .     A
C140   H172    1.076   .     S
C141   C156    1.392   .     A
C141   C157    1.399   .     A
C141   H163    1.083   .     S
C142   C158    1.403   .     A
C142   C144    1.474   .     S
C143   H177    1.083   .     S
C143   C149    1.401   .     A
C143   C343    1.383   .     S
C144   O182    1.299   .     A
C144   O183    1.293   .     A
C145   H164    1.083   .     S
C145   C146    1.401   .     A
C145   C539    1.383   1_545 S
C146   C154    1.449   .     S
C146   C147    1.401   .     A
C147   H165    1.083   .     S
C147   C544    1.383   1_545 S
C148   H166    1.083   .     S
C148   C149    1.401   .     A
C148   C345    1.383   .     S
C150   H167    1.078   .     S
C150   N179    1.363   .     A
C150   C19     1.438   1_655 S
C151   O188    1.398   .     S
C151   N178    1.375   .     A
C152   N178    1.366   .     A
C152   H168    1.082   .     S
C153   H169    1.082   .     S
C153   N179    1.365   .     A
C153   C20     1.413   1_655 S
C154   O184    1.290   .     A
C154   O185    1.291   .     A
C155   O187    1.295   .     A
C155   C157    1.463   .     S
C155   O186    1.292   .     A
C156   C731    1.404   1_554 S
C156   H765    1.084   1_554 S
C158   C159    1.386   .     A
C158   H173    1.082   .     S
C159   C754    1.390   .     S
C159   H769    1.083   .     S
C160   H174    1.077   .     S
C160   C753    1.390   1_554 S
C160   C728    1.418   1_554 S
Cu161  N178    2.010   .     S
Cu161  Cu162   2.675   .     S
Cu161  O182    1.955   .     S
Cu161  O186    1.941   .     S
Cu161  O180    1.964   .     S
Cu161  O184    1.964   .     S
Cu162  O183    1.941   .     S
Cu162  O181    1.964   .     S
Cu162  O185    1.964   .     S
Cu162  N179    2.010   .     S
Cu162  O187    1.955   .     S
H171   C750    1.084   .     S
H175   C753    1.083   1_554 S
C189   H191    1.114   .     S
C189   C192    1.535   .     S
C189   O56     1.415   1_655 S
C189   H58     1.111   1_655 S
C192   C195    1.525   .     S
C192   H194    1.110   .     S
C192   H61     1.112   1_655 S
C195   H197    1.111   .     S
C195   H198    1.111   .     S
C195   H196    1.111   .     S
C199   C215    1.449   .     S
C199   O246    1.291   .     A
C199   O247    1.290   .     A
C200   C201    1.419   .     A
C200   C796    1.424   .     S
C200   C820    1.418   .     S
C201   C208    1.422   .     A
C201   C205    1.414   .     A
C202   C206    1.401   .     A
C202   C794    1.424   1_554 S
C202   C797    1.420   1_554 S
C203   C204    1.391   .     A
C203   C796    1.420   .     S
C203   C816    1.404   .     S
C204   H236    1.084   .     S
C204   C205    1.386   .     A
C205   H242    1.079   .     S
C206   C223    1.397   .     A
C206   H238    1.076   .     S
C207   C222    1.392   .     A
C207   C223    1.399   .     A
C207   H229    1.083   .     S
C208   C224    1.403   .     A
C208   C210    1.474   .     S
C209   H243    1.083   .     S
C209   C215    1.401   .     A
C209   C409    1.383   .     S
C210   O248    1.299   .     A
C210   O249    1.293   .     A
C211   H230    1.083   .     S
C211   C212    1.401   .     A
C212   C220    1.449   .     S
C212   C213    1.401   .     A
C213   H231    1.083   .     S
C214   H232    1.083   .     S
C214   C215    1.401   .     A
C214   C411    1.383   .     S
C216   H233    1.078   .     S
C216   N245    1.363   .     A
C216   C283    1.438   .     S
C217   O254    1.398   .     S
C217   N244    1.375   .     A
C217   C348    1.438   1_455 S
C218   N244    1.366   .     A
C218   H234    1.082   .     S
C218   C351    1.413   1_455 S
C219   H235    1.082   .     S
C219   N245    1.365   .     A
C219   C284    1.413   .     S
C220   O250    1.290   .     A
C220   O251    1.291   .     A
C221   O253    1.295   .     A
C221   C223    1.463   .     S
C221   O252    1.292   .     A
C222   C797    1.404   1_554 S
C222   H831    1.084   1_554 S
C224   C225    1.386   .     A
C224   H239    1.082   .     S
C225   C820    1.390   .     S
C225   H835    1.083   .     S
C226   H240    1.077   .     S
C226   C819    1.390   1_554 S
C226   C794    1.418   1_554 S
Cu227  N244    2.010   .     S
Cu227  Cu228   2.675   .     S
Cu227  O248    1.955   .     S
Cu227  O252    1.941   .     S
Cu227  O246    1.964   .     S
Cu227  O250    1.964   .     S
Cu228  O249    1.941   .     S
Cu228  O247    1.964   .     S
Cu228  O251    1.964   .     S
Cu228  N245    2.010   .     S
Cu228  O253    1.955   .     S
H237   C816    1.084   .     S
H241   C819    1.083   1_554 S
O254   C387    1.415   1_455 S
C255   H257    1.114   .     S
C255   C258    1.535   .     S
C255   O320    1.415   .     S
C255   H322    1.111   .     S
H256   C387    1.111   1_455 S
C258   C261    1.525   .     S
C258   H260    1.110   .     S
C258   H325    1.112   .     S
H259   C390    1.112   1_455 S
C261   H263    1.111   .     S
C261   H264    1.111   .     S
C261   H262    1.111   .     S
C265   C281    1.449   .     S
C265   O312    1.291   .     A
C265   O313    1.290   .     A
C266   C267    1.419   .     A
C266   C862    1.424   .     S
C266   C886    1.418   .     S
C267   C274    1.422   .     A
C267   C271    1.414   .     A
C268   C272    1.401   .     A
C268   C860    1.424   1_554 S
C268   C863    1.420   1_554 S
C269   C270    1.391   .     A
C269   C862    1.420   .     S
C269   C882    1.404   .     S
C270   H302    1.084   .     S
C270   C271    1.386   .     A
C271   H308    1.079   .     S
C272   C289    1.397   .     A
C272   H304    1.076   .     S
C273   C288    1.392   .     A
C273   C289    1.399   .     A
C273   H295    1.083   .     S
C274   C290    1.403   .     A
C274   C276    1.474   .     S
C275   H309    1.083   .     S
C275   C281    1.401   .     A
C275   C475    1.383   .     S
C276   O314    1.299   .     A
C276   O315    1.293   .     A
C277   H296    1.083   .     S
C277   C278    1.401   .     A
C278   C286    1.449   .     S
C278   C279    1.401   .     A
C279   H297    1.083   .     S
C280   H298    1.083   .     S
C280   C281    1.401   .     A
C280   C477    1.383   .     S
C282   H299    1.078   .     S
C282   N311    1.363   .     A
C282   C349    1.438   .     S
C283   O320    1.398   .     S
C283   N310    1.375   .     A
C284   N310    1.366   .     A
C284   H300    1.082   .     S
C285   H301    1.082   .     S
C285   N311    1.365   .     A
C285   C350    1.413   .     S
C286   O316    1.290   .     A
C286   O317    1.291   .     A
C287   O319    1.295   .     A
C287   C289    1.463   .     S
C287   O318    1.292   .     A
C288   C863    1.404   1_554 S
C288   H897    1.084   1_554 S
C290   C291    1.386   .     A
C290   H305    1.082   .     S
C291   C886    1.390   .     S
C291   H901    1.083   .     S
C292   H306    1.077   .     S
C292   C885    1.390   1_554 S
C292   C860    1.418   1_554 S
Cu293  N310    2.010   .     S
Cu293  Cu294   2.675   .     S
Cu293  O314    1.955   .     S
Cu293  O318    1.941   .     S
Cu293  O312    1.964   .     S
Cu293  O316    1.964   .     S
Cu294  O315    1.941   .     S
Cu294  O313    1.964   .     S
Cu294  O317    1.964   .     S
Cu294  N311    2.010   .     S
Cu294  O319    1.955   .     S
H303   C882    1.084   .     S
H307   C885    1.083   1_554 S
C321   H323    1.114   .     S
C321   C324    1.535   .     S
C321   O386    1.415   .     S
C321   H388    1.111   .     S
C324   C327    1.525   .     S
C324   H326    1.110   .     S
C324   H391    1.112   .     S
C327   H329    1.111   .     S
C327   H330    1.111   .     S
C327   H328    1.111   .     S
C331   C347    1.449   .     S
C331   O378    1.291   .     A
C331   O379    1.290   .     A
C332   C333    1.419   .     A
C332   C928    1.424   .     S
C332   C952    1.418   .     S
C333   C340    1.422   .     A
C333   C337    1.414   .     A
C334   C338    1.401   .     A
C334   C926    1.424   1_554 S
C334   C929    1.420   1_554 S
C335   C336    1.391   .     A
C335   C928    1.420   .     S
C335   C948    1.404   .     S
C336   H368    1.084   .     S
C336   C337    1.386   .     A
C337   H374    1.079   .     S
C338   C355    1.397   .     A
C338   H370    1.076   .     S
C339   C354    1.392   .     A
C339   C355    1.399   .     A
C339   H361    1.083   .     S
C340   C356    1.403   .     A
C340   C342    1.474   .     S
C341   H375    1.083   .     S
C341   C347    1.401   .     A
C341   C541    1.383   .     S
C342   O380    1.299   .     A
C342   O381    1.293   .     A
C343   H362    1.083   .     S
C343   C344    1.401   .     A
C344   C352    1.449   .     S
C344   C345    1.401   .     A
C345   H363    1.083   .     S
C346   H364    1.083   .     S
C346   C347    1.401   .     A
C346   C543    1.383   .     S
C348   H365    1.078   .     S
C348   N377    1.363   .     A
C348   C217    1.438   1_655 S
C349   O386    1.398   .     S
C349   N376    1.375   .     A
C350   N376    1.366   .     A
C350   H366    1.082   .     S
C351   H367    1.082   .     S
C351   N377    1.365   .     A
C351   C218    1.413   1_655 S
C352   O382    1.290   .     A
C352   O383    1.291   .     A
C353   O385    1.295   .     A
C353   C355    1.463   .     S
C353   O384    1.292   .     A
C354   C929    1.404   1_554 S
C354   H963    1.084   1_554 S
C356   C357    1.386   .     A
C356   H371    1.082   .     S
C357   C952    1.390   .     S
C357   H967    1.083   .     S
C358   H372    1.077   .     S
C358   C951    1.390   1_554 S
C358   C926    1.418   1_554 S
Cu359  N376    2.010   .     S
Cu359  Cu360   2.675   .     S
Cu359  O380    1.955   .     S
Cu359  O384    1.941   .     S
Cu359  O378    1.964   .     S
Cu359  O382    1.964   .     S
Cu360  O381    1.941   .     S
Cu360  O379    1.964   .     S
Cu360  O383    1.964   .     S
Cu360  N377    2.010   .     S
Cu360  O385    1.955   .     S
H369   C948    1.084   .     S
H373   C951    1.083   1_554 S
C387   H389    1.114   .     S
C387   C390    1.535   .     S
C387   O254    1.415   1_655 S
C387   H256    1.111   1_655 S
C390   C393    1.525   .     S
C390   H392    1.110   .     S
C390   H259    1.112   1_655 S
C393   H395    1.111   .     S
C393   H396    1.111   .     S
C393   H394    1.111   .     S
C397   C413    1.449   .     S
C397   O444    1.291   .     A
C397   O445    1.290   .     A
C398   C399    1.419   .     A
C398   C994    1.424   .     S
C398   C1018   1.418   .     S
C399   C406    1.422   .     A
C399   C403    1.414   .     A
C400   C404    1.401   .     A
C400   C992    1.424   1_554 S
C400   C995    1.420   1_554 S
C401   C402    1.391   .     A
C401   C994    1.420   .     S
C401   C1014   1.404   .     S
C402   H434    1.084   .     S
C402   C403    1.386   .     A
C403   H440    1.079   .     S
C404   C421    1.397   .     A
C404   H436    1.076   .     S
C405   C420    1.392   .     A
C405   C421    1.399   .     A
C405   H427    1.083   .     S
C406   C422    1.403   .     A
C406   C408    1.474   .     S
C407   H441    1.083   .     S
C407   C413    1.401   .     A
C407   C13     1.383   1_565 S
C408   O446    1.299   .     A
C408   O447    1.293   .     A
C409   H428    1.083   .     S
C409   C410    1.401   .     A
C410   C418    1.449   .     S
C410   C411    1.401   .     A
C411   H429    1.083   .     S
C412   H430    1.083   .     S
C412   C413    1.401   .     A
C412   C15     1.383   1_565 S
C414   H431    1.078   .     S
C414   N443    1.363   .     A
C414   C481    1.438   .     S
C415   O452    1.398   .     S
C415   N442    1.375   .     A
C415   C546    1.438   1_455 S
C416   N442    1.366   .     A
C416   H432    1.082   .     S
C416   C549    1.413   1_455 S
C417   H433    1.082   .     S
C417   N443    1.365   .     A
C417   C482    1.413   .     S
C418   O448    1.290   .     A
C418   O449    1.291   .     A
C419   O451    1.295   .     A
C419   C421    1.463   .     S
C419   O450    1.292   .     A
C420   C995    1.404   1_554 S
C420   H1029   1.084   1_554 S
C422   C423    1.386   .     A
C422   H437    1.082   .     S
C423   C1018   1.390   .     S
C423   H1033   1.083   .     S
C424   H438    1.077   .     S
C424   C1017   1.390   1_554 S
C424   C992    1.418   1_554 S
Cu425  N442    2.010   .     S
Cu425  Cu426   2.675   .     S
Cu425  O446    1.955   .     S
Cu425  O450    1.941   .     S
Cu425  O444    1.964   .     S
Cu425  O448    1.964   .     S
Cu426  O447    1.941   .     S
Cu426  O445    1.964   .     S
Cu426  O449    1.964   .     S
Cu426  N443    2.010   .     S
Cu426  O451    1.955   .     S
H435   C1014   1.084   .     S
H439   C1017   1.083   1_554 S
O452   C585    1.415   1_455 S
C453   H455    1.114   .     S
C453   C456    1.535   .     S
C453   O518    1.415   .     S
C453   H520    1.111   .     S
H454   C585    1.111   1_455 S
C456   C459    1.525   .     S
C456   H458    1.110   .     S
C456   H523    1.112   .     S
H457   C588    1.112   1_455 S
C459   H461    1.111   .     S
C459   H462    1.111   .     S
C459   H460    1.111   .     S
C463   C479    1.449   .     S
C463   O510    1.291   .     A
C463   O511    1.290   .     A
C464   C465    1.419   .     A
C464   C1060   1.424   .     S
C464   C1084   1.418   .     S
C465   C472    1.422   .     A
C465   C469    1.414   .     A
C466   C470    1.401   .     A
C466   C1058   1.424   1_554 S
C466   C1061   1.420   1_554 S
C467   C468    1.391   .     A
C467   C1060   1.420   .     S
C467   C1080   1.404   .     S
C468   H500    1.084   .     S
C468   C469    1.386   .     A
C469   H506    1.079   .     S
C470   C487    1.397   .     A
C470   H502    1.076   .     S
C471   C486    1.392   .     A
C471   C487    1.399   .     A
C471   H493    1.083   .     S
C472   C488    1.403   .     A
C472   C474    1.474   .     S
C473   H507    1.083   .     S
C473   C479    1.401   .     A
C473   C79     1.383   1_565 S
C474   O512    1.299   .     A
C474   O513    1.293   .     A
C475   H494    1.083   .     S
C475   C476    1.401   .     A
C476   C484    1.449   .     S
C476   C477    1.401   .     A
C477   H495    1.083   .     S
C478   H496    1.083   .     S
C478   C479    1.401   .     A
C478   C81     1.383   1_565 S
C480   H497    1.078   .     S
C480   N509    1.363   .     A
C480   C547    1.438   .     S
C481   O518    1.398   .     S
C481   N508    1.375   .     A
C482   N508    1.366   .     A
C482   H498    1.082   .     S
C483   H499    1.082   .     S
C483   N509    1.365   .     A
C483   C548    1.413   .     S
C484   O514    1.290   .     A
C484   O515    1.291   .     A
C485   O517    1.295   .     A
C485   C487    1.463   .     S
C485   O516    1.292   .     A
C486   C1061   1.404   1_554 S
C486   H1095   1.084   1_554 S
C488   C489    1.386   .     A
C488   H503    1.082   .     S
C489   C1084   1.390   .     S
C489   H1099   1.083   .     S
C490   H504    1.077   .     S
C490   C1083   1.390   1_554 S
C490   C1058   1.418   1_554 S
Cu491  N508    2.010   .     S
Cu491  Cu492   2.675   .     S
Cu491  O512    1.955   .     S
Cu491  O516    1.941   .     S
Cu491  O510    1.964   .     S
Cu491  O514    1.964   .     S
Cu492  O513    1.941   .     S
Cu492  O511    1.964   .     S
Cu492  O515    1.964   .     S
Cu492  N509    2.010   .     S
Cu492  O517    1.955   .     S
H501   C1080   1.084   .     S
H505   C1083   1.083   1_554 S
C519   H521    1.114   .     S
C519   C522    1.535   .     S
C519   O584    1.415   .     S
C519   H586    1.111   .     S
C522   C525    1.525   .     S
C522   H524    1.110   .     S
C522   H589    1.112   .     S
C525   H527    1.111   .     S
C525   H528    1.111   .     S
C525   H526    1.111   .     S
C529   C545    1.449   .     S
C529   O576    1.291   .     A
C529   O577    1.290   .     A
C530   C531    1.419   .     A
C530   C1126   1.424   .     S
C530   C1150   1.418   .     S
C531   C538    1.422   .     A
C531   C535    1.414   .     A
C532   C536    1.401   .     A
C532   C1124   1.424   1_554 S
C532   C1127   1.420   1_554 S
C533   C534    1.391   .     A
C533   C1126   1.420   .     S
C533   C1146   1.404   .     S
C534   H566    1.084   .     S
C534   C535    1.386   .     A
C535   H572    1.079   .     S
C536   C553    1.397   .     A
C536   H568    1.076   .     S
C537   C552    1.392   .     A
C537   C553    1.399   .     A
C537   H559    1.083   .     S
C538   C554    1.403   .     A
C538   C540    1.474   .     S
C539   H573    1.083   .     S
C539   C545    1.401   .     A
C539   C145    1.383   1_565 S
C540   O578    1.299   .     A
C540   O579    1.293   .     A
C541   H560    1.083   .     S
C541   C542    1.401   .     A
C542   C550    1.449   .     S
C542   C543    1.401   .     A
C543   H561    1.083   .     S
C544   H562    1.083   .     S
C544   C545    1.401   .     A
C544   C147    1.383   1_565 S
C546   H563    1.078   .     S
C546   N575    1.363   .     A
C546   C415    1.438   1_655 S
C547   O584    1.398   .     S
C547   N574    1.375   .     A
C548   N574    1.366   .     A
C548   H564    1.082   .     S
C549   H565    1.082   .     S
C549   N575    1.365   .     A
C549   C416    1.413   1_655 S
C550   O580    1.290   .     A
C550   O581    1.291   .     A
C551   O583    1.295   .     A
C551   C553    1.463   .     S
C551   O582    1.292   .     A
C552   C1127   1.404   1_554 S
C552   H1161   1.084   1_554 S
C554   C555    1.386   .     A
C554   H569    1.082   .     S
C555   C1150   1.390   .     S
C555   H1165   1.083   .     S
C556   H570    1.077   .     S
C556   C1149   1.390   1_554 S
C556   C1124   1.418   1_554 S
Cu557  N574    2.010   .     S
Cu557  Cu558   2.675   .     S
Cu557  O578    1.955   .     S
Cu557  O582    1.941   .     S
Cu557  O576    1.964   .     S
Cu557  O580    1.964   .     S
Cu558  O579    1.941   .     S
Cu558  O577    1.964   .     S
Cu558  O581    1.964   .     S
Cu558  N575    2.010   .     S
Cu558  O583    1.955   .     S
H567   C1146   1.084   .     S
H571   C1149   1.083   1_554 S
C585   H587    1.114   .     S
C585   C588    1.535   .     S
C585   O452    1.415   1_655 S
C585   H454    1.111   1_655 S
C588   C591    1.525   .     S
C588   H590    1.110   .     S
C588   H457    1.112   1_655 S
C591   H593    1.111   .     S
C591   H594    1.111   .     S
C591   H592    1.111   .     S
C595   C611    1.449   .     S
C595   O642    1.291   .     A
C595   O643    1.290   .     A
C596   C597    1.419   .     A
C596   C4      1.424   1_556 S
C596   C28     1.418   1_556 S
C597   C604    1.422   .     A
C597   C601    1.414   .     A
C598   C602    1.401   .     A
C599   C600    1.391   .     A
C599   C4      1.420   1_556 S
C599   C24     1.404   1_556 S
C600   H632    1.084   .     S
C600   C601    1.386   .     A
C601   H638    1.079   .     S
C602   C619    1.397   .     A
C602   H634    1.076   .     S
C603   C618    1.392   .     A
C603   C619    1.399   .     A
C603   H625    1.083   .     S
C604   C620    1.403   .     A
C604   C606    1.474   .     S
C605   H639    1.083   .     S
C605   C611    1.401   .     A
C605   C805    1.383   .     S
C606   O644    1.299   .     A
C606   O645    1.293   .     A
C607   H626    1.083   .     S
C607   C608    1.401   .     A
C607   C1001   1.383   1_545 S
C608   C616    1.449   .     S
C608   C609    1.401   .     A
C609   H627    1.083   .     S
C609   C1006   1.383   1_545 S
C610   H628    1.083   .     S
C610   C611    1.401   .     A
C610   C807    1.383   .     S
C612   H629    1.078   .     S
C612   N641    1.363   .     A
C612   C679    1.438   .     S
C613   O650    1.398   .     S
C613   N640    1.375   .     A
C613   C744    1.438   1_455 S
C614   N640    1.366   .     A
C614   H630    1.082   .     S
C614   C747    1.413   1_455 S
C615   H631    1.082   .     S
C615   N641    1.365   .     A
C615   C680    1.413   .     S
C616   O646    1.290   .     A
C616   O647    1.291   .     A
C617   O649    1.295   .     A
C617   C619    1.463   .     S
C617   O648    1.292   .     A
C620   C621    1.386   .     A
C620   H635    1.082   .     S
C621   C28     1.390   1_556 S
C621   H43     1.083   1_556 S
C622   H636    1.077   .     S
Cu623  N640    2.010   .     S
Cu623  Cu624   2.675   .     S
Cu623  O644    1.955   .     S
Cu623  O648    1.941   .     S
Cu623  O642    1.964   .     S
Cu623  O646    1.964   .     S
Cu624  O645    1.941   .     S
Cu624  O643    1.964   .     S
Cu624  O647    1.964   .     S
Cu624  N641    2.010   .     S
Cu624  O649    1.955   .     S
H633   C24     1.084   1_556 S
O650   C783    1.415   1_455 S
C651   H653    1.114   .     S
C651   C654    1.535   .     S
C651   O716    1.415   .     S
C651   H718    1.111   .     S
H652   C783    1.111   1_455 S
C654   C657    1.525   .     S
C654   H656    1.110   .     S
C654   H721    1.112   .     S
H655   C786    1.112   1_455 S
C657   H659    1.111   .     S
C657   H660    1.111   .     S
C657   H658    1.111   .     S
C661   C677    1.449   .     S
C661   O708    1.291   .     A
C661   O709    1.290   .     A
C662   C663    1.419   .     A
C662   C70     1.424   1_556 S
C662   C94     1.418   1_556 S
C663   C670    1.422   .     A
C663   C667    1.414   .     A
C664   C668    1.401   .     A
C665   C666    1.391   .     A
C665   C70     1.420   1_556 S
C665   C90     1.404   1_556 S
C666   H698    1.084   .     S
C666   C667    1.386   .     A
C667   H704    1.079   .     S
C668   C685    1.397   .     A
C668   H700    1.076   .     S
C669   C684    1.392   .     A
C669   C685    1.399   .     A
C669   H691    1.083   .     S
C670   C686    1.403   .     A
C670   C672    1.474   .     S
C671   H705    1.083   .     S
C671   C677    1.401   .     A
C671   C871    1.383   .     S
C672   O710    1.299   .     A
C672   O711    1.293   .     A
C673   H692    1.083   .     S
C673   C674    1.401   .     A
C673   C1067   1.383   1_545 S
C674   C682    1.449   .     S
C674   C675    1.401   .     A
C675   H693    1.083   .     S
C675   C1072   1.383   1_545 S
C676   H694    1.083   .     S
C676   C677    1.401   .     A
C676   C873    1.383   .     S
C678   H695    1.078   .     S
C678   N707    1.363   .     A
C678   C745    1.438   .     S
C679   O716    1.398   .     S
C679   N706    1.375   .     A
C680   N706    1.366   .     A
C680   H696    1.082   .     S
C681   H697    1.082   .     S
C681   N707    1.365   .     A
C681   C746    1.413   .     S
C682   O712    1.290   .     A
C682   O713    1.291   .     A
C683   O715    1.295   .     A
C683   C685    1.463   .     S
C683   O714    1.292   .     A
C686   C687    1.386   .     A
C686   H701    1.082   .     S
C687   C94     1.390   1_556 S
C687   H109    1.083   1_556 S
C688   H702    1.077   .     S
Cu689  N706    2.010   .     S
Cu689  Cu690   2.675   .     S
Cu689  O710    1.955   .     S
Cu689  O714    1.941   .     S
Cu689  O708    1.964   .     S
Cu689  O712    1.964   .     S
Cu690  O711    1.941   .     S
Cu690  O709    1.964   .     S
Cu690  O713    1.964   .     S
Cu690  N707    2.010   .     S
Cu690  O715    1.955   .     S
H699   C90     1.084   1_556 S
C717   H719    1.114   .     S
C717   C720    1.535   .     S
C717   O782    1.415   .     S
C717   H784    1.111   .     S
C720   C723    1.525   .     S
C720   H722    1.110   .     S
C720   H787    1.112   .     S
C723   H725    1.111   .     S
C723   H726    1.111   .     S
C723   H724    1.111   .     S
C727   C743    1.449   .     S
C727   O774    1.291   .     A
C727   O775    1.290   .     A
C728   C729    1.419   .     A
C728   C136    1.424   1_556 S
C728   C160    1.418   1_556 S
C729   C736    1.422   .     A
C729   C733    1.414   .     A
C730   C734    1.401   .     A
C731   C732    1.391   .     A
C731   C136    1.420   1_556 S
C731   C156    1.404   1_556 S
C732   H764    1.084   .     S
C732   C733    1.386   .     A
C733   H770    1.079   .     S
C734   C751    1.397   .     A
C734   H766    1.076   .     S
C735   C750    1.392   .     A
C735   C751    1.399   .     A
C735   H757    1.083   .     S
C736   C752    1.403   .     A
C736   C738    1.474   .     S
C737   H771    1.083   .     S
C737   C743    1.401   .     A
C737   C937    1.383   .     S
C738   O776    1.299   .     A
C738   O777    1.293   .     A
C739   H758    1.083   .     S
C739   C740    1.401   .     A
C739   C1133   1.383   1_545 S
C740   C748    1.449   .     S
C740   C741    1.401   .     A
C741   H759    1.083   .     S
C741   C1138   1.383   1_545 S
C742   H760    1.083   .     S
C742   C743    1.401   .     A
C742   C939    1.383   .     S
C744   H761    1.078   .     S
C744   N773    1.363   .     A
C744   C613    1.438   1_655 S
C745   O782    1.398   .     S
C745   N772    1.375   .     A
C746   N772    1.366   .     A
C746   H762    1.082   .     S
C747   H763    1.082   .     S
C747   N773    1.365   .     A
C747   C614    1.413   1_655 S
C748   O778    1.290   .     A
C748   O779    1.291   .     A
C749   O781    1.295   .     A
C749   C751    1.463   .     S
C749   O780    1.292   .     A
C752   C753    1.386   .     A
C752   H767    1.082   .     S
C753   C160    1.390   1_556 S
C753   H175    1.083   1_556 S
C754   H768    1.077   .     S
Cu755  N772    2.010   .     S
Cu755  Cu756   2.675   .     S
Cu755  O776    1.955   .     S
Cu755  O780    1.941   .     S
Cu755  O774    1.964   .     S
Cu755  O778    1.964   .     S
Cu756  O777    1.941   .     S
Cu756  O775    1.964   .     S
Cu756  O779    1.964   .     S
Cu756  N773    2.010   .     S
Cu756  O781    1.955   .     S
H765   C156    1.084   1_556 S
C783   H785    1.114   .     S
C783   C786    1.535   .     S
C783   O650    1.415   1_655 S
C783   H652    1.111   1_655 S
C786   C789    1.525   .     S
C786   H788    1.110   .     S
C786   H655    1.112   1_655 S
C789   H791    1.111   .     S
C789   H792    1.111   .     S
C789   H790    1.111   .     S
C793   C809    1.449   .     S
C793   O840    1.291   .     A
C793   O841    1.290   .     A
C794   C795    1.419   .     A
C794   C202    1.424   1_556 S
C794   C226    1.418   1_556 S
C795   C802    1.422   .     A
C795   C799    1.414   .     A
C796   C800    1.401   .     A
C797   C798    1.391   .     A
C797   C202    1.420   1_556 S
C797   C222    1.404   1_556 S
C798   H830    1.084   .     S
C798   C799    1.386   .     A
C799   H836    1.079   .     S
C800   C817    1.397   .     A
C800   H832    1.076   .     S
C801   C816    1.392   .     A
C801   C817    1.399   .     A
C801   H823    1.083   .     S
C802   C818    1.403   .     A
C802   C804    1.474   .     S
C803   H837    1.083   .     S
C803   C809    1.401   .     A
C803   C1003   1.383   .     S
C804   O842    1.299   .     A
C804   O843    1.293   .     A
C805   H824    1.083   .     S
C805   C806    1.401   .     A
C806   C814    1.449   .     S
C806   C807    1.401   .     A
C807   H825    1.083   .     S
C808   H826    1.083   .     S
C808   C809    1.401   .     A
C808   C1005   1.383   .     S
C810   H827    1.078   .     S
C810   N839    1.363   .     A
C810   C877    1.438   .     S
C811   O848    1.398   .     S
C811   N838    1.375   .     A
C811   C942    1.438   1_455 S
C812   N838    1.366   .     A
C812   H828    1.082   .     S
C812   C945    1.413   1_455 S
C813   H829    1.082   .     S
C813   N839    1.365   .     A
C813   C878    1.413   .     S
C814   O844    1.290   .     A
C814   O845    1.291   .     A
C815   O847    1.295   .     A
C815   C817    1.463   .     S
C815   O846    1.292   .     A
C818   C819    1.386   .     A
C818   H833    1.082   .     S
C819   C226    1.390   1_556 S
C819   H241    1.083   1_556 S
C820   H834    1.077   .     S
Cu821  N838    2.010   .     S
Cu821  Cu822   2.675   .     S
Cu821  O842    1.955   .     S
Cu821  O846    1.941   .     S
Cu821  O840    1.964   .     S
Cu821  O844    1.964   .     S
Cu822  O843    1.941   .     S
Cu822  O841    1.964   .     S
Cu822  O845    1.964   .     S
Cu822  N839    2.010   .     S
Cu822  O847    1.955   .     S
H831   C222    1.084   1_556 S
O848   C981    1.415   1_455 S
C849   H851    1.114   .     S
C849   C852    1.535   .     S
C849   O914    1.415   .     S
C849   H916    1.111   .     S
H850   C981    1.111   1_455 S
C852   C855    1.525   .     S
C852   H854    1.110   .     S
C852   H919    1.112   .     S
H853   C984    1.112   1_455 S
C855   H857    1.111   .     S
C855   H858    1.111   .     S
C855   H856    1.111   .     S
C859   C875    1.449   .     S
C859   O906    1.291   .     A
C859   O907    1.290   .     A
C860   C861    1.419   .     A
C860   C268    1.424   1_556 S
C860   C292    1.418   1_556 S
C861   C868    1.422   .     A
C861   C865    1.414   .     A
C862   C866    1.401   .     A
C863   C864    1.391   .     A
C863   C268    1.420   1_556 S
C863   C288    1.404   1_556 S
C864   H896    1.084   .     S
C864   C865    1.386   .     A
C865   H902    1.079   .     S
C866   C883    1.397   .     A
C866   H898    1.076   .     S
C867   C882    1.392   .     A
C867   C883    1.399   .     A
C867   H889    1.083   .     S
C868   C884    1.403   .     A
C868   C870    1.474   .     S
C869   H903    1.083   .     S
C869   C875    1.401   .     A
C869   C1069   1.383   .     S
C870   O908    1.299   .     A
C870   O909    1.293   .     A
C871   H890    1.083   .     S
C871   C872    1.401   .     A
C872   C880    1.449   .     S
C872   C873    1.401   .     A
C873   H891    1.083   .     S
C874   H892    1.083   .     S
C874   C875    1.401   .     A
C874   C1071   1.383   .     S
C876   H893    1.078   .     S
C876   N905    1.363   .     A
C876   C943    1.438   .     S
C877   O914    1.398   .     S
C877   N904    1.375   .     A
C878   N904    1.366   .     A
C878   H894    1.082   .     S
C879   H895    1.082   .     S
C879   N905    1.365   .     A
C879   C944    1.413   .     S
C880   O910    1.290   .     A
C880   O911    1.291   .     A
C881   O913    1.295   .     A
C881   C883    1.463   .     S
C881   O912    1.292   .     A
C884   C885    1.386   .     A
C884   H899    1.082   .     S
C885   C292    1.390   1_556 S
C885   H307    1.083   1_556 S
C886   H900    1.077   .     S
Cu887  N904    2.010   .     S
Cu887  Cu888   2.675   .     S
Cu887  O908    1.955   .     S
Cu887  O912    1.941   .     S
Cu887  O906    1.964   .     S
Cu887  O910    1.964   .     S
Cu888  O909    1.941   .     S
Cu888  O907    1.964   .     S
Cu888  O911    1.964   .     S
Cu888  N905    2.010   .     S
Cu888  O913    1.955   .     S
H897   C288    1.084   1_556 S
C915   H917    1.114   .     S
C915   C918    1.535   .     S
C915   O980    1.415   .     S
C915   H982    1.111   .     S
C918   C921    1.525   .     S
C918   H920    1.110   .     S
C918   H985    1.112   .     S
C921   H923    1.111   .     S
C921   H924    1.111   .     S
C921   H922    1.111   .     S
C925   C941    1.449   .     S
C925   O972    1.291   .     A
C925   O973    1.290   .     A
C926   C927    1.419   .     A
C926   C334    1.424   1_556 S
C926   C358    1.418   1_556 S
C927   C934    1.422   .     A
C927   C931    1.414   .     A
C928   C932    1.401   .     A
C929   C930    1.391   .     A
C929   C334    1.420   1_556 S
C929   C354    1.404   1_556 S
C930   H962    1.084   .     S
C930   C931    1.386   .     A
C931   H968    1.079   .     S
C932   C949    1.397   .     A
C932   H964    1.076   .     S
C933   C948    1.392   .     A
C933   C949    1.399   .     A
C933   H955    1.083   .     S
C934   C950    1.403   .     A
C934   C936    1.474   .     S
C935   H969    1.083   .     S
C935   C941    1.401   .     A
C935   C1135   1.383   .     S
C936   O974    1.299   .     A
C936   O975    1.293   .     A
C937   H956    1.083   .     S
C937   C938    1.401   .     A
C938   C946    1.449   .     S
C938   C939    1.401   .     A
C939   H957    1.083   .     S
C940   H958    1.083   .     S
C940   C941    1.401   .     A
C940   C1137   1.383   .     S
C942   H959    1.078   .     S
C942   N971    1.363   .     A
C942   C811    1.438   1_655 S
C943   O980    1.398   .     S
C943   N970    1.375   .     A
C944   N970    1.366   .     A
C944   H960    1.082   .     S
C945   H961    1.082   .     S
C945   N971    1.365   .     A
C945   C812    1.413   1_655 S
C946   O976    1.290   .     A
C946   O977    1.291   .     A
C947   O979    1.295   .     A
C947   C949    1.463   .     S
C947   O978    1.292   .     A
C950   C951    1.386   .     A
C950   H965    1.082   .     S
C951   C358    1.390   1_556 S
C951   H373    1.083   1_556 S
C952   H966    1.077   .     S
Cu953  N970    2.010   .     S
Cu953  Cu954   2.675   .     S
Cu953  O974    1.955   .     S
Cu953  O978    1.941   .     S
Cu953  O972    1.964   .     S
Cu953  O976    1.964   .     S
Cu954  O975    1.941   .     S
Cu954  O973    1.964   .     S
Cu954  O977    1.964   .     S
Cu954  N971    2.010   .     S
Cu954  O979    1.955   .     S
H963   C354    1.084   1_556 S
C981   H983    1.114   .     S
C981   C984    1.535   .     S
C981   O848    1.415   1_655 S
C981   H850    1.111   1_655 S
C984   C987    1.525   .     S
C984   H986    1.110   .     S
C984   H853    1.112   1_655 S
C987   H989    1.111   .     S
C987   H990    1.111   .     S
C987   H988    1.111   .     S
C991   C1007   1.449   .     S
C991   O1038   1.291   .     A
C991   O1039   1.290   .     A
C992   C993    1.419   .     A
C992   C400    1.424   1_556 S
C992   C424    1.418   1_556 S
C993   C1000   1.422   .     A
C993   C997    1.414   .     A
C994   C998    1.401   .     A
C995   C996    1.391   .     A
C995   C400    1.420   1_556 S
C995   C420    1.404   1_556 S
C996   H1028   1.084   .     S
C996   C997    1.386   .     A
C997   H1034   1.079   .     S
C998   C1015   1.397   .     A
C998   H1030   1.076   .     S
C999   C1014   1.392   .     A
C999   C1015   1.399   .     A
C999   H1021   1.083   .     S
C1000  C1016   1.403   .     A
C1000  C1002   1.474   .     S
C1001  H1035   1.083   .     S
C1001  C1007   1.401   .     A
C1001  C607    1.383   1_565 S
C1002  O1040   1.299   .     A
C1002  O1041   1.293   .     A
C1003  H1022   1.083   .     S
C1003  C1004   1.401   .     A
C1004  C1012   1.449   .     S
C1004  C1005   1.401   .     A
C1005  H1023   1.083   .     S
C1006  H1024   1.083   .     S
C1006  C1007   1.401   .     A
C1006  C609    1.383   1_565 S
C1008  H1025   1.078   .     S
C1008  N1037   1.363   .     A
C1008  C1075   1.438   .     S
C1009  O1046   1.398   .     S
C1009  N1036   1.375   .     A
C1009  C1140   1.438   1_455 S
C1010  N1036   1.366   .     A
C1010  H1026   1.082   .     S
C1010  C1143   1.413   1_455 S
C1011  H1027   1.082   .     S
C1011  N1037   1.365   .     A
C1011  C1076   1.413   .     S
C1012  O1042   1.290   .     A
C1012  O1043   1.291   .     A
C1013  O1045   1.295   .     A
C1013  C1015   1.463   .     S
C1013  O1044   1.292   .     A
C1016  C1017   1.386   .     A
C1016  H1031   1.082   .     S
C1017  C424    1.390   1_556 S
C1017  H439    1.083   1_556 S
C1018  H1032   1.077   .     S
Cu1019 N1036   2.010   .     S
Cu1019 Cu1020  2.675   .     S
Cu1019 O1040   1.955   .     S
Cu1019 O1044   1.941   .     S
Cu1019 O1038   1.964   .     S
Cu1019 O1042   1.964   .     S
Cu1020 O1041   1.941   .     S
Cu1020 O1039   1.964   .     S
Cu1020 O1043   1.964   .     S
Cu1020 N1037   2.010   .     S
Cu1020 O1045   1.955   .     S
H1029  C420    1.084   1_556 S
O1046  C1179   1.415   1_455 S
C1047  H1049   1.114   .     S
C1047  C1050   1.535   .     S
C1047  O1112   1.415   .     S
C1047  H1114   1.111   .     S
H1048  C1179   1.111   1_455 S
C1050  C1053   1.525   .     S
C1050  H1052   1.110   .     S
C1050  H1117   1.112   .     S
H1051  C1182   1.112   1_455 S
C1053  H1055   1.111   .     S
C1053  H1056   1.111   .     S
C1053  H1054   1.111   .     S
C1057  C1073   1.449   .     S
C1057  O1104   1.291   .     A
C1057  O1105   1.290   .     A
C1058  C1059   1.419   .     A
C1058  C466    1.424   1_556 S
C1058  C490    1.418   1_556 S
C1059  C1066   1.422   .     A
C1059  C1063   1.414   .     A
C1060  C1064   1.401   .     A
C1061  C1062   1.391   .     A
C1061  C466    1.420   1_556 S
C1061  C486    1.404   1_556 S
C1062  H1094   1.084   .     S
C1062  C1063   1.386   .     A
C1063  H1100   1.079   .     S
C1064  C1081   1.397   .     A
C1064  H1096   1.076   .     S
C1065  C1080   1.392   .     A
C1065  C1081   1.399   .     A
C1065  H1087   1.083   .     S
C1066  C1082   1.403   .     A
C1066  C1068   1.474   .     S
C1067  H1101   1.083   .     S
C1067  C1073   1.401   .     A
C1067  C673    1.383   1_565 S
C1068  O1106   1.299   .     A
C1068  O1107   1.293   .     A
C1069  H1088   1.083   .     S
C1069  C1070   1.401   .     A
C1070  C1078   1.449   .     S
C1070  C1071   1.401   .     A
C1071  H1089   1.083   .     S
C1072  H1090   1.083   .     S
C1072  C1073   1.401   .     A
C1072  C675    1.383   1_565 S
C1074  H1091   1.078   .     S
C1074  N1103   1.363   .     A
C1074  C1141   1.438   .     S
C1075  O1112   1.398   .     S
C1075  N1102   1.375   .     A
C1076  N1102   1.366   .     A
C1076  H1092   1.082   .     S
C1077  H1093   1.082   .     S
C1077  N1103   1.365   .     A
C1077  C1142   1.413   .     S
C1078  O1108   1.290   .     A
C1078  O1109   1.291   .     A
C1079  O1111   1.295   .     A
C1079  C1081   1.463   .     S
C1079  O1110   1.292   .     A
C1082  C1083   1.386   .     A
C1082  H1097   1.082   .     S
C1083  C490    1.390   1_556 S
C1083  H505    1.083   1_556 S
C1084  H1098   1.077   .     S
Cu1085 N1102   2.010   .     S
Cu1085 Cu1086  2.675   .     S
Cu1085 O1106   1.955   .     S
Cu1085 O1110   1.941   .     S
Cu1085 O1104   1.964   .     S
Cu1085 O1108   1.964   .     S
Cu1086 O1107   1.941   .     S
Cu1086 O1105   1.964   .     S
Cu1086 O1109   1.964   .     S
Cu1086 N1103   2.010   .     S
Cu1086 O1111   1.955   .     S
H1095  C486    1.084   1_556 S
C1113  H1115   1.114   .     S
C1113  C1116   1.535   .     S
C1113  O1178   1.415   .     S
C1113  H1180   1.111   .     S
C1116  C1119   1.525   .     S
C1116  H1118   1.110   .     S
C1116  H1183   1.112   .     S
C1119  H1121   1.111   .     S
C1119  H1122   1.111   .     S
C1119  H1120   1.111   .     S
C1123  C1139   1.449   .     S
C1123  O1170   1.291   .     A
C1123  O1171   1.290   .     A
C1124  C1125   1.419   .     A
C1124  C532    1.424   1_556 S
C1124  C556    1.418   1_556 S
C1125  C1132   1.422   .     A
C1125  C1129   1.414   .     A
C1126  C1130   1.401   .     A
C1127  C1128   1.391   .     A
C1127  C532    1.420   1_556 S
C1127  C552    1.404   1_556 S
C1128  H1160   1.084   .     S
C1128  C1129   1.386   .     A
C1129  H1166   1.079   .     S
C1130  C1147   1.397   .     A
C1130  H1162   1.076   .     S
C1131  C1146   1.392   .     A
C1131  C1147   1.399   .     A
C1131  H1153   1.083   .     S
C1132  C1148   1.403   .     A
C1132  C1134   1.474   .     S
C1133  H1167   1.083   .     S
C1133  C1139   1.401   .     A
C1133  C739    1.383   1_565 S
C1134  O1172   1.299   .     A
C1134  O1173   1.293   .     A
C1135  H1154   1.083   .     S
C1135  C1136   1.401   .     A
C1136  C1144   1.449   .     S
C1136  C1137   1.401   .     A
C1137  H1155   1.083   .     S
C1138  H1156   1.083   .     S
C1138  C1139   1.401   .     A
C1138  C741    1.383   1_565 S
C1140  H1157   1.078   .     S
C1140  N1169   1.363   .     A
C1140  C1009   1.438   1_655 S
C1141  O1178   1.398   .     S
C1141  N1168   1.375   .     A
C1142  N1168   1.366   .     A
C1142  H1158   1.082   .     S
C1143  H1159   1.082   .     S
C1143  N1169   1.365   .     A
C1143  C1010   1.413   1_655 S
C1144  O1174   1.290   .     A
C1144  O1175   1.291   .     A
C1145  O1177   1.295   .     A
C1145  C1147   1.463   .     S
C1145  O1176   1.292   .     A
C1148  C1149   1.386   .     A
C1148  H1163   1.082   .     S
C1149  C556    1.390   1_556 S
C1149  H571    1.083   1_556 S
C1150  H1164   1.077   .     S
Cu1151 N1168   2.010   .     S
Cu1151 Cu1152  2.675   .     S
Cu1151 O1172   1.955   .     S
Cu1151 O1176   1.941   .     S
Cu1151 O1170   1.964   .     S
Cu1151 O1174   1.964   .     S
Cu1152 O1173   1.941   .     S
Cu1152 O1171   1.964   .     S
Cu1152 O1175   1.964   .     S
Cu1152 N1169   2.010   .     S
Cu1152 O1177   1.955   .     S
H1161  C552    1.084   1_556 S
C1179  H1181   1.114   .     S
C1179  C1182   1.535   .     S
C1179  O1046   1.415   1_655 S
C1179  H1048   1.111   1_655 S
C1182  C1185   1.525   .     S
C1182  H1184   1.110   .     S
C1182  H1051   1.112   1_655 S
C1185  H1187   1.111   .     S
C1185  H1188   1.111   .     S
C1185  H1186   1.111   .     S
