data_str_m3_o1_o10_pcu_sym.45
_audit_creation_date              2020-01-03
_audit_creation_method            'Materials Studio'
_symmetry_space_group_name_H-M    'P1'
_symmetry_Int_Tables_number       1
_symmetry_cell_setting            triclinic
loop_
_symmetry_equiv_pos_as_xyz
  x,y,z
_cell_length_a                    25.7894
_cell_length_b                    32.3653
_cell_length_c                    29.8273
_cell_angle_alpha                 89.2896
_cell_angle_beta                  97.7408
_cell_angle_gamma                 93.3193
loop_
_atom_site_label
_atom_site_type_symbol
_atom_site_fract_x
_atom_site_fract_y
_atom_site_fract_z
_atom_site_U_iso_or_equiv
_atom_site_adp_type
_atom_site_occupancy
C1     C     0.16701   0.08642   0.16691   0.00000  Uiso   1.00
C2     C     0.14997   0.01911   0.20493   0.00000  Uiso   1.00
C3     C     0.15134   0.28955   0.16322   0.00000  Uiso   1.00
C4     C     0.16362   0.04144   0.16650   0.00000  Uiso   1.00
C5     C     0.20404   0.19051   0.02768   0.00000  Uiso   1.00
C6     C     0.12834   0.14445   0.30522   0.00000  Uiso   1.00
C7     C     0.20586   0.18755   0.31311   0.00000  Uiso   1.00
C8     C     0.12933   0.14370   0.01970   0.00000  Uiso   1.00
C9     C     0.23546   0.04724   0.08307   0.00000  Uiso   1.00
C10    C     0.14119   0.27848   0.27736   0.00000  Uiso   1.00
C11    C     0.09682   0.28055   0.06174   0.00000  Uiso   1.00
C12    C     0.16093   0.24600   0.16563   0.00000  Uiso   1.00
C13    C     0.19411   0.04554   0.27680   0.00000  Uiso   1.00
C14    C     0.25944   0.25649   0.03966   0.00000  Uiso   1.00
C15    C     0.03528   0.12028   0.28222   0.00000  Uiso   1.00
C16    C     0.06742   0.16635   0.15513   0.00000  Uiso   1.00
C17    C     0.26598   0.16837   0.17803   0.00000  Uiso   1.00
C18    C     0.01271   0.16003   0.15037   0.00000  Uiso   1.00
C19    C     0.32061   0.17644   0.18173   0.00000  Uiso   1.00
C20    C     0.16674   0.02077   0.12530   0.00000  Uiso   1.00
C21    C     0.14034   0.30974   0.20183   0.00000  Uiso   1.00
C22    C     0.15669   0.31161   0.12303   0.00000  Uiso   1.00
H23    H     0.32329   0.14520   0.08454   0.00000  Uiso   1.00
H24    H     0.13383   0.30131   0.30287   0.00000  Uiso   1.00
H25    H     0.18378   0.27865   0.27542   0.00000  Uiso   1.00
H26    H     0.12761   0.24737   0.28849   0.00000  Uiso   1.00
H27    H     0.17303   0.30289   0.05675   0.00000  Uiso   1.00
H28    H     0.07650   0.30914   0.05115   0.00000  Uiso   1.00
H29    H     0.07566   0.26343   0.08695   0.00000  Uiso   1.00
H30    H     0.09591   0.26029   0.03187   0.00000  Uiso   1.00
H31    H     0.11414   0.02936   0.26239   0.00000  Uiso   1.00
H32    H     0.20825   0.01559   0.29031   0.00000  Uiso   1.00
H33    H     0.18757   0.06509   0.30562   0.00000  Uiso   1.00
H34    H     0.00797   0.10451   0.11832   0.00000  Uiso   1.00
H35    H     0.22510   0.06136   0.25925   0.00000  Uiso   1.00
H36    H     0.23563   0.21825   0.08802   0.00000  Uiso   1.00
H37    H     0.26829   0.27822   0.06860   0.00000  Uiso   1.00
H38    H     0.22848   0.26968   0.01524   0.00000  Uiso   1.00
H39    H     0.29640   0.25470   0.02480   0.00000  Uiso   1.00
H40    H     0.09818   0.10967   0.24696   0.00000  Uiso   1.00
H41    H     0.01208   0.12104   0.24819   0.00000  Uiso   1.00
H42    H     0.02775   0.14815   0.30119   0.00000  Uiso   1.00
H43    H     0.02159   0.09206   0.29971   0.00000  Uiso   1.00
H44    H     0.25047   0.23468   0.28836   0.00000  Uiso   1.00
H45    H     0.00470   0.19860   0.24583   0.00000  Uiso   1.00
H46    H     0.28492   0.19462   0.31357   0.00000  Uiso   1.00
H47    H     0.10668   0.09944   0.06372   0.00000  Uiso   1.00
H48    H     0.06318   0.13708   0.04907   0.00000  Uiso   1.00
H49    H     0.32724   0.23514   0.20557   0.00000  Uiso   1.00
H50    H     0.15695   0.03542   0.05603   0.00000  Uiso   1.00
H51    H     0.25054   0.01696   0.07588   0.00000  Uiso   1.00
H52    H     0.25718   0.05967   0.11520   0.00000  Uiso   1.00
H53    H     0.24235   0.06920   0.05530   0.00000  Uiso   1.00
H54    H     0.07548   0.29762   0.23544   0.00000  Uiso   1.00
N55    N     0.16665   0.16666   0.28573   0.00000  Uiso   1.00
N56    N     0.09044   0.11814   0.27814   0.00000  Uiso   1.00
N57    N     0.25075   0.20278   0.29327   0.00000  Uiso   1.00
N58    N     0.09008   0.11823   0.03794   0.00000  Uiso   1.00
N59    N     0.16668   0.16668   0.04760   0.00000  Uiso   1.00
N60    N     0.32093   0.13165   0.11622   0.00000  Uiso   1.00
N61    N     0.01187   0.20732   0.21335   0.00000  Uiso   1.00
N62    N     0.17997   0.04271   0.08620   0.00000  Uiso   1.00
N63    N     0.11244   0.28769   0.23372   0.00000  Uiso   1.00
N64    N     0.15067   0.29097   0.08041   0.00000  Uiso   1.00
N65    N     0.14552   0.03944   0.24633   0.00000  Uiso   1.00
N66    N     0.24272   0.21595   0.05550   0.00000  Uiso   1.00
O67    O     0.16666   0.10558   0.20487   0.00000  Uiso   1.00
O68    O     0.16667   0.22775   0.12846   0.00000  Uiso   1.00
O69    O     0.16666   0.10559   0.12843   0.00000  Uiso   1.00
O70    O     0.16667   0.22774   0.20490   0.00000  Uiso   1.00
O71    O     0.09058   0.16666   0.19595   0.00000  Uiso   1.00
O72    O     0.24275   0.16667   0.13739   0.00000  Uiso   1.00
O73    O     0.09058   0.16667   0.11950   0.00000  Uiso   1.00
O74    O     0.24275   0.16666   0.21383   0.00000  Uiso   1.00
Zn75   Zn    0.16667   0.16666   0.21771   0.00000  Uiso   1.00
Zn76   Zn    0.16667   0.16667   0.11563   0.00000  Uiso   1.00
C77    C     0.50034   0.08642   0.16691   0.00000  Uiso   1.00
C78    C     0.48330   0.01911   0.20493   0.00000  Uiso   1.00
C79    C     0.48467   0.28955   0.16322   0.00000  Uiso   1.00
C80    C     0.49696   0.04144   0.16650   0.00000  Uiso   1.00
C81    C     0.53737   0.19051   0.02768   0.00000  Uiso   1.00
C82    C     0.46167   0.14445   0.30522   0.00000  Uiso   1.00
C83    C     0.53919   0.18755   0.31311   0.00000  Uiso   1.00
C84    C     0.46267   0.14370   0.01970   0.00000  Uiso   1.00
C85    C     0.56879   0.04724   0.08307   0.00000  Uiso   1.00
C86    C     0.47452   0.27848   0.27736   0.00000  Uiso   1.00
C87    C     0.43016   0.28055   0.06174   0.00000  Uiso   1.00
C88    C     0.49426   0.24600   0.16563   0.00000  Uiso   1.00
C89    C     0.52744   0.04554   0.27680   0.00000  Uiso   1.00
C90    C     0.59277   0.25649   0.03966   0.00000  Uiso   1.00
C91    C     0.36862   0.12028   0.28222   0.00000  Uiso   1.00
C92    C     0.40075   0.16635   0.15513   0.00000  Uiso   1.00
C93    C     0.59931   0.16837   0.17803   0.00000  Uiso   1.00
C94    C     0.34604   0.16003   0.15037   0.00000  Uiso   1.00
C95    C     0.65394   0.17644   0.18173   0.00000  Uiso   1.00
C96    C     0.50007   0.02077   0.12530   0.00000  Uiso   1.00
C97    C     0.47367   0.30974   0.20183   0.00000  Uiso   1.00
C98    C     0.49003   0.31161   0.12303   0.00000  Uiso   1.00
H99    H     0.65662   0.14520   0.08454   0.00000  Uiso   1.00
H100   H     0.46717   0.30131   0.30287   0.00000  Uiso   1.00
H101   H     0.51712   0.27865   0.27542   0.00000  Uiso   1.00
H102   H     0.46094   0.24737   0.28849   0.00000  Uiso   1.00
H103   H     0.50636   0.30289   0.05675   0.00000  Uiso   1.00
H104   H     0.40983   0.30914   0.05115   0.00000  Uiso   1.00
H105   H     0.40900   0.26343   0.08695   0.00000  Uiso   1.00
H106   H     0.42925   0.26029   0.03187   0.00000  Uiso   1.00
H107   H     0.44747   0.02936   0.26239   0.00000  Uiso   1.00
H108   H     0.54158   0.01559   0.29031   0.00000  Uiso   1.00
H109   H     0.52091   0.06509   0.30562   0.00000  Uiso   1.00
H110   H     0.34130   0.10451   0.11832   0.00000  Uiso   1.00
H111   H     0.55843   0.06136   0.25925   0.00000  Uiso   1.00
H112   H     0.56896   0.21825   0.08802   0.00000  Uiso   1.00
H113   H     0.60162   0.27822   0.06860   0.00000  Uiso   1.00
H114   H     0.56181   0.26968   0.01524   0.00000  Uiso   1.00
H115   H     0.62974   0.25470   0.02480   0.00000  Uiso   1.00
H116   H     0.43152   0.10967   0.24696   0.00000  Uiso   1.00
H117   H     0.34541   0.12104   0.24819   0.00000  Uiso   1.00
H118   H     0.36108   0.14815   0.30119   0.00000  Uiso   1.00
H119   H     0.35492   0.09206   0.29971   0.00000  Uiso   1.00
H120   H     0.58380   0.23468   0.28836   0.00000  Uiso   1.00
H121   H     0.33804   0.19860   0.24583   0.00000  Uiso   1.00
H122   H     0.61825   0.19462   0.31357   0.00000  Uiso   1.00
H123   H     0.44001   0.09944   0.06372   0.00000  Uiso   1.00
H124   H     0.39651   0.13708   0.04907   0.00000  Uiso   1.00
H125   H     0.66057   0.23514   0.20557   0.00000  Uiso   1.00
H126   H     0.49029   0.03542   0.05603   0.00000  Uiso   1.00
H127   H     0.58387   0.01696   0.07588   0.00000  Uiso   1.00
H128   H     0.59051   0.05967   0.11520   0.00000  Uiso   1.00
H129   H     0.57568   0.06920   0.05530   0.00000  Uiso   1.00
H130   H     0.40881   0.29762   0.23544   0.00000  Uiso   1.00
N131   N     0.49999   0.16666   0.28573   0.00000  Uiso   1.00
N132   N     0.42378   0.11814   0.27814   0.00000  Uiso   1.00
N133   N     0.58408   0.20278   0.29327   0.00000  Uiso   1.00
N134   N     0.42342   0.11823   0.03794   0.00000  Uiso   1.00
N135   N     0.50001   0.16668   0.04760   0.00000  Uiso   1.00
N136   N     0.65426   0.13165   0.11622   0.00000  Uiso   1.00
N137   N     0.34520   0.20732   0.21335   0.00000  Uiso   1.00
N138   N     0.51330   0.04271   0.08620   0.00000  Uiso   1.00
N139   N     0.44577   0.28769   0.23372   0.00000  Uiso   1.00
N140   N     0.48401   0.29097   0.08041   0.00000  Uiso   1.00
N141   N     0.47885   0.03944   0.24633   0.00000  Uiso   1.00
N142   N     0.57606   0.21595   0.05550   0.00000  Uiso   1.00
O143   O     0.50000   0.10558   0.20487   0.00000  Uiso   1.00
O144   O     0.50000   0.22775   0.12846   0.00000  Uiso   1.00
O145   O     0.50000   0.10559   0.12843   0.00000  Uiso   1.00
O146   O     0.50000   0.22774   0.20490   0.00000  Uiso   1.00
O147   O     0.42392   0.16666   0.19595   0.00000  Uiso   1.00
O148   O     0.57608   0.16667   0.13739   0.00000  Uiso   1.00
O149   O     0.42392   0.16667   0.11950   0.00000  Uiso   1.00
O150   O     0.57608   0.16666   0.21383   0.00000  Uiso   1.00
Zn151  Zn    0.50000   0.16666   0.21771   0.00000  Uiso   1.00
Zn152  Zn    0.50000   0.16667   0.11563   0.00000  Uiso   1.00
C153   C     0.83368   0.08642   0.16691   0.00000  Uiso   1.00
C154   C     0.81663   0.01911   0.20493   0.00000  Uiso   1.00
C155   C     0.81800   0.28955   0.16322   0.00000  Uiso   1.00
C156   C     0.83029   0.04144   0.16650   0.00000  Uiso   1.00
C157   C     0.87070   0.19051   0.02768   0.00000  Uiso   1.00
C158   C     0.79501   0.14445   0.30522   0.00000  Uiso   1.00
C159   C     0.87253   0.18755   0.31311   0.00000  Uiso   1.00
C160   C     0.79600   0.14370   0.01970   0.00000  Uiso   1.00
C161   C     0.90212   0.04724   0.08307   0.00000  Uiso   1.00
C162   C     0.80786   0.27848   0.27736   0.00000  Uiso   1.00
C163   C     0.76349   0.28055   0.06174   0.00000  Uiso   1.00
C164   C     0.82760   0.24600   0.16563   0.00000  Uiso   1.00
C165   C     0.86078   0.04554   0.27680   0.00000  Uiso   1.00
C166   C     0.92610   0.25649   0.03966   0.00000  Uiso   1.00
C167   C     0.70195   0.12028   0.28222   0.00000  Uiso   1.00
C168   C     0.73408   0.16635   0.15513   0.00000  Uiso   1.00
C169   C     0.93264   0.16837   0.17803   0.00000  Uiso   1.00
C170   C     0.67938   0.16003   0.15037   0.00000  Uiso   1.00
C171   C     0.98728   0.17644   0.18173   0.00000  Uiso   1.00
C172   C     0.83340   0.02077   0.12530   0.00000  Uiso   1.00
C173   C     0.80700   0.30974   0.20183   0.00000  Uiso   1.00
C174   C     0.82336   0.31161   0.12303   0.00000  Uiso   1.00
H175   H     0.98995   0.14520   0.08454   0.00000  Uiso   1.00
H176   H     0.80050   0.30131   0.30287   0.00000  Uiso   1.00
H177   H     0.85045   0.27865   0.27542   0.00000  Uiso   1.00
H178   H     0.79427   0.24737   0.28849   0.00000  Uiso   1.00
H179   H     0.83969   0.30289   0.05675   0.00000  Uiso   1.00
H180   H     0.74316   0.30914   0.05115   0.00000  Uiso   1.00
H181   H     0.74233   0.26343   0.08695   0.00000  Uiso   1.00
H182   H     0.76258   0.26029   0.03187   0.00000  Uiso   1.00
H183   H     0.78080   0.02936   0.26239   0.00000  Uiso   1.00
H184   H     0.87491   0.01559   0.29031   0.00000  Uiso   1.00
H185   H     0.85424   0.06509   0.30562   0.00000  Uiso   1.00
H186   H     0.67463   0.10451   0.11832   0.00000  Uiso   1.00
H187   H     0.89177   0.06136   0.25925   0.00000  Uiso   1.00
H188   H     0.90229   0.21825   0.08802   0.00000  Uiso   1.00
H189   H     0.93495   0.27822   0.06860   0.00000  Uiso   1.00
H190   H     0.89514   0.26968   0.01524   0.00000  Uiso   1.00
H191   H     0.96307   0.25470   0.02480   0.00000  Uiso   1.00
H192   H     0.76485   0.10967   0.24696   0.00000  Uiso   1.00
H193   H     0.67874   0.12104   0.24819   0.00000  Uiso   1.00
H194   H     0.69441   0.14815   0.30119   0.00000  Uiso   1.00
H195   H     0.68826   0.09206   0.29971   0.00000  Uiso   1.00
H196   H     0.91713   0.23468   0.28836   0.00000  Uiso   1.00
H197   H     0.67137   0.19860   0.24583   0.00000  Uiso   1.00
H198   H     0.95159   0.19462   0.31357   0.00000  Uiso   1.00
H199   H     0.77334   0.09944   0.06372   0.00000  Uiso   1.00
H200   H     0.72985   0.13708   0.04907   0.00000  Uiso   1.00
H201   H     0.99390   0.23514   0.20557   0.00000  Uiso   1.00
H202   H     0.82362   0.03542   0.05603   0.00000  Uiso   1.00
H203   H     0.91721   0.01696   0.07588   0.00000  Uiso   1.00
H204   H     0.92385   0.05967   0.11520   0.00000  Uiso   1.00
H205   H     0.90901   0.06920   0.05530   0.00000  Uiso   1.00
H206   H     0.74214   0.29762   0.23544   0.00000  Uiso   1.00
N207   N     0.83332   0.16666   0.28573   0.00000  Uiso   1.00
N208   N     0.75711   0.11814   0.27814   0.00000  Uiso   1.00
N209   N     0.91741   0.20278   0.29327   0.00000  Uiso   1.00
N210   N     0.75675   0.11823   0.03794   0.00000  Uiso   1.00
N211   N     0.83335   0.16668   0.04760   0.00000  Uiso   1.00
N212   N     0.98759   0.13165   0.11622   0.00000  Uiso   1.00
N213   N     0.67853   0.20732   0.21335   0.00000  Uiso   1.00
N214   N     0.84663   0.04271   0.08620   0.00000  Uiso   1.00
N215   N     0.77910   0.28769   0.23372   0.00000  Uiso   1.00
N216   N     0.81734   0.29097   0.08041   0.00000  Uiso   1.00
N217   N     0.81219   0.03944   0.24633   0.00000  Uiso   1.00
N218   N     0.90939   0.21595   0.05550   0.00000  Uiso   1.00
O219   O     0.83333   0.10558   0.20487   0.00000  Uiso   1.00
O220   O     0.83334   0.22775   0.12846   0.00000  Uiso   1.00
O221   O     0.83333   0.10559   0.12843   0.00000  Uiso   1.00
O222   O     0.83334   0.22774   0.20490   0.00000  Uiso   1.00
O223   O     0.75725   0.16666   0.19595   0.00000  Uiso   1.00
O224   O     0.90942   0.16667   0.13739   0.00000  Uiso   1.00
O225   O     0.75725   0.16667   0.11950   0.00000  Uiso   1.00
O226   O     0.90942   0.16666   0.21383   0.00000  Uiso   1.00
Zn227  Zn    0.83333   0.16666   0.21771   0.00000  Uiso   1.00
Zn228  Zn    0.83333   0.16667   0.11563   0.00000  Uiso   1.00
C229   C     0.16701   0.41975   0.16691   0.00000  Uiso   1.00
C230   C     0.14997   0.35245   0.20493   0.00000  Uiso   1.00
C231   C     0.15134   0.62289   0.16322   0.00000  Uiso   1.00
C232   C     0.16362   0.37478   0.16650   0.00000  Uiso   1.00
C233   C     0.20404   0.52385   0.02768   0.00000  Uiso   1.00
C234   C     0.12834   0.47778   0.30522   0.00000  Uiso   1.00
C235   C     0.20586   0.52089   0.31311   0.00000  Uiso   1.00
C236   C     0.12933   0.47703   0.01970   0.00000  Uiso   1.00
C237   C     0.23546   0.38058   0.08307   0.00000  Uiso   1.00
C238   C     0.14119   0.61181   0.27736   0.00000  Uiso   1.00
C239   C     0.09682   0.61388   0.06174   0.00000  Uiso   1.00
C240   C     0.16093   0.57934   0.16563   0.00000  Uiso   1.00
C241   C     0.19411   0.37888   0.27680   0.00000  Uiso   1.00
C242   C     0.25944   0.58982   0.03966   0.00000  Uiso   1.00
C243   C     0.03528   0.45362   0.28222   0.00000  Uiso   1.00
C244   C     0.06742   0.49969   0.15513   0.00000  Uiso   1.00
C245   C     0.26598   0.50170   0.17803   0.00000  Uiso   1.00
C246   C     0.01271   0.49337   0.15037   0.00000  Uiso   1.00
C247   C     0.32061   0.50978   0.18173   0.00000  Uiso   1.00
C248   C     0.16674   0.35411   0.12530   0.00000  Uiso   1.00
C249   C     0.14034   0.64307   0.20183   0.00000  Uiso   1.00
C250   C     0.15669   0.64494   0.12303   0.00000  Uiso   1.00
H251   H     0.32329   0.47853   0.08454   0.00000  Uiso   1.00
H252   H     0.13383   0.63465   0.30287   0.00000  Uiso   1.00
H253   H     0.18378   0.61198   0.27542   0.00000  Uiso   1.00
H254   H     0.12761   0.58070   0.28849   0.00000  Uiso   1.00
H255   H     0.17303   0.63622   0.05675   0.00000  Uiso   1.00
H256   H     0.07650   0.64247   0.05115   0.00000  Uiso   1.00
H257   H     0.07566   0.59677   0.08695   0.00000  Uiso   1.00
H258   H     0.09591   0.59362   0.03187   0.00000  Uiso   1.00
H259   H     0.11414   0.36269   0.26239   0.00000  Uiso   1.00
H260   H     0.20825   0.34892   0.29031   0.00000  Uiso   1.00
H261   H     0.18757   0.39842   0.30562   0.00000  Uiso   1.00
H262   H     0.00797   0.43785   0.11832   0.00000  Uiso   1.00
H263   H     0.22510   0.39469   0.25925   0.00000  Uiso   1.00
H264   H     0.23563   0.55158   0.08802   0.00000  Uiso   1.00
H265   H     0.26829   0.61155   0.06860   0.00000  Uiso   1.00
H266   H     0.22848   0.60301   0.01524   0.00000  Uiso   1.00
H267   H     0.29640   0.58803   0.02480   0.00000  Uiso   1.00
H268   H     0.09818   0.44301   0.24696   0.00000  Uiso   1.00
H269   H     0.01208   0.45438   0.24819   0.00000  Uiso   1.00
H270   H     0.02775   0.48148   0.30119   0.00000  Uiso   1.00
H271   H     0.02159   0.42540   0.29971   0.00000  Uiso   1.00
H272   H     0.25047   0.56801   0.28836   0.00000  Uiso   1.00
H273   H     0.00470   0.53193   0.24583   0.00000  Uiso   1.00
H274   H     0.28492   0.52795   0.31357   0.00000  Uiso   1.00
H275   H     0.10668   0.43277   0.06372   0.00000  Uiso   1.00
H276   H     0.06318   0.47042   0.04907   0.00000  Uiso   1.00
H277   H     0.32724   0.56847   0.20557   0.00000  Uiso   1.00
H278   H     0.15695   0.36876   0.05603   0.00000  Uiso   1.00
H279   H     0.25054   0.35030   0.07588   0.00000  Uiso   1.00
H280   H     0.25718   0.39300   0.11520   0.00000  Uiso   1.00
H281   H     0.24235   0.40253   0.05530   0.00000  Uiso   1.00
H282   H     0.07548   0.63095   0.23544   0.00000  Uiso   1.00
N283   N     0.16665   0.49999   0.28573   0.00000  Uiso   1.00
N284   N     0.09044   0.45147   0.27814   0.00000  Uiso   1.00
N285   N     0.25075   0.53612   0.29327   0.00000  Uiso   1.00
N286   N     0.09008   0.45156   0.03794   0.00000  Uiso   1.00
N287   N     0.16668   0.50001   0.04760   0.00000  Uiso   1.00
N288   N     0.32093   0.46498   0.11622   0.00000  Uiso   1.00
N289   N     0.01187   0.54065   0.21335   0.00000  Uiso   1.00
N290   N     0.17997   0.37604   0.08620   0.00000  Uiso   1.00
N291   N     0.11244   0.62103   0.23372   0.00000  Uiso   1.00
N292   N     0.15067   0.62431   0.08041   0.00000  Uiso   1.00
N293   N     0.14552   0.37277   0.24633   0.00000  Uiso   1.00
N294   N     0.24272   0.54929   0.05550   0.00000  Uiso   1.00
O295   O     0.16666   0.43892   0.20487   0.00000  Uiso   1.00
O296   O     0.16667   0.56108   0.12846   0.00000  Uiso   1.00
O297   O     0.16666   0.43893   0.12843   0.00000  Uiso   1.00
O298   O     0.16667   0.56107   0.20490   0.00000  Uiso   1.00
O299   O     0.09058   0.50000   0.19595   0.00000  Uiso   1.00
O300   O     0.24275   0.50000   0.13739   0.00000  Uiso   1.00
O301   O     0.09058   0.50000   0.11950   0.00000  Uiso   1.00
O302   O     0.24275   0.50000   0.21383   0.00000  Uiso   1.00
Zn303  Zn    0.16667   0.49999   0.21771   0.00000  Uiso   1.00
Zn304  Zn    0.16667   0.50001   0.11563   0.00000  Uiso   1.00
C305   C     0.50034   0.41975   0.16691   0.00000  Uiso   1.00
C306   C     0.48330   0.35245   0.20493   0.00000  Uiso   1.00
C307   C     0.48467   0.62289   0.16322   0.00000  Uiso   1.00
C308   C     0.49696   0.37478   0.16650   0.00000  Uiso   1.00
C309   C     0.53737   0.52385   0.02768   0.00000  Uiso   1.00
C310   C     0.46167   0.47778   0.30522   0.00000  Uiso   1.00
C311   C     0.53919   0.52089   0.31311   0.00000  Uiso   1.00
C312   C     0.46267   0.47703   0.01970   0.00000  Uiso   1.00
C313   C     0.56879   0.38058   0.08307   0.00000  Uiso   1.00
C314   C     0.47452   0.61181   0.27736   0.00000  Uiso   1.00
C315   C     0.43016   0.61388   0.06174   0.00000  Uiso   1.00
C316   C     0.49426   0.57934   0.16563   0.00000  Uiso   1.00
C317   C     0.52744   0.37888   0.27680   0.00000  Uiso   1.00
C318   C     0.59277   0.58982   0.03966   0.00000  Uiso   1.00
C319   C     0.36862   0.45362   0.28222   0.00000  Uiso   1.00
C320   C     0.40075   0.49969   0.15513   0.00000  Uiso   1.00
C321   C     0.59931   0.50170   0.17803   0.00000  Uiso   1.00
C322   C     0.34604   0.49337   0.15037   0.00000  Uiso   1.00
C323   C     0.65394   0.50978   0.18173   0.00000  Uiso   1.00
C324   C     0.50007   0.35411   0.12530   0.00000  Uiso   1.00
C325   C     0.47367   0.64307   0.20183   0.00000  Uiso   1.00
C326   C     0.49003   0.64494   0.12303   0.00000  Uiso   1.00
H327   H     0.65662   0.47853   0.08454   0.00000  Uiso   1.00
H328   H     0.46717   0.63465   0.30287   0.00000  Uiso   1.00
H329   H     0.51712   0.61198   0.27542   0.00000  Uiso   1.00
H330   H     0.46094   0.58070   0.28849   0.00000  Uiso   1.00
H331   H     0.50636   0.63622   0.05675   0.00000  Uiso   1.00
H332   H     0.40983   0.64247   0.05115   0.00000  Uiso   1.00
H333   H     0.40900   0.59677   0.08695   0.00000  Uiso   1.00
H334   H     0.42925   0.59362   0.03187   0.00000  Uiso   1.00
H335   H     0.44747   0.36269   0.26239   0.00000  Uiso   1.00
H336   H     0.54158   0.34892   0.29031   0.00000  Uiso   1.00
H337   H     0.52091   0.39842   0.30562   0.00000  Uiso   1.00
H338   H     0.34130   0.43785   0.11832   0.00000  Uiso   1.00
H339   H     0.55843   0.39469   0.25925   0.00000  Uiso   1.00
H340   H     0.56896   0.55158   0.08802   0.00000  Uiso   1.00
H341   H     0.60162   0.61155   0.06860   0.00000  Uiso   1.00
H342   H     0.56181   0.60301   0.01524   0.00000  Uiso   1.00
H343   H     0.62974   0.58803   0.02480   0.00000  Uiso   1.00
H344   H     0.43152   0.44301   0.24696   0.00000  Uiso   1.00
H345   H     0.34541   0.45438   0.24819   0.00000  Uiso   1.00
H346   H     0.36108   0.48148   0.30119   0.00000  Uiso   1.00
H347   H     0.35492   0.42540   0.29971   0.00000  Uiso   1.00
H348   H     0.58380   0.56801   0.28836   0.00000  Uiso   1.00
H349   H     0.33804   0.53193   0.24583   0.00000  Uiso   1.00
H350   H     0.61825   0.52795   0.31357   0.00000  Uiso   1.00
H351   H     0.44001   0.43277   0.06372   0.00000  Uiso   1.00
H352   H     0.39651   0.47042   0.04907   0.00000  Uiso   1.00
H353   H     0.66057   0.56847   0.20557   0.00000  Uiso   1.00
H354   H     0.49029   0.36876   0.05603   0.00000  Uiso   1.00
H355   H     0.58387   0.35030   0.07588   0.00000  Uiso   1.00
H356   H     0.59051   0.39300   0.11520   0.00000  Uiso   1.00
H357   H     0.57568   0.40253   0.05530   0.00000  Uiso   1.00
H358   H     0.40881   0.63095   0.23544   0.00000  Uiso   1.00
N359   N     0.49999   0.49999   0.28573   0.00000  Uiso   1.00
N360   N     0.42378   0.45147   0.27814   0.00000  Uiso   1.00
N361   N     0.58408   0.53612   0.29327   0.00000  Uiso   1.00
N362   N     0.42342   0.45156   0.03794   0.00000  Uiso   1.00
N363   N     0.50001   0.50001   0.04760   0.00000  Uiso   1.00
N364   N     0.65426   0.46498   0.11622   0.00000  Uiso   1.00
N365   N     0.34520   0.54065   0.21335   0.00000  Uiso   1.00
N366   N     0.51330   0.37604   0.08620   0.00000  Uiso   1.00
N367   N     0.44577   0.62103   0.23372   0.00000  Uiso   1.00
N368   N     0.48401   0.62431   0.08041   0.00000  Uiso   1.00
N369   N     0.47885   0.37277   0.24633   0.00000  Uiso   1.00
N370   N     0.57606   0.54929   0.05550   0.00000  Uiso   1.00
O371   O     0.50000   0.43892   0.20487   0.00000  Uiso   1.00
O372   O     0.50000   0.56108   0.12846   0.00000  Uiso   1.00
O373   O     0.50000   0.43893   0.12843   0.00000  Uiso   1.00
O374   O     0.50000   0.56107   0.20490   0.00000  Uiso   1.00
O375   O     0.42392   0.50000   0.19595   0.00000  Uiso   1.00
O376   O     0.57608   0.50000   0.13739   0.00000  Uiso   1.00
O377   O     0.42392   0.50000   0.11950   0.00000  Uiso   1.00
O378   O     0.57608   0.50000   0.21383   0.00000  Uiso   1.00
Zn379  Zn    0.50000   0.49999   0.21771   0.00000  Uiso   1.00
Zn380  Zn    0.50000   0.50001   0.11563   0.00000  Uiso   1.00
C381   C     0.83368   0.41975   0.16691   0.00000  Uiso   1.00
C382   C     0.81663   0.35245   0.20493   0.00000  Uiso   1.00
C383   C     0.81800   0.62289   0.16322   0.00000  Uiso   1.00
C384   C     0.83029   0.37478   0.16650   0.00000  Uiso   1.00
C385   C     0.87070   0.52385   0.02768   0.00000  Uiso   1.00
C386   C     0.79501   0.47778   0.30522   0.00000  Uiso   1.00
C387   C     0.87253   0.52089   0.31311   0.00000  Uiso   1.00
C388   C     0.79600   0.47703   0.01970   0.00000  Uiso   1.00
C389   C     0.90212   0.38058   0.08307   0.00000  Uiso   1.00
C390   C     0.80786   0.61181   0.27736   0.00000  Uiso   1.00
C391   C     0.76349   0.61388   0.06174   0.00000  Uiso   1.00
C392   C     0.82760   0.57934   0.16563   0.00000  Uiso   1.00
C393   C     0.86078   0.37888   0.27680   0.00000  Uiso   1.00
C394   C     0.92610   0.58982   0.03966   0.00000  Uiso   1.00
C395   C     0.70195   0.45362   0.28222   0.00000  Uiso   1.00
C396   C     0.73408   0.49969   0.15513   0.00000  Uiso   1.00
C397   C     0.93264   0.50170   0.17803   0.00000  Uiso   1.00
C398   C     0.67938   0.49337   0.15037   0.00000  Uiso   1.00
C399   C     0.98728   0.50978   0.18173   0.00000  Uiso   1.00
C400   C     0.83340   0.35411   0.12530   0.00000  Uiso   1.00
C401   C     0.80700   0.64307   0.20183   0.00000  Uiso   1.00
C402   C     0.82336   0.64494   0.12303   0.00000  Uiso   1.00
H403   H     0.98995   0.47853   0.08454   0.00000  Uiso   1.00
H404   H     0.80050   0.63465   0.30287   0.00000  Uiso   1.00
H405   H     0.85045   0.61198   0.27542   0.00000  Uiso   1.00
H406   H     0.79427   0.58070   0.28849   0.00000  Uiso   1.00
H407   H     0.83969   0.63622   0.05675   0.00000  Uiso   1.00
H408   H     0.74316   0.64247   0.05115   0.00000  Uiso   1.00
H409   H     0.74233   0.59677   0.08695   0.00000  Uiso   1.00
H410   H     0.76258   0.59362   0.03187   0.00000  Uiso   1.00
H411   H     0.78080   0.36269   0.26239   0.00000  Uiso   1.00
H412   H     0.87491   0.34892   0.29031   0.00000  Uiso   1.00
H413   H     0.85424   0.39842   0.30562   0.00000  Uiso   1.00
H414   H     0.67463   0.43785   0.11832   0.00000  Uiso   1.00
H415   H     0.89177   0.39469   0.25925   0.00000  Uiso   1.00
H416   H     0.90229   0.55158   0.08802   0.00000  Uiso   1.00
H417   H     0.93495   0.61155   0.06860   0.00000  Uiso   1.00
H418   H     0.89514   0.60301   0.01524   0.00000  Uiso   1.00
H419   H     0.96307   0.58803   0.02480   0.00000  Uiso   1.00
H420   H     0.76485   0.44301   0.24696   0.00000  Uiso   1.00
H421   H     0.67874   0.45438   0.24819   0.00000  Uiso   1.00
H422   H     0.69441   0.48148   0.30119   0.00000  Uiso   1.00
H423   H     0.68826   0.42540   0.29971   0.00000  Uiso   1.00
H424   H     0.91713   0.56801   0.28836   0.00000  Uiso   1.00
H425   H     0.67137   0.53193   0.24583   0.00000  Uiso   1.00
H426   H     0.95159   0.52795   0.31357   0.00000  Uiso   1.00
H427   H     0.77334   0.43277   0.06372   0.00000  Uiso   1.00
H428   H     0.72985   0.47042   0.04907   0.00000  Uiso   1.00
H429   H     0.99390   0.56847   0.20557   0.00000  Uiso   1.00
H430   H     0.82362   0.36876   0.05603   0.00000  Uiso   1.00
H431   H     0.91721   0.35030   0.07588   0.00000  Uiso   1.00
H432   H     0.92385   0.39300   0.11520   0.00000  Uiso   1.00
H433   H     0.90901   0.40253   0.05530   0.00000  Uiso   1.00
H434   H     0.74214   0.63095   0.23544   0.00000  Uiso   1.00
N435   N     0.83332   0.49999   0.28573   0.00000  Uiso   1.00
N436   N     0.75711   0.45147   0.27814   0.00000  Uiso   1.00
N437   N     0.91741   0.53612   0.29327   0.00000  Uiso   1.00
N438   N     0.75675   0.45156   0.03794   0.00000  Uiso   1.00
N439   N     0.83335   0.50001   0.04760   0.00000  Uiso   1.00
N440   N     0.98759   0.46498   0.11622   0.00000  Uiso   1.00
N441   N     0.67853   0.54065   0.21335   0.00000  Uiso   1.00
N442   N     0.84663   0.37604   0.08620   0.00000  Uiso   1.00
N443   N     0.77910   0.62103   0.23372   0.00000  Uiso   1.00
N444   N     0.81734   0.62431   0.08041   0.00000  Uiso   1.00
N445   N     0.81219   0.37277   0.24633   0.00000  Uiso   1.00
N446   N     0.90939   0.54929   0.05550   0.00000  Uiso   1.00
O447   O     0.83333   0.43892   0.20487   0.00000  Uiso   1.00
O448   O     0.83334   0.56108   0.12846   0.00000  Uiso   1.00
O449   O     0.83333   0.43893   0.12843   0.00000  Uiso   1.00
O450   O     0.83334   0.56107   0.20490   0.00000  Uiso   1.00
O451   O     0.75725   0.50000   0.19595   0.00000  Uiso   1.00
O452   O     0.90942   0.50000   0.13739   0.00000  Uiso   1.00
O453   O     0.75725   0.50000   0.11950   0.00000  Uiso   1.00
O454   O     0.90942   0.50000   0.21383   0.00000  Uiso   1.00
Zn455  Zn    0.83333   0.49999   0.21771   0.00000  Uiso   1.00
Zn456  Zn    0.83333   0.50001   0.11563   0.00000  Uiso   1.00
C457   C     0.16701   0.75309   0.16691   0.00000  Uiso   1.00
C458   C     0.14997   0.68578   0.20493   0.00000  Uiso   1.00
C459   C     0.15134   0.95622   0.16322   0.00000  Uiso   1.00
C460   C     0.16362   0.70811   0.16650   0.00000  Uiso   1.00
C461   C     0.20404   0.85718   0.02768   0.00000  Uiso   1.00
C462   C     0.12834   0.81111   0.30522   0.00000  Uiso   1.00
C463   C     0.20586   0.85422   0.31311   0.00000  Uiso   1.00
C464   C     0.12933   0.81036   0.01970   0.00000  Uiso   1.00
C465   C     0.23546   0.71391   0.08307   0.00000  Uiso   1.00
C466   C     0.14119   0.94514   0.27736   0.00000  Uiso   1.00
C467   C     0.09682   0.94722   0.06174   0.00000  Uiso   1.00
C468   C     0.16093   0.91267   0.16563   0.00000  Uiso   1.00
C469   C     0.19411   0.71221   0.27680   0.00000  Uiso   1.00
C470   C     0.25944   0.92315   0.03966   0.00000  Uiso   1.00
C471   C     0.03528   0.78695   0.28222   0.00000  Uiso   1.00
C472   C     0.06742   0.83302   0.15513   0.00000  Uiso   1.00
C473   C     0.26598   0.83503   0.17803   0.00000  Uiso   1.00
C474   C     0.01271   0.82670   0.15037   0.00000  Uiso   1.00
C475   C     0.32061   0.84311   0.18173   0.00000  Uiso   1.00
C476   C     0.16674   0.68744   0.12530   0.00000  Uiso   1.00
C477   C     0.14034   0.97641   0.20183   0.00000  Uiso   1.00
C478   C     0.15669   0.97828   0.12303   0.00000  Uiso   1.00
H479   H     0.32329   0.81186   0.08454   0.00000  Uiso   1.00
H480   H     0.13383   0.96798   0.30287   0.00000  Uiso   1.00
H481   H     0.18378   0.94532   0.27542   0.00000  Uiso   1.00
H482   H     0.12761   0.91404   0.28849   0.00000  Uiso   1.00
H483   H     0.17303   0.96956   0.05675   0.00000  Uiso   1.00
H484   H     0.07650   0.97580   0.05115   0.00000  Uiso   1.00
H485   H     0.07566   0.93010   0.08695   0.00000  Uiso   1.00
H486   H     0.09591   0.92696   0.03187   0.00000  Uiso   1.00
H487   H     0.11414   0.69603   0.26239   0.00000  Uiso   1.00
H488   H     0.20825   0.68226   0.29031   0.00000  Uiso   1.00
H489   H     0.18757   0.73175   0.30562   0.00000  Uiso   1.00
H490   H     0.00797   0.77118   0.11832   0.00000  Uiso   1.00
H491   H     0.22510   0.72803   0.25925   0.00000  Uiso   1.00
H492   H     0.23563   0.88492   0.08802   0.00000  Uiso   1.00
H493   H     0.26829   0.94489   0.06860   0.00000  Uiso   1.00
H494   H     0.22848   0.93634   0.01524   0.00000  Uiso   1.00
H495   H     0.29640   0.92137   0.02480   0.00000  Uiso   1.00
H496   H     0.09818   0.77634   0.24696   0.00000  Uiso   1.00
H497   H     0.01208   0.78771   0.24819   0.00000  Uiso   1.00
H498   H     0.02775   0.81481   0.30119   0.00000  Uiso   1.00
H499   H     0.02159   0.75873   0.29971   0.00000  Uiso   1.00
H500   H     0.25047   0.90134   0.28836   0.00000  Uiso   1.00
H501   H     0.00470   0.86527   0.24583   0.00000  Uiso   1.00
H502   H     0.28492   0.86128   0.31357   0.00000  Uiso   1.00
H503   H     0.10668   0.76610   0.06372   0.00000  Uiso   1.00
H504   H     0.06318   0.80375   0.04907   0.00000  Uiso   1.00
H505   H     0.32724   0.90181   0.20557   0.00000  Uiso   1.00
H506   H     0.15695   0.70209   0.05603   0.00000  Uiso   1.00
H507   H     0.25054   0.68363   0.07588   0.00000  Uiso   1.00
H508   H     0.25718   0.72634   0.11520   0.00000  Uiso   1.00
H509   H     0.24235   0.73587   0.05530   0.00000  Uiso   1.00
H510   H     0.07548   0.96429   0.23544   0.00000  Uiso   1.00
N511   N     0.16665   0.83332   0.28573   0.00000  Uiso   1.00
N512   N     0.09044   0.78480   0.27814   0.00000  Uiso   1.00
N513   N     0.25075   0.86945   0.29327   0.00000  Uiso   1.00
N514   N     0.09008   0.78489   0.03794   0.00000  Uiso   1.00
N515   N     0.16668   0.83334   0.04760   0.00000  Uiso   1.00
N516   N     0.32093   0.79831   0.11622   0.00000  Uiso   1.00
N517   N     0.01187   0.87398   0.21335   0.00000  Uiso   1.00
N518   N     0.17997   0.70937   0.08620   0.00000  Uiso   1.00
N519   N     0.11244   0.95436   0.23372   0.00000  Uiso   1.00
N520   N     0.15067   0.95764   0.08041   0.00000  Uiso   1.00
N521   N     0.14552   0.70611   0.24633   0.00000  Uiso   1.00
N522   N     0.24272   0.88262   0.05550   0.00000  Uiso   1.00
O523   O     0.16666   0.77225   0.20487   0.00000  Uiso   1.00
O524   O     0.16667   0.89442   0.12846   0.00000  Uiso   1.00
O525   O     0.16666   0.77226   0.12843   0.00000  Uiso   1.00
O526   O     0.16667   0.89441   0.20490   0.00000  Uiso   1.00
O527   O     0.09058   0.83333   0.19595   0.00000  Uiso   1.00
O528   O     0.24275   0.83334   0.13739   0.00000  Uiso   1.00
O529   O     0.09058   0.83334   0.11950   0.00000  Uiso   1.00
O530   O     0.24275   0.83333   0.21383   0.00000  Uiso   1.00
Zn531  Zn    0.16667   0.83333   0.21771   0.00000  Uiso   1.00
Zn532  Zn    0.16667   0.83334   0.11563   0.00000  Uiso   1.00
C533   C     0.50034   0.75309   0.16691   0.00000  Uiso   1.00
C534   C     0.48330   0.68578   0.20493   0.00000  Uiso   1.00
C535   C     0.48467   0.95622   0.16322   0.00000  Uiso   1.00
C536   C     0.49696   0.70811   0.16650   0.00000  Uiso   1.00
C537   C     0.53737   0.85718   0.02768   0.00000  Uiso   1.00
C538   C     0.46167   0.81111   0.30522   0.00000  Uiso   1.00
C539   C     0.53919   0.85422   0.31311   0.00000  Uiso   1.00
C540   C     0.46267   0.81036   0.01970   0.00000  Uiso   1.00
C541   C     0.56879   0.71391   0.08307   0.00000  Uiso   1.00
C542   C     0.47452   0.94514   0.27736   0.00000  Uiso   1.00
C543   C     0.43016   0.94722   0.06174   0.00000  Uiso   1.00
C544   C     0.49426   0.91267   0.16563   0.00000  Uiso   1.00
C545   C     0.52744   0.71221   0.27680   0.00000  Uiso   1.00
C546   C     0.59277   0.92315   0.03966   0.00000  Uiso   1.00
C547   C     0.36862   0.78695   0.28222   0.00000  Uiso   1.00
C548   C     0.40075   0.83302   0.15513   0.00000  Uiso   1.00
C549   C     0.59931   0.83503   0.17803   0.00000  Uiso   1.00
C550   C     0.34604   0.82670   0.15037   0.00000  Uiso   1.00
C551   C     0.65394   0.84311   0.18173   0.00000  Uiso   1.00
C552   C     0.50007   0.68744   0.12530   0.00000  Uiso   1.00
C553   C     0.47367   0.97641   0.20183   0.00000  Uiso   1.00
C554   C     0.49003   0.97828   0.12303   0.00000  Uiso   1.00
H555   H     0.65662   0.81186   0.08454   0.00000  Uiso   1.00
H556   H     0.46717   0.96798   0.30287   0.00000  Uiso   1.00
H557   H     0.51712   0.94532   0.27542   0.00000  Uiso   1.00
H558   H     0.46094   0.91404   0.28849   0.00000  Uiso   1.00
H559   H     0.50636   0.96956   0.05675   0.00000  Uiso   1.00
H560   H     0.40983   0.97580   0.05115   0.00000  Uiso   1.00
H561   H     0.40900   0.93010   0.08695   0.00000  Uiso   1.00
H562   H     0.42925   0.92696   0.03187   0.00000  Uiso   1.00
H563   H     0.44747   0.69603   0.26239   0.00000  Uiso   1.00
H564   H     0.54158   0.68226   0.29031   0.00000  Uiso   1.00
H565   H     0.52091   0.73175   0.30562   0.00000  Uiso   1.00
H566   H     0.34130   0.77118   0.11832   0.00000  Uiso   1.00
H567   H     0.55843   0.72803   0.25925   0.00000  Uiso   1.00
H568   H     0.56896   0.88492   0.08802   0.00000  Uiso   1.00
H569   H     0.60162   0.94489   0.06860   0.00000  Uiso   1.00
H570   H     0.56181   0.93634   0.01524   0.00000  Uiso   1.00
H571   H     0.62974   0.92137   0.02480   0.00000  Uiso   1.00
H572   H     0.43152   0.77634   0.24696   0.00000  Uiso   1.00
H573   H     0.34541   0.78771   0.24819   0.00000  Uiso   1.00
H574   H     0.36108   0.81481   0.30119   0.00000  Uiso   1.00
H575   H     0.35492   0.75873   0.29971   0.00000  Uiso   1.00
H576   H     0.58380   0.90134   0.28836   0.00000  Uiso   1.00
H577   H     0.33804   0.86527   0.24583   0.00000  Uiso   1.00
H578   H     0.61825   0.86128   0.31357   0.00000  Uiso   1.00
H579   H     0.44001   0.76610   0.06372   0.00000  Uiso   1.00
H580   H     0.39651   0.80375   0.04907   0.00000  Uiso   1.00
H581   H     0.66057   0.90181   0.20557   0.00000  Uiso   1.00
H582   H     0.49029   0.70209   0.05603   0.00000  Uiso   1.00
H583   H     0.58387   0.68363   0.07588   0.00000  Uiso   1.00
H584   H     0.59051   0.72634   0.11520   0.00000  Uiso   1.00
H585   H     0.57568   0.73587   0.05530   0.00000  Uiso   1.00
H586   H     0.40881   0.96429   0.23544   0.00000  Uiso   1.00
N587   N     0.49999   0.83332   0.28573   0.00000  Uiso   1.00
N588   N     0.42378   0.78480   0.27814   0.00000  Uiso   1.00
N589   N     0.58408   0.86945   0.29327   0.00000  Uiso   1.00
N590   N     0.42342   0.78489   0.03794   0.00000  Uiso   1.00
N591   N     0.50001   0.83334   0.04760   0.00000  Uiso   1.00
N592   N     0.65426   0.79831   0.11622   0.00000  Uiso   1.00
N593   N     0.34520   0.87398   0.21335   0.00000  Uiso   1.00
N594   N     0.51330   0.70937   0.08620   0.00000  Uiso   1.00
N595   N     0.44577   0.95436   0.23372   0.00000  Uiso   1.00
N596   N     0.48401   0.95764   0.08041   0.00000  Uiso   1.00
N597   N     0.47885   0.70611   0.24633   0.00000  Uiso   1.00
N598   N     0.57606   0.88262   0.05550   0.00000  Uiso   1.00
O599   O     0.50000   0.77225   0.20487   0.00000  Uiso   1.00
O600   O     0.50000   0.89442   0.12846   0.00000  Uiso   1.00
O601   O     0.50000   0.77226   0.12843   0.00000  Uiso   1.00
O602   O     0.50000   0.89441   0.20490   0.00000  Uiso   1.00
O603   O     0.42392   0.83333   0.19595   0.00000  Uiso   1.00
O604   O     0.57608   0.83334   0.13739   0.00000  Uiso   1.00
O605   O     0.42392   0.83334   0.11950   0.00000  Uiso   1.00
O606   O     0.57608   0.83333   0.21383   0.00000  Uiso   1.00
Zn607  Zn    0.50000   0.83333   0.21771   0.00000  Uiso   1.00
Zn608  Zn    0.50000   0.83334   0.11563   0.00000  Uiso   1.00
C609   C     0.83368   0.75309   0.16691   0.00000  Uiso   1.00
C610   C     0.81663   0.68578   0.20493   0.00000  Uiso   1.00
C611   C     0.81800   0.95622   0.16322   0.00000  Uiso   1.00
C612   C     0.83029   0.70811   0.16650   0.00000  Uiso   1.00
C613   C     0.87070   0.85718   0.02768   0.00000  Uiso   1.00
C614   C     0.79501   0.81111   0.30522   0.00000  Uiso   1.00
C615   C     0.87253   0.85422   0.31311   0.00000  Uiso   1.00
C616   C     0.79600   0.81036   0.01970   0.00000  Uiso   1.00
C617   C     0.90212   0.71391   0.08307   0.00000  Uiso   1.00
C618   C     0.80786   0.94514   0.27736   0.00000  Uiso   1.00
C619   C     0.76349   0.94722   0.06174   0.00000  Uiso   1.00
C620   C     0.82760   0.91267   0.16563   0.00000  Uiso   1.00
C621   C     0.86078   0.71221   0.27680   0.00000  Uiso   1.00
C622   C     0.92610   0.92315   0.03966   0.00000  Uiso   1.00
C623   C     0.70195   0.78695   0.28222   0.00000  Uiso   1.00
C624   C     0.73408   0.83302   0.15513   0.00000  Uiso   1.00
C625   C     0.93264   0.83503   0.17803   0.00000  Uiso   1.00
C626   C     0.67938   0.82670   0.15037   0.00000  Uiso   1.00
C627   C     0.98728   0.84311   0.18173   0.00000  Uiso   1.00
C628   C     0.83340   0.68744   0.12530   0.00000  Uiso   1.00
C629   C     0.80700   0.97641   0.20183   0.00000  Uiso   1.00
C630   C     0.82336   0.97828   0.12303   0.00000  Uiso   1.00
H631   H     0.98995   0.81186   0.08454   0.00000  Uiso   1.00
H632   H     0.80050   0.96798   0.30287   0.00000  Uiso   1.00
H633   H     0.85045   0.94532   0.27542   0.00000  Uiso   1.00
H634   H     0.79427   0.91404   0.28849   0.00000  Uiso   1.00
H635   H     0.83969   0.96956   0.05675   0.00000  Uiso   1.00
H636   H     0.74316   0.97580   0.05115   0.00000  Uiso   1.00
H637   H     0.74233   0.93010   0.08695   0.00000  Uiso   1.00
H638   H     0.76258   0.92696   0.03187   0.00000  Uiso   1.00
H639   H     0.78080   0.69603   0.26239   0.00000  Uiso   1.00
H640   H     0.87491   0.68226   0.29031   0.00000  Uiso   1.00
H641   H     0.85424   0.73175   0.30562   0.00000  Uiso   1.00
H642   H     0.67463   0.77118   0.11832   0.00000  Uiso   1.00
H643   H     0.89177   0.72803   0.25925   0.00000  Uiso   1.00
H644   H     0.90229   0.88492   0.08802   0.00000  Uiso   1.00
H645   H     0.93495   0.94489   0.06860   0.00000  Uiso   1.00
H646   H     0.89514   0.93634   0.01524   0.00000  Uiso   1.00
H647   H     0.96307   0.92137   0.02480   0.00000  Uiso   1.00
H648   H     0.76485   0.77634   0.24696   0.00000  Uiso   1.00
H649   H     0.67874   0.78771   0.24819   0.00000  Uiso   1.00
H650   H     0.69441   0.81481   0.30119   0.00000  Uiso   1.00
H651   H     0.68826   0.75873   0.29971   0.00000  Uiso   1.00
H652   H     0.91713   0.90134   0.28836   0.00000  Uiso   1.00
H653   H     0.67137   0.86527   0.24583   0.00000  Uiso   1.00
H654   H     0.95159   0.86128   0.31357   0.00000  Uiso   1.00
H655   H     0.77334   0.76610   0.06372   0.00000  Uiso   1.00
H656   H     0.72985   0.80375   0.04907   0.00000  Uiso   1.00
H657   H     0.99390   0.90181   0.20557   0.00000  Uiso   1.00
H658   H     0.82362   0.70209   0.05603   0.00000  Uiso   1.00
H659   H     0.91721   0.68363   0.07588   0.00000  Uiso   1.00
H660   H     0.92385   0.72634   0.11520   0.00000  Uiso   1.00
H661   H     0.90901   0.73587   0.05530   0.00000  Uiso   1.00
H662   H     0.74214   0.96429   0.23544   0.00000  Uiso   1.00
N663   N     0.83332   0.83332   0.28573   0.00000  Uiso   1.00
N664   N     0.75711   0.78480   0.27814   0.00000  Uiso   1.00
N665   N     0.91741   0.86945   0.29327   0.00000  Uiso   1.00
N666   N     0.75675   0.78489   0.03794   0.00000  Uiso   1.00
N667   N     0.83335   0.83334   0.04760   0.00000  Uiso   1.00
N668   N     0.98759   0.79831   0.11622   0.00000  Uiso   1.00
N669   N     0.67853   0.87398   0.21335   0.00000  Uiso   1.00
N670   N     0.84663   0.70937   0.08620   0.00000  Uiso   1.00
N671   N     0.77910   0.95436   0.23372   0.00000  Uiso   1.00
N672   N     0.81734   0.95764   0.08041   0.00000  Uiso   1.00
N673   N     0.81219   0.70611   0.24633   0.00000  Uiso   1.00
N674   N     0.90939   0.88262   0.05550   0.00000  Uiso   1.00
O675   O     0.83333   0.77225   0.20487   0.00000  Uiso   1.00
O676   O     0.83334   0.89442   0.12846   0.00000  Uiso   1.00
O677   O     0.83333   0.77226   0.12843   0.00000  Uiso   1.00
O678   O     0.83334   0.89441   0.20490   0.00000  Uiso   1.00
O679   O     0.75725   0.83333   0.19595   0.00000  Uiso   1.00
O680   O     0.90942   0.83334   0.13739   0.00000  Uiso   1.00
O681   O     0.75725   0.83334   0.11950   0.00000  Uiso   1.00
O682   O     0.90942   0.83333   0.21383   0.00000  Uiso   1.00
Zn683  Zn    0.83333   0.83333   0.21771   0.00000  Uiso   1.00
Zn684  Zn    0.83333   0.83334   0.11563   0.00000  Uiso   1.00
C685   C     0.16701   0.08642   0.50024   0.00000  Uiso   1.00
C686   C     0.14997   0.01911   0.53827   0.00000  Uiso   1.00
C687   C     0.15134   0.28955   0.49655   0.00000  Uiso   1.00
C688   C     0.16362   0.04144   0.49984   0.00000  Uiso   1.00
C689   C     0.20404   0.19051   0.36102   0.00000  Uiso   1.00
C690   C     0.12834   0.14445   0.63855   0.00000  Uiso   1.00
C691   C     0.20586   0.18755   0.64645   0.00000  Uiso   1.00
C692   C     0.12933   0.14370   0.35304   0.00000  Uiso   1.00
C693   C     0.23546   0.04724   0.41640   0.00000  Uiso   1.00
C694   C     0.14119   0.27848   0.61069   0.00000  Uiso   1.00
C695   C     0.09682   0.28055   0.39507   0.00000  Uiso   1.00
C696   C     0.16093   0.24600   0.49896   0.00000  Uiso   1.00
C697   C     0.19411   0.04554   0.61014   0.00000  Uiso   1.00
C698   C     0.25944   0.25649   0.37299   0.00000  Uiso   1.00
C699   C     0.03528   0.12028   0.61555   0.00000  Uiso   1.00
C700   C     0.06742   0.16635   0.48846   0.00000  Uiso   1.00
C701   C     0.26598   0.16837   0.51136   0.00000  Uiso   1.00
C702   C     0.01271   0.16003   0.48370   0.00000  Uiso   1.00
C703   C     0.32061   0.17644   0.51506   0.00000  Uiso   1.00
C704   C     0.16674   0.02077   0.45863   0.00000  Uiso   1.00
C705   C     0.14034   0.30974   0.53517   0.00000  Uiso   1.00
C706   C     0.15669   0.31161   0.45636   0.00000  Uiso   1.00
H707   H     0.32329   0.14520   0.41787   0.00000  Uiso   1.00
H708   H     0.13383   0.30131   0.63620   0.00000  Uiso   1.00
H709   H     0.18378   0.27865   0.60876   0.00000  Uiso   1.00
H710   H     0.12761   0.24737   0.62183   0.00000  Uiso   1.00
H711   H     0.17303   0.30289   0.39008   0.00000  Uiso   1.00
H712   H     0.07650   0.30914   0.38448   0.00000  Uiso   1.00
H713   H     0.07566   0.26343   0.42029   0.00000  Uiso   1.00
H714   H     0.09591   0.26029   0.36521   0.00000  Uiso   1.00
H715   H     0.11414   0.02936   0.59573   0.00000  Uiso   1.00
H716   H     0.20825   0.01559   0.62364   0.00000  Uiso   1.00
H717   H     0.18757   0.06509   0.63896   0.00000  Uiso   1.00
H718   H     0.00797   0.10451   0.45166   0.00000  Uiso   1.00
H719   H     0.22510   0.06136   0.59258   0.00000  Uiso   1.00
H720   H     0.23563   0.21825   0.42135   0.00000  Uiso   1.00
H721   H     0.26829   0.27822   0.40193   0.00000  Uiso   1.00
H722   H     0.22848   0.26968   0.34858   0.00000  Uiso   1.00
H723   H     0.29640   0.25470   0.35813   0.00000  Uiso   1.00
H724   H     0.09818   0.10967   0.58030   0.00000  Uiso   1.00
H725   H     0.01208   0.12104   0.58153   0.00000  Uiso   1.00
H726   H     0.02775   0.14815   0.63452   0.00000  Uiso   1.00
H727   H     0.02159   0.09206   0.63305   0.00000  Uiso   1.00
H728   H     0.25047   0.23468   0.62169   0.00000  Uiso   1.00
H729   H     0.00470   0.19860   0.57916   0.00000  Uiso   1.00
H730   H     0.28492   0.19462   0.64690   0.00000  Uiso   1.00
H731   H     0.10668   0.09944   0.39706   0.00000  Uiso   1.00
H732   H     0.06318   0.13708   0.38240   0.00000  Uiso   1.00
H733   H     0.32724   0.23514   0.53891   0.00000  Uiso   1.00
H734   H     0.15695   0.03542   0.38936   0.00000  Uiso   1.00
H735   H     0.25054   0.01696   0.40921   0.00000  Uiso   1.00
H736   H     0.25718   0.05967   0.44853   0.00000  Uiso   1.00
H737   H     0.24235   0.06920   0.38864   0.00000  Uiso   1.00
H738   H     0.07548   0.29762   0.56877   0.00000  Uiso   1.00
N739   N     0.16665   0.16666   0.61907   0.00000  Uiso   1.00
N740   N     0.09044   0.11814   0.61148   0.00000  Uiso   1.00
N741   N     0.25075   0.20278   0.62660   0.00000  Uiso   1.00
N742   N     0.09008   0.11823   0.37127   0.00000  Uiso   1.00
N743   N     0.16668   0.16668   0.38093   0.00000  Uiso   1.00
N744   N     0.32093   0.13165   0.44956   0.00000  Uiso   1.00
N745   N     0.01187   0.20732   0.54669   0.00000  Uiso   1.00
N746   N     0.17997   0.04271   0.41953   0.00000  Uiso   1.00
N747   N     0.11244   0.28769   0.56706   0.00000  Uiso   1.00
N748   N     0.15067   0.29097   0.41375   0.00000  Uiso   1.00
N749   N     0.14552   0.03944   0.57966   0.00000  Uiso   1.00
N750   N     0.24272   0.21595   0.38884   0.00000  Uiso   1.00
O751   O     0.16666   0.10558   0.53821   0.00000  Uiso   1.00
O752   O     0.16667   0.22775   0.46179   0.00000  Uiso   1.00
O753   O     0.16666   0.10559   0.46176   0.00000  Uiso   1.00
O754   O     0.16667   0.22774   0.53824   0.00000  Uiso   1.00
O755   O     0.09058   0.16666   0.52928   0.00000  Uiso   1.00
O756   O     0.24275   0.16667   0.47072   0.00000  Uiso   1.00
O757   O     0.09058   0.16667   0.45284   0.00000  Uiso   1.00
O758   O     0.24275   0.16666   0.54716   0.00000  Uiso   1.00
Zn759  Zn    0.16667   0.16666   0.55104   0.00000  Uiso   1.00
Zn760  Zn    0.16667   0.16667   0.44896   0.00000  Uiso   1.00
C761   C     0.50034   0.08642   0.50024   0.00000  Uiso   1.00
C762   C     0.48330   0.01911   0.53827   0.00000  Uiso   1.00
C763   C     0.48467   0.28955   0.49655   0.00000  Uiso   1.00
C764   C     0.49696   0.04144   0.49984   0.00000  Uiso   1.00
C765   C     0.53737   0.19051   0.36102   0.00000  Uiso   1.00
C766   C     0.46167   0.14445   0.63855   0.00000  Uiso   1.00
C767   C     0.53919   0.18755   0.64645   0.00000  Uiso   1.00
C768   C     0.46267   0.14370   0.35304   0.00000  Uiso   1.00
C769   C     0.56879   0.04724   0.41640   0.00000  Uiso   1.00
C770   C     0.47452   0.27848   0.61069   0.00000  Uiso   1.00
C771   C     0.43016   0.28055   0.39507   0.00000  Uiso   1.00
C772   C     0.49426   0.24600   0.49896   0.00000  Uiso   1.00
C773   C     0.52744   0.04554   0.61014   0.00000  Uiso   1.00
C774   C     0.59277   0.25649   0.37299   0.00000  Uiso   1.00
C775   C     0.36862   0.12028   0.61555   0.00000  Uiso   1.00
C776   C     0.40075   0.16635   0.48846   0.00000  Uiso   1.00
C777   C     0.59931   0.16837   0.51136   0.00000  Uiso   1.00
C778   C     0.34604   0.16003   0.48370   0.00000  Uiso   1.00
C779   C     0.65394   0.17644   0.51506   0.00000  Uiso   1.00
C780   C     0.50007   0.02077   0.45863   0.00000  Uiso   1.00
C781   C     0.47367   0.30974   0.53517   0.00000  Uiso   1.00
C782   C     0.49003   0.31161   0.45636   0.00000  Uiso   1.00
H783   H     0.65662   0.14520   0.41787   0.00000  Uiso   1.00
H784   H     0.46717   0.30131   0.63620   0.00000  Uiso   1.00
H785   H     0.51712   0.27865   0.60876   0.00000  Uiso   1.00
H786   H     0.46094   0.24737   0.62183   0.00000  Uiso   1.00
H787   H     0.50636   0.30289   0.39008   0.00000  Uiso   1.00
H788   H     0.40983   0.30914   0.38448   0.00000  Uiso   1.00
H789   H     0.40900   0.26343   0.42029   0.00000  Uiso   1.00
H790   H     0.42925   0.26029   0.36521   0.00000  Uiso   1.00
H791   H     0.44747   0.02936   0.59573   0.00000  Uiso   1.00
H792   H     0.54158   0.01559   0.62364   0.00000  Uiso   1.00
H793   H     0.52091   0.06509   0.63896   0.00000  Uiso   1.00
H794   H     0.34130   0.10451   0.45166   0.00000  Uiso   1.00
H795   H     0.55843   0.06136   0.59258   0.00000  Uiso   1.00
H796   H     0.56896   0.21825   0.42135   0.00000  Uiso   1.00
H797   H     0.60162   0.27822   0.40193   0.00000  Uiso   1.00
H798   H     0.56181   0.26968   0.34858   0.00000  Uiso   1.00
H799   H     0.62974   0.25470   0.35813   0.00000  Uiso   1.00
H800   H     0.43152   0.10967   0.58030   0.00000  Uiso   1.00
H801   H     0.34541   0.12104   0.58153   0.00000  Uiso   1.00
H802   H     0.36108   0.14815   0.63452   0.00000  Uiso   1.00
H803   H     0.35492   0.09206   0.63305   0.00000  Uiso   1.00
H804   H     0.58380   0.23468   0.62169   0.00000  Uiso   1.00
H805   H     0.33804   0.19860   0.57916   0.00000  Uiso   1.00
H806   H     0.61825   0.19462   0.64690   0.00000  Uiso   1.00
H807   H     0.44001   0.09944   0.39706   0.00000  Uiso   1.00
H808   H     0.39651   0.13708   0.38240   0.00000  Uiso   1.00
H809   H     0.66057   0.23514   0.53891   0.00000  Uiso   1.00
H810   H     0.49029   0.03542   0.38936   0.00000  Uiso   1.00
H811   H     0.58387   0.01696   0.40921   0.00000  Uiso   1.00
H812   H     0.59051   0.05967   0.44853   0.00000  Uiso   1.00
H813   H     0.57568   0.06920   0.38864   0.00000  Uiso   1.00
H814   H     0.40881   0.29762   0.56877   0.00000  Uiso   1.00
N815   N     0.49999   0.16666   0.61907   0.00000  Uiso   1.00
N816   N     0.42378   0.11814   0.61148   0.00000  Uiso   1.00
N817   N     0.58408   0.20278   0.62660   0.00000  Uiso   1.00
N818   N     0.42342   0.11823   0.37127   0.00000  Uiso   1.00
N819   N     0.50001   0.16668   0.38093   0.00000  Uiso   1.00
N820   N     0.65426   0.13165   0.44956   0.00000  Uiso   1.00
N821   N     0.34520   0.20732   0.54669   0.00000  Uiso   1.00
N822   N     0.51330   0.04271   0.41953   0.00000  Uiso   1.00
N823   N     0.44577   0.28769   0.56706   0.00000  Uiso   1.00
N824   N     0.48401   0.29097   0.41375   0.00000  Uiso   1.00
N825   N     0.47885   0.03944   0.57966   0.00000  Uiso   1.00
N826   N     0.57606   0.21595   0.38884   0.00000  Uiso   1.00
O827   O     0.50000   0.10558   0.53821   0.00000  Uiso   1.00
O828   O     0.50000   0.22775   0.46179   0.00000  Uiso   1.00
O829   O     0.50000   0.10559   0.46176   0.00000  Uiso   1.00
O830   O     0.50000   0.22774   0.53824   0.00000  Uiso   1.00
O831   O     0.42392   0.16666   0.52928   0.00000  Uiso   1.00
O832   O     0.57608   0.16667   0.47072   0.00000  Uiso   1.00
O833   O     0.42392   0.16667   0.45284   0.00000  Uiso   1.00
O834   O     0.57608   0.16666   0.54716   0.00000  Uiso   1.00
Zn835  Zn    0.50000   0.16666   0.55104   0.00000  Uiso   1.00
Zn836  Zn    0.50000   0.16667   0.44896   0.00000  Uiso   1.00
C837   C     0.83368   0.08642   0.50024   0.00000  Uiso   1.00
C838   C     0.81663   0.01911   0.53827   0.00000  Uiso   1.00
C839   C     0.81800   0.28955   0.49655   0.00000  Uiso   1.00
C840   C     0.83029   0.04144   0.49984   0.00000  Uiso   1.00
C841   C     0.87070   0.19051   0.36102   0.00000  Uiso   1.00
C842   C     0.79501   0.14445   0.63855   0.00000  Uiso   1.00
C843   C     0.87253   0.18755   0.64645   0.00000  Uiso   1.00
C844   C     0.79600   0.14370   0.35304   0.00000  Uiso   1.00
C845   C     0.90212   0.04724   0.41640   0.00000  Uiso   1.00
C846   C     0.80786   0.27848   0.61069   0.00000  Uiso   1.00
C847   C     0.76349   0.28055   0.39507   0.00000  Uiso   1.00
C848   C     0.82760   0.24600   0.49896   0.00000  Uiso   1.00
C849   C     0.86078   0.04554   0.61014   0.00000  Uiso   1.00
C850   C     0.92610   0.25649   0.37299   0.00000  Uiso   1.00
C851   C     0.70195   0.12028   0.61555   0.00000  Uiso   1.00
C852   C     0.73408   0.16635   0.48846   0.00000  Uiso   1.00
C853   C     0.93264   0.16837   0.51136   0.00000  Uiso   1.00
C854   C     0.67938   0.16003   0.48370   0.00000  Uiso   1.00
C855   C     0.98728   0.17644   0.51506   0.00000  Uiso   1.00
C856   C     0.83340   0.02077   0.45863   0.00000  Uiso   1.00
C857   C     0.80700   0.30974   0.53517   0.00000  Uiso   1.00
C858   C     0.82336   0.31161   0.45636   0.00000  Uiso   1.00
H859   H     0.98995   0.14520   0.41787   0.00000  Uiso   1.00
H860   H     0.80050   0.30131   0.63620   0.00000  Uiso   1.00
H861   H     0.85045   0.27865   0.60876   0.00000  Uiso   1.00
H862   H     0.79427   0.24737   0.62183   0.00000  Uiso   1.00
H863   H     0.83969   0.30289   0.39008   0.00000  Uiso   1.00
H864   H     0.74316   0.30914   0.38448   0.00000  Uiso   1.00
H865   H     0.74233   0.26343   0.42029   0.00000  Uiso   1.00
H866   H     0.76258   0.26029   0.36521   0.00000  Uiso   1.00
H867   H     0.78080   0.02936   0.59573   0.00000  Uiso   1.00
H868   H     0.87491   0.01559   0.62364   0.00000  Uiso   1.00
H869   H     0.85424   0.06509   0.63896   0.00000  Uiso   1.00
H870   H     0.67463   0.10451   0.45166   0.00000  Uiso   1.00
H871   H     0.89177   0.06136   0.59258   0.00000  Uiso   1.00
H872   H     0.90229   0.21825   0.42135   0.00000  Uiso   1.00
H873   H     0.93495   0.27822   0.40193   0.00000  Uiso   1.00
H874   H     0.89514   0.26968   0.34858   0.00000  Uiso   1.00
H875   H     0.96307   0.25470   0.35813   0.00000  Uiso   1.00
H876   H     0.76485   0.10967   0.58030   0.00000  Uiso   1.00
H877   H     0.67874   0.12104   0.58153   0.00000  Uiso   1.00
H878   H     0.69441   0.14815   0.63452   0.00000  Uiso   1.00
H879   H     0.68826   0.09206   0.63305   0.00000  Uiso   1.00
H880   H     0.91713   0.23468   0.62169   0.00000  Uiso   1.00
H881   H     0.67137   0.19860   0.57916   0.00000  Uiso   1.00
H882   H     0.95159   0.19462   0.64690   0.00000  Uiso   1.00
H883   H     0.77334   0.09944   0.39706   0.00000  Uiso   1.00
H884   H     0.72985   0.13708   0.38240   0.00000  Uiso   1.00
H885   H     0.99390   0.23514   0.53891   0.00000  Uiso   1.00
H886   H     0.82362   0.03542   0.38936   0.00000  Uiso   1.00
H887   H     0.91721   0.01696   0.40921   0.00000  Uiso   1.00
H888   H     0.92385   0.05967   0.44853   0.00000  Uiso   1.00
H889   H     0.90901   0.06920   0.38864   0.00000  Uiso   1.00
H890   H     0.74214   0.29762   0.56877   0.00000  Uiso   1.00
N891   N     0.83332   0.16666   0.61907   0.00000  Uiso   1.00
N892   N     0.75711   0.11814   0.61148   0.00000  Uiso   1.00
N893   N     0.91741   0.20278   0.62660   0.00000  Uiso   1.00
N894   N     0.75675   0.11823   0.37127   0.00000  Uiso   1.00
N895   N     0.83335   0.16668   0.38093   0.00000  Uiso   1.00
N896   N     0.98759   0.13165   0.44956   0.00000  Uiso   1.00
N897   N     0.67853   0.20732   0.54669   0.00000  Uiso   1.00
N898   N     0.84663   0.04271   0.41953   0.00000  Uiso   1.00
N899   N     0.77910   0.28769   0.56706   0.00000  Uiso   1.00
N900   N     0.81734   0.29097   0.41375   0.00000  Uiso   1.00
N901   N     0.81219   0.03944   0.57966   0.00000  Uiso   1.00
N902   N     0.90939   0.21595   0.38884   0.00000  Uiso   1.00
O903   O     0.83333   0.10558   0.53821   0.00000  Uiso   1.00
O904   O     0.83334   0.22775   0.46179   0.00000  Uiso   1.00
O905   O     0.83333   0.10559   0.46176   0.00000  Uiso   1.00
O906   O     0.83334   0.22774   0.53824   0.00000  Uiso   1.00
O907   O     0.75725   0.16666   0.52928   0.00000  Uiso   1.00
O908   O     0.90942   0.16667   0.47072   0.00000  Uiso   1.00
O909   O     0.75725   0.16667   0.45284   0.00000  Uiso   1.00
O910   O     0.90942   0.16666   0.54716   0.00000  Uiso   1.00
Zn911  Zn    0.83333   0.16666   0.55104   0.00000  Uiso   1.00
Zn912  Zn    0.83333   0.16667   0.44896   0.00000  Uiso   1.00
C913   C     0.16701   0.41975   0.50024   0.00000  Uiso   1.00
C914   C     0.14997   0.35245   0.53827   0.00000  Uiso   1.00
C915   C     0.15134   0.62289   0.49655   0.00000  Uiso   1.00
C916   C     0.16362   0.37478   0.49984   0.00000  Uiso   1.00
C917   C     0.20404   0.52385   0.36102   0.00000  Uiso   1.00
C918   C     0.12834   0.47778   0.63855   0.00000  Uiso   1.00
C919   C     0.20586   0.52089   0.64645   0.00000  Uiso   1.00
C920   C     0.12933   0.47703   0.35304   0.00000  Uiso   1.00
C921   C     0.23546   0.38058   0.41640   0.00000  Uiso   1.00
C922   C     0.14119   0.61181   0.61069   0.00000  Uiso   1.00
C923   C     0.09682   0.61388   0.39507   0.00000  Uiso   1.00
C924   C     0.16093   0.57934   0.49896   0.00000  Uiso   1.00
C925   C     0.19411   0.37888   0.61014   0.00000  Uiso   1.00
C926   C     0.25944   0.58982   0.37299   0.00000  Uiso   1.00
C927   C     0.03528   0.45362   0.61555   0.00000  Uiso   1.00
C928   C     0.06742   0.49969   0.48846   0.00000  Uiso   1.00
C929   C     0.26598   0.50170   0.51136   0.00000  Uiso   1.00
C930   C     0.01271   0.49337   0.48370   0.00000  Uiso   1.00
C931   C     0.32061   0.50978   0.51506   0.00000  Uiso   1.00
C932   C     0.16674   0.35411   0.45863   0.00000  Uiso   1.00
C933   C     0.14034   0.64307   0.53517   0.00000  Uiso   1.00
C934   C     0.15669   0.64494   0.45636   0.00000  Uiso   1.00
H935   H     0.32329   0.47853   0.41787   0.00000  Uiso   1.00
H936   H     0.13383   0.63465   0.63620   0.00000  Uiso   1.00
H937   H     0.18378   0.61198   0.60876   0.00000  Uiso   1.00
H938   H     0.12761   0.58070   0.62183   0.00000  Uiso   1.00
H939   H     0.17303   0.63622   0.39008   0.00000  Uiso   1.00
H940   H     0.07650   0.64247   0.38448   0.00000  Uiso   1.00
H941   H     0.07566   0.59677   0.42029   0.00000  Uiso   1.00
H942   H     0.09591   0.59362   0.36521   0.00000  Uiso   1.00
H943   H     0.11414   0.36269   0.59573   0.00000  Uiso   1.00
H944   H     0.20825   0.34892   0.62364   0.00000  Uiso   1.00
H945   H     0.18757   0.39842   0.63896   0.00000  Uiso   1.00
H946   H     0.00797   0.43785   0.45166   0.00000  Uiso   1.00
H947   H     0.22510   0.39469   0.59258   0.00000  Uiso   1.00
H948   H     0.23563   0.55158   0.42135   0.00000  Uiso   1.00
H949   H     0.26829   0.61155   0.40193   0.00000  Uiso   1.00
H950   H     0.22848   0.60301   0.34858   0.00000  Uiso   1.00
H951   H     0.29640   0.58803   0.35813   0.00000  Uiso   1.00
H952   H     0.09818   0.44301   0.58030   0.00000  Uiso   1.00
H953   H     0.01208   0.45438   0.58153   0.00000  Uiso   1.00
H954   H     0.02775   0.48148   0.63452   0.00000  Uiso   1.00
H955   H     0.02159   0.42540   0.63305   0.00000  Uiso   1.00
H956   H     0.25047   0.56801   0.62169   0.00000  Uiso   1.00
H957   H     0.00470   0.53193   0.57916   0.00000  Uiso   1.00
H958   H     0.28492   0.52795   0.64690   0.00000  Uiso   1.00
H959   H     0.10668   0.43277   0.39706   0.00000  Uiso   1.00
H960   H     0.06318   0.47042   0.38240   0.00000  Uiso   1.00
H961   H     0.32724   0.56847   0.53891   0.00000  Uiso   1.00
H962   H     0.15695   0.36876   0.38936   0.00000  Uiso   1.00
H963   H     0.25054   0.35030   0.40921   0.00000  Uiso   1.00
H964   H     0.25718   0.39300   0.44853   0.00000  Uiso   1.00
H965   H     0.24235   0.40253   0.38864   0.00000  Uiso   1.00
H966   H     0.07548   0.63095   0.56877   0.00000  Uiso   1.00
N967   N     0.16665   0.49999   0.61907   0.00000  Uiso   1.00
N968   N     0.09044   0.45147   0.61148   0.00000  Uiso   1.00
N969   N     0.25075   0.53612   0.62660   0.00000  Uiso   1.00
N970   N     0.09008   0.45156   0.37127   0.00000  Uiso   1.00
N971   N     0.16668   0.50001   0.38093   0.00000  Uiso   1.00
N972   N     0.32093   0.46498   0.44956   0.00000  Uiso   1.00
N973   N     0.01187   0.54065   0.54669   0.00000  Uiso   1.00
N974   N     0.17997   0.37604   0.41953   0.00000  Uiso   1.00
N975   N     0.11244   0.62103   0.56706   0.00000  Uiso   1.00
N976   N     0.15067   0.62431   0.41375   0.00000  Uiso   1.00
N977   N     0.14552   0.37277   0.57966   0.00000  Uiso   1.00
N978   N     0.24272   0.54929   0.38884   0.00000  Uiso   1.00
O979   O     0.16666   0.43892   0.53821   0.00000  Uiso   1.00
O980   O     0.16667   0.56108   0.46179   0.00000  Uiso   1.00
O981   O     0.16666   0.43893   0.46176   0.00000  Uiso   1.00
O982   O     0.16667   0.56107   0.53824   0.00000  Uiso   1.00
O983   O     0.09058   0.50000   0.52928   0.00000  Uiso   1.00
O984   O     0.24275   0.50000   0.47072   0.00000  Uiso   1.00
O985   O     0.09058   0.50000   0.45284   0.00000  Uiso   1.00
O986   O     0.24275   0.50000   0.54716   0.00000  Uiso   1.00
Zn987  Zn    0.16667   0.49999   0.55104   0.00000  Uiso   1.00
Zn988  Zn    0.16667   0.50001   0.44896   0.00000  Uiso   1.00
C989   C     0.50034   0.41975   0.50024   0.00000  Uiso   1.00
C990   C     0.48330   0.35245   0.53827   0.00000  Uiso   1.00
C991   C     0.48467   0.62289   0.49655   0.00000  Uiso   1.00
C992   C     0.49696   0.37478   0.49984   0.00000  Uiso   1.00
C993   C     0.53737   0.52385   0.36102   0.00000  Uiso   1.00
C994   C     0.46167   0.47778   0.63855   0.00000  Uiso   1.00
C995   C     0.53919   0.52089   0.64645   0.00000  Uiso   1.00
C996   C     0.46267   0.47703   0.35304   0.00000  Uiso   1.00
C997   C     0.56879   0.38058   0.41640   0.00000  Uiso   1.00
C998   C     0.47452   0.61181   0.61069   0.00000  Uiso   1.00
C999   C     0.43016   0.61388   0.39507   0.00000  Uiso   1.00
C1000  C     0.49426   0.57934   0.49896   0.00000  Uiso   1.00
C1001  C     0.52744   0.37888   0.61014   0.00000  Uiso   1.00
C1002  C     0.59277   0.58982   0.37299   0.00000  Uiso   1.00
C1003  C     0.36862   0.45362   0.61555   0.00000  Uiso   1.00
C1004  C     0.40075   0.49969   0.48846   0.00000  Uiso   1.00
C1005  C     0.59931   0.50170   0.51136   0.00000  Uiso   1.00
C1006  C     0.34604   0.49337   0.48370   0.00000  Uiso   1.00
C1007  C     0.65394   0.50978   0.51506   0.00000  Uiso   1.00
C1008  C     0.50007   0.35411   0.45863   0.00000  Uiso   1.00
C1009  C     0.47367   0.64307   0.53517   0.00000  Uiso   1.00
C1010  C     0.49003   0.64494   0.45636   0.00000  Uiso   1.00
H1011  H     0.65662   0.47853   0.41787   0.00000  Uiso   1.00
H1012  H     0.46717   0.63465   0.63620   0.00000  Uiso   1.00
H1013  H     0.51712   0.61198   0.60876   0.00000  Uiso   1.00
H1014  H     0.46094   0.58070   0.62183   0.00000  Uiso   1.00
H1015  H     0.50636   0.63622   0.39008   0.00000  Uiso   1.00
H1016  H     0.40983   0.64247   0.38448   0.00000  Uiso   1.00
H1017  H     0.40900   0.59677   0.42029   0.00000  Uiso   1.00
H1018  H     0.42925   0.59362   0.36521   0.00000  Uiso   1.00
H1019  H     0.44747   0.36269   0.59573   0.00000  Uiso   1.00
H1020  H     0.54158   0.34892   0.62364   0.00000  Uiso   1.00
H1021  H     0.52091   0.39842   0.63896   0.00000  Uiso   1.00
H1022  H     0.34130   0.43785   0.45166   0.00000  Uiso   1.00
H1023  H     0.55843   0.39469   0.59258   0.00000  Uiso   1.00
H1024  H     0.56896   0.55158   0.42135   0.00000  Uiso   1.00
H1025  H     0.60162   0.61155   0.40193   0.00000  Uiso   1.00
H1026  H     0.56181   0.60301   0.34858   0.00000  Uiso   1.00
H1027  H     0.62974   0.58803   0.35813   0.00000  Uiso   1.00
H1028  H     0.43152   0.44301   0.58030   0.00000  Uiso   1.00
H1029  H     0.34541   0.45438   0.58153   0.00000  Uiso   1.00
H1030  H     0.36108   0.48148   0.63452   0.00000  Uiso   1.00
H1031  H     0.35492   0.42540   0.63305   0.00000  Uiso   1.00
H1032  H     0.58380   0.56801   0.62169   0.00000  Uiso   1.00
H1033  H     0.33804   0.53193   0.57916   0.00000  Uiso   1.00
H1034  H     0.61825   0.52795   0.64690   0.00000  Uiso   1.00
H1035  H     0.44001   0.43277   0.39706   0.00000  Uiso   1.00
H1036  H     0.39651   0.47042   0.38240   0.00000  Uiso   1.00
H1037  H     0.66057   0.56847   0.53891   0.00000  Uiso   1.00
H1038  H     0.49029   0.36876   0.38936   0.00000  Uiso   1.00
H1039  H     0.58387   0.35030   0.40921   0.00000  Uiso   1.00
H1040  H     0.59051   0.39300   0.44853   0.00000  Uiso   1.00
H1041  H     0.57568   0.40253   0.38864   0.00000  Uiso   1.00
H1042  H     0.40881   0.63095   0.56877   0.00000  Uiso   1.00
N1043  N     0.49999   0.49999   0.61907   0.00000  Uiso   1.00
N1044  N     0.42378   0.45147   0.61148   0.00000  Uiso   1.00
N1045  N     0.58408   0.53612   0.62660   0.00000  Uiso   1.00
N1046  N     0.42342   0.45156   0.37127   0.00000  Uiso   1.00
N1047  N     0.50001   0.50001   0.38093   0.00000  Uiso   1.00
N1048  N     0.65426   0.46498   0.44956   0.00000  Uiso   1.00
N1049  N     0.34520   0.54065   0.54669   0.00000  Uiso   1.00
N1050  N     0.51330   0.37604   0.41953   0.00000  Uiso   1.00
N1051  N     0.44577   0.62103   0.56706   0.00000  Uiso   1.00
N1052  N     0.48401   0.62431   0.41375   0.00000  Uiso   1.00
N1053  N     0.47885   0.37277   0.57966   0.00000  Uiso   1.00
N1054  N     0.57606   0.54929   0.38884   0.00000  Uiso   1.00
O1055  O     0.50000   0.43892   0.53821   0.00000  Uiso   1.00
O1056  O     0.50000   0.56108   0.46179   0.00000  Uiso   1.00
O1057  O     0.50000   0.43893   0.46176   0.00000  Uiso   1.00
O1058  O     0.50000   0.56107   0.53824   0.00000  Uiso   1.00
O1059  O     0.42392   0.50000   0.52928   0.00000  Uiso   1.00
O1060  O     0.57608   0.50000   0.47072   0.00000  Uiso   1.00
O1061  O     0.42392   0.50000   0.45284   0.00000  Uiso   1.00
O1062  O     0.57608   0.50000   0.54716   0.00000  Uiso   1.00
Zn1063 Zn    0.50000   0.49999   0.55104   0.00000  Uiso   1.00
Zn1064 Zn    0.50000   0.50001   0.44896   0.00000  Uiso   1.00
C1065  C     0.83368   0.41975   0.50024   0.00000  Uiso   1.00
C1066  C     0.81663   0.35245   0.53827   0.00000  Uiso   1.00
C1067  C     0.81800   0.62289   0.49655   0.00000  Uiso   1.00
C1068  C     0.83029   0.37478   0.49984   0.00000  Uiso   1.00
C1069  C     0.87070   0.52385   0.36102   0.00000  Uiso   1.00
C1070  C     0.79501   0.47778   0.63855   0.00000  Uiso   1.00
C1071  C     0.87253   0.52089   0.64645   0.00000  Uiso   1.00
C1072  C     0.79600   0.47703   0.35304   0.00000  Uiso   1.00
C1073  C     0.90212   0.38058   0.41640   0.00000  Uiso   1.00
C1074  C     0.80786   0.61181   0.61069   0.00000  Uiso   1.00
C1075  C     0.76349   0.61388   0.39507   0.00000  Uiso   1.00
C1076  C     0.82760   0.57934   0.49896   0.00000  Uiso   1.00
C1077  C     0.86078   0.37888   0.61014   0.00000  Uiso   1.00
C1078  C     0.92610   0.58982   0.37299   0.00000  Uiso   1.00
C1079  C     0.70195   0.45362   0.61555   0.00000  Uiso   1.00
C1080  C     0.73408   0.49969   0.48846   0.00000  Uiso   1.00
C1081  C     0.93264   0.50170   0.51136   0.00000  Uiso   1.00
C1082  C     0.67938   0.49337   0.48370   0.00000  Uiso   1.00
C1083  C     0.98728   0.50978   0.51506   0.00000  Uiso   1.00
C1084  C     0.83340   0.35411   0.45863   0.00000  Uiso   1.00
C1085  C     0.80700   0.64307   0.53517   0.00000  Uiso   1.00
C1086  C     0.82336   0.64494   0.45636   0.00000  Uiso   1.00
H1087  H     0.98995   0.47853   0.41787   0.00000  Uiso   1.00
H1088  H     0.80050   0.63465   0.63620   0.00000  Uiso   1.00
H1089  H     0.85045   0.61198   0.60876   0.00000  Uiso   1.00
H1090  H     0.79427   0.58070   0.62183   0.00000  Uiso   1.00
H1091  H     0.83969   0.63622   0.39008   0.00000  Uiso   1.00
H1092  H     0.74316   0.64247   0.38448   0.00000  Uiso   1.00
H1093  H     0.74233   0.59677   0.42029   0.00000  Uiso   1.00
H1094  H     0.76258   0.59362   0.36521   0.00000  Uiso   1.00
H1095  H     0.78080   0.36269   0.59573   0.00000  Uiso   1.00
H1096  H     0.87491   0.34892   0.62364   0.00000  Uiso   1.00
H1097  H     0.85424   0.39842   0.63896   0.00000  Uiso   1.00
H1098  H     0.67463   0.43785   0.45166   0.00000  Uiso   1.00
H1099  H     0.89177   0.39469   0.59258   0.00000  Uiso   1.00
H1100  H     0.90229   0.55158   0.42135   0.00000  Uiso   1.00
H1101  H     0.93495   0.61155   0.40193   0.00000  Uiso   1.00
H1102  H     0.89514   0.60301   0.34858   0.00000  Uiso   1.00
H1103  H     0.96307   0.58803   0.35813   0.00000  Uiso   1.00
H1104  H     0.76485   0.44301   0.58030   0.00000  Uiso   1.00
H1105  H     0.67874   0.45438   0.58153   0.00000  Uiso   1.00
H1106  H     0.69441   0.48148   0.63452   0.00000  Uiso   1.00
H1107  H     0.68826   0.42540   0.63305   0.00000  Uiso   1.00
H1108  H     0.91713   0.56801   0.62169   0.00000  Uiso   1.00
H1109  H     0.67137   0.53193   0.57916   0.00000  Uiso   1.00
H1110  H     0.95159   0.52795   0.64690   0.00000  Uiso   1.00
H1111  H     0.77334   0.43277   0.39706   0.00000  Uiso   1.00
H1112  H     0.72985   0.47042   0.38240   0.00000  Uiso   1.00
H1113  H     0.99390   0.56847   0.53891   0.00000  Uiso   1.00
H1114  H     0.82362   0.36876   0.38936   0.00000  Uiso   1.00
H1115  H     0.91721   0.35030   0.40921   0.00000  Uiso   1.00
H1116  H     0.92385   0.39300   0.44853   0.00000  Uiso   1.00
H1117  H     0.90901   0.40253   0.38864   0.00000  Uiso   1.00
H1118  H     0.74214   0.63095   0.56877   0.00000  Uiso   1.00
N1119  N     0.83332   0.49999   0.61907   0.00000  Uiso   1.00
N1120  N     0.75711   0.45147   0.61148   0.00000  Uiso   1.00
N1121  N     0.91741   0.53612   0.62660   0.00000  Uiso   1.00
N1122  N     0.75675   0.45156   0.37127   0.00000  Uiso   1.00
N1123  N     0.83335   0.50001   0.38093   0.00000  Uiso   1.00
N1124  N     0.98759   0.46498   0.44956   0.00000  Uiso   1.00
N1125  N     0.67853   0.54065   0.54669   0.00000  Uiso   1.00
N1126  N     0.84663   0.37604   0.41953   0.00000  Uiso   1.00
N1127  N     0.77910   0.62103   0.56706   0.00000  Uiso   1.00
N1128  N     0.81734   0.62431   0.41375   0.00000  Uiso   1.00
N1129  N     0.81219   0.37277   0.57966   0.00000  Uiso   1.00
N1130  N     0.90939   0.54929   0.38884   0.00000  Uiso   1.00
O1131  O     0.83333   0.43892   0.53821   0.00000  Uiso   1.00
O1132  O     0.83334   0.56108   0.46179   0.00000  Uiso   1.00
O1133  O     0.83333   0.43893   0.46176   0.00000  Uiso   1.00
O1134  O     0.83334   0.56107   0.53824   0.00000  Uiso   1.00
O1135  O     0.75725   0.50000   0.52928   0.00000  Uiso   1.00
O1136  O     0.90942   0.50000   0.47072   0.00000  Uiso   1.00
O1137  O     0.75725   0.50000   0.45284   0.00000  Uiso   1.00
O1138  O     0.90942   0.50000   0.54716   0.00000  Uiso   1.00
Zn1139 Zn    0.83333   0.49999   0.55104   0.00000  Uiso   1.00
Zn1140 Zn    0.83333   0.50001   0.44896   0.00000  Uiso   1.00
C1141  C     0.16701   0.75309   0.50024   0.00000  Uiso   1.00
C1142  C     0.14997   0.68578   0.53827   0.00000  Uiso   1.00
C1143  C     0.15134   0.95622   0.49655   0.00000  Uiso   1.00
C1144  C     0.16362   0.70811   0.49984   0.00000  Uiso   1.00
C1145  C     0.20404   0.85718   0.36102   0.00000  Uiso   1.00
C1146  C     0.12834   0.81111   0.63855   0.00000  Uiso   1.00
C1147  C     0.20586   0.85422   0.64645   0.00000  Uiso   1.00
C1148  C     0.12933   0.81036   0.35304   0.00000  Uiso   1.00
C1149  C     0.23546   0.71391   0.41640   0.00000  Uiso   1.00
C1150  C     0.14119   0.94514   0.61069   0.00000  Uiso   1.00
C1151  C     0.09682   0.94722   0.39507   0.00000  Uiso   1.00
C1152  C     0.16093   0.91267   0.49896   0.00000  Uiso   1.00
C1153  C     0.19411   0.71221   0.61014   0.00000  Uiso   1.00
C1154  C     0.25944   0.92315   0.37299   0.00000  Uiso   1.00
C1155  C     0.03528   0.78695   0.61555   0.00000  Uiso   1.00
C1156  C     0.06742   0.83302   0.48846   0.00000  Uiso   1.00
C1157  C     0.26598   0.83503   0.51136   0.00000  Uiso   1.00
C1158  C     0.01271   0.82670   0.48370   0.00000  Uiso   1.00
C1159  C     0.32061   0.84311   0.51506   0.00000  Uiso   1.00
C1160  C     0.16674   0.68744   0.45863   0.00000  Uiso   1.00
C1161  C     0.14034   0.97641   0.53517   0.00000  Uiso   1.00
C1162  C     0.15669   0.97828   0.45636   0.00000  Uiso   1.00
H1163  H     0.32329   0.81186   0.41787   0.00000  Uiso   1.00
H1164  H     0.13383   0.96798   0.63620   0.00000  Uiso   1.00
H1165  H     0.18378   0.94532   0.60876   0.00000  Uiso   1.00
H1166  H     0.12761   0.91404   0.62183   0.00000  Uiso   1.00
H1167  H     0.17303   0.96956   0.39008   0.00000  Uiso   1.00
H1168  H     0.07650   0.97580   0.38448   0.00000  Uiso   1.00
H1169  H     0.07566   0.93010   0.42029   0.00000  Uiso   1.00
H1170  H     0.09591   0.92696   0.36521   0.00000  Uiso   1.00
H1171  H     0.11414   0.69603   0.59573   0.00000  Uiso   1.00
H1172  H     0.20825   0.68226   0.62364   0.00000  Uiso   1.00
H1173  H     0.18757   0.73175   0.63896   0.00000  Uiso   1.00
H1174  H     0.00797   0.77118   0.45166   0.00000  Uiso   1.00
H1175  H     0.22510   0.72803   0.59258   0.00000  Uiso   1.00
H1176  H     0.23563   0.88492   0.42135   0.00000  Uiso   1.00
H1177  H     0.26829   0.94489   0.40193   0.00000  Uiso   1.00
H1178  H     0.22848   0.93634   0.34858   0.00000  Uiso   1.00
H1179  H     0.29640   0.92137   0.35813   0.00000  Uiso   1.00
H1180  H     0.09818   0.77634   0.58030   0.00000  Uiso   1.00
H1181  H     0.01208   0.78771   0.58153   0.00000  Uiso   1.00
H1182  H     0.02775   0.81481   0.63452   0.00000  Uiso   1.00
H1183  H     0.02159   0.75873   0.63305   0.00000  Uiso   1.00
H1184  H     0.25047   0.90134   0.62169   0.00000  Uiso   1.00
H1185  H     0.00470   0.86527   0.57916   0.00000  Uiso   1.00
H1186  H     0.28492   0.86128   0.64690   0.00000  Uiso   1.00
H1187  H     0.10668   0.76610   0.39706   0.00000  Uiso   1.00
H1188  H     0.06318   0.80375   0.38240   0.00000  Uiso   1.00
H1189  H     0.32724   0.90181   0.53891   0.00000  Uiso   1.00
H1190  H     0.15695   0.70209   0.38936   0.00000  Uiso   1.00
H1191  H     0.25054   0.68363   0.40921   0.00000  Uiso   1.00
H1192  H     0.25718   0.72634   0.44853   0.00000  Uiso   1.00
H1193  H     0.24235   0.73587   0.38864   0.00000  Uiso   1.00
H1194  H     0.07548   0.96429   0.56877   0.00000  Uiso   1.00
N1195  N     0.16665   0.83332   0.61907   0.00000  Uiso   1.00
N1196  N     0.09044   0.78480   0.61148   0.00000  Uiso   1.00
N1197  N     0.25075   0.86945   0.62660   0.00000  Uiso   1.00
N1198  N     0.09008   0.78489   0.37127   0.00000  Uiso   1.00
N1199  N     0.16668   0.83334   0.38093   0.00000  Uiso   1.00
N1200  N     0.32093   0.79831   0.44956   0.00000  Uiso   1.00
N1201  N     0.01187   0.87398   0.54669   0.00000  Uiso   1.00
N1202  N     0.17997   0.70937   0.41953   0.00000  Uiso   1.00
N1203  N     0.11244   0.95436   0.56706   0.00000  Uiso   1.00
N1204  N     0.15067   0.95764   0.41375   0.00000  Uiso   1.00
N1205  N     0.14552   0.70611   0.57966   0.00000  Uiso   1.00
N1206  N     0.24272   0.88262   0.38884   0.00000  Uiso   1.00
O1207  O     0.16666   0.77225   0.53821   0.00000  Uiso   1.00
O1208  O     0.16667   0.89442   0.46179   0.00000  Uiso   1.00
O1209  O     0.16666   0.77226   0.46176   0.00000  Uiso   1.00
O1210  O     0.16667   0.89441   0.53824   0.00000  Uiso   1.00
O1211  O     0.09058   0.83333   0.52928   0.00000  Uiso   1.00
O1212  O     0.24275   0.83334   0.47072   0.00000  Uiso   1.00
O1213  O     0.09058   0.83334   0.45284   0.00000  Uiso   1.00
O1214  O     0.24275   0.83333   0.54716   0.00000  Uiso   1.00
Zn1215 Zn    0.16667   0.83333   0.55104   0.00000  Uiso   1.00
Zn1216 Zn    0.16667   0.83334   0.44896   0.00000  Uiso   1.00
C1217  C     0.50034   0.75309   0.50024   0.00000  Uiso   1.00
C1218  C     0.48330   0.68578   0.53827   0.00000  Uiso   1.00
C1219  C     0.48467   0.95622   0.49655   0.00000  Uiso   1.00
C1220  C     0.49696   0.70811   0.49984   0.00000  Uiso   1.00
C1221  C     0.53737   0.85718   0.36102   0.00000  Uiso   1.00
C1222  C     0.46167   0.81111   0.63855   0.00000  Uiso   1.00
C1223  C     0.53919   0.85422   0.64645   0.00000  Uiso   1.00
C1224  C     0.46267   0.81036   0.35304   0.00000  Uiso   1.00
C1225  C     0.56879   0.71391   0.41640   0.00000  Uiso   1.00
C1226  C     0.47452   0.94514   0.61069   0.00000  Uiso   1.00
C1227  C     0.43016   0.94722   0.39507   0.00000  Uiso   1.00
C1228  C     0.49426   0.91267   0.49896   0.00000  Uiso   1.00
C1229  C     0.52744   0.71221   0.61014   0.00000  Uiso   1.00
C1230  C     0.59277   0.92315   0.37299   0.00000  Uiso   1.00
C1231  C     0.36862   0.78695   0.61555   0.00000  Uiso   1.00
C1232  C     0.40075   0.83302   0.48846   0.00000  Uiso   1.00
C1233  C     0.59931   0.83503   0.51136   0.00000  Uiso   1.00
C1234  C     0.34604   0.82670   0.48370   0.00000  Uiso   1.00
C1235  C     0.65394   0.84311   0.51506   0.00000  Uiso   1.00
C1236  C     0.50007   0.68744   0.45863   0.00000  Uiso   1.00
C1237  C     0.47367   0.97641   0.53517   0.00000  Uiso   1.00
C1238  C     0.49003   0.97828   0.45636   0.00000  Uiso   1.00
H1239  H     0.65662   0.81186   0.41787   0.00000  Uiso   1.00
H1240  H     0.46717   0.96798   0.63620   0.00000  Uiso   1.00
H1241  H     0.51712   0.94532   0.60876   0.00000  Uiso   1.00
H1242  H     0.46094   0.91404   0.62183   0.00000  Uiso   1.00
H1243  H     0.50636   0.96956   0.39008   0.00000  Uiso   1.00
H1244  H     0.40983   0.97580   0.38448   0.00000  Uiso   1.00
H1245  H     0.40900   0.93010   0.42029   0.00000  Uiso   1.00
H1246  H     0.42925   0.92696   0.36521   0.00000  Uiso   1.00
H1247  H     0.44747   0.69603   0.59573   0.00000  Uiso   1.00
H1248  H     0.54158   0.68226   0.62364   0.00000  Uiso   1.00
H1249  H     0.52091   0.73175   0.63896   0.00000  Uiso   1.00
H1250  H     0.34130   0.77118   0.45166   0.00000  Uiso   1.00
H1251  H     0.55843   0.72803   0.59258   0.00000  Uiso   1.00
H1252  H     0.56896   0.88492   0.42135   0.00000  Uiso   1.00
H1253  H     0.60162   0.94489   0.40193   0.00000  Uiso   1.00
H1254  H     0.56181   0.93634   0.34858   0.00000  Uiso   1.00
H1255  H     0.62974   0.92137   0.35813   0.00000  Uiso   1.00
H1256  H     0.43152   0.77634   0.58030   0.00000  Uiso   1.00
H1257  H     0.34541   0.78771   0.58153   0.00000  Uiso   1.00
H1258  H     0.36108   0.81481   0.63452   0.00000  Uiso   1.00
H1259  H     0.35492   0.75873   0.63305   0.00000  Uiso   1.00
H1260  H     0.58380   0.90134   0.62169   0.00000  Uiso   1.00
H1261  H     0.33804   0.86527   0.57916   0.00000  Uiso   1.00
H1262  H     0.61825   0.86128   0.64690   0.00000  Uiso   1.00
H1263  H     0.44001   0.76610   0.39706   0.00000  Uiso   1.00
H1264  H     0.39651   0.80375   0.38240   0.00000  Uiso   1.00
H1265  H     0.66057   0.90181   0.53891   0.00000  Uiso   1.00
H1266  H     0.49029   0.70209   0.38936   0.00000  Uiso   1.00
H1267  H     0.58387   0.68363   0.40921   0.00000  Uiso   1.00
H1268  H     0.59051   0.72634   0.44853   0.00000  Uiso   1.00
H1269  H     0.57568   0.73587   0.38864   0.00000  Uiso   1.00
H1270  H     0.40881   0.96429   0.56877   0.00000  Uiso   1.00
N1271  N     0.49999   0.83332   0.61907   0.00000  Uiso   1.00
N1272  N     0.42378   0.78480   0.61148   0.00000  Uiso   1.00
N1273  N     0.58408   0.86945   0.62660   0.00000  Uiso   1.00
N1274  N     0.42342   0.78489   0.37127   0.00000  Uiso   1.00
N1275  N     0.50001   0.83334   0.38093   0.00000  Uiso   1.00
N1276  N     0.65426   0.79831   0.44956   0.00000  Uiso   1.00
N1277  N     0.34520   0.87398   0.54669   0.00000  Uiso   1.00
N1278  N     0.51330   0.70937   0.41953   0.00000  Uiso   1.00
N1279  N     0.44577   0.95436   0.56706   0.00000  Uiso   1.00
N1280  N     0.48401   0.95764   0.41375   0.00000  Uiso   1.00
N1281  N     0.47885   0.70611   0.57966   0.00000  Uiso   1.00
N1282  N     0.57606   0.88262   0.38884   0.00000  Uiso   1.00
O1283  O     0.50000   0.77225   0.53821   0.00000  Uiso   1.00
O1284  O     0.50000   0.89442   0.46179   0.00000  Uiso   1.00
O1285  O     0.50000   0.77226   0.46176   0.00000  Uiso   1.00
O1286  O     0.50000   0.89441   0.53824   0.00000  Uiso   1.00
O1287  O     0.42392   0.83333   0.52928   0.00000  Uiso   1.00
O1288  O     0.57608   0.83334   0.47072   0.00000  Uiso   1.00
O1289  O     0.42392   0.83334   0.45284   0.00000  Uiso   1.00
O1290  O     0.57608   0.83333   0.54716   0.00000  Uiso   1.00
Zn1291 Zn    0.50000   0.83333   0.55104   0.00000  Uiso   1.00
Zn1292 Zn    0.50000   0.83334   0.44896   0.00000  Uiso   1.00
C1293  C     0.83368   0.75309   0.50024   0.00000  Uiso   1.00
C1294  C     0.81663   0.68578   0.53827   0.00000  Uiso   1.00
C1295  C     0.81800   0.95622   0.49655   0.00000  Uiso   1.00
C1296  C     0.83029   0.70811   0.49984   0.00000  Uiso   1.00
C1297  C     0.87070   0.85718   0.36102   0.00000  Uiso   1.00
C1298  C     0.79501   0.81111   0.63855   0.00000  Uiso   1.00
C1299  C     0.87253   0.85422   0.64645   0.00000  Uiso   1.00
C1300  C     0.79600   0.81036   0.35304   0.00000  Uiso   1.00
C1301  C     0.90212   0.71391   0.41640   0.00000  Uiso   1.00
C1302  C     0.80786   0.94514   0.61069   0.00000  Uiso   1.00
C1303  C     0.76349   0.94722   0.39507   0.00000  Uiso   1.00
C1304  C     0.82760   0.91267   0.49896   0.00000  Uiso   1.00
C1305  C     0.86078   0.71221   0.61014   0.00000  Uiso   1.00
C1306  C     0.92610   0.92315   0.37299   0.00000  Uiso   1.00
C1307  C     0.70195   0.78695   0.61555   0.00000  Uiso   1.00
C1308  C     0.73408   0.83302   0.48846   0.00000  Uiso   1.00
C1309  C     0.93264   0.83503   0.51136   0.00000  Uiso   1.00
C1310  C     0.67938   0.82670   0.48370   0.00000  Uiso   1.00
C1311  C     0.98728   0.84311   0.51506   0.00000  Uiso   1.00
C1312  C     0.83340   0.68744   0.45863   0.00000  Uiso   1.00
C1313  C     0.80700   0.97641   0.53517   0.00000  Uiso   1.00
C1314  C     0.82336   0.97828   0.45636   0.00000  Uiso   1.00
H1315  H     0.98995   0.81186   0.41787   0.00000  Uiso   1.00
H1316  H     0.80050   0.96798   0.63620   0.00000  Uiso   1.00
H1317  H     0.85045   0.94532   0.60876   0.00000  Uiso   1.00
H1318  H     0.79427   0.91404   0.62183   0.00000  Uiso   1.00
H1319  H     0.83969   0.96956   0.39008   0.00000  Uiso   1.00
H1320  H     0.74316   0.97580   0.38448   0.00000  Uiso   1.00
H1321  H     0.74233   0.93010   0.42029   0.00000  Uiso   1.00
H1322  H     0.76258   0.92696   0.36521   0.00000  Uiso   1.00
H1323  H     0.78080   0.69603   0.59573   0.00000  Uiso   1.00
H1324  H     0.87491   0.68226   0.62364   0.00000  Uiso   1.00
H1325  H     0.85424   0.73175   0.63896   0.00000  Uiso   1.00
H1326  H     0.67463   0.77118   0.45166   0.00000  Uiso   1.00
H1327  H     0.89177   0.72803   0.59258   0.00000  Uiso   1.00
H1328  H     0.90229   0.88492   0.42135   0.00000  Uiso   1.00
H1329  H     0.93495   0.94489   0.40193   0.00000  Uiso   1.00
H1330  H     0.89514   0.93634   0.34858   0.00000  Uiso   1.00
H1331  H     0.96307   0.92137   0.35813   0.00000  Uiso   1.00
H1332  H     0.76485   0.77634   0.58030   0.00000  Uiso   1.00
H1333  H     0.67874   0.78771   0.58153   0.00000  Uiso   1.00
H1334  H     0.69441   0.81481   0.63452   0.00000  Uiso   1.00
H1335  H     0.68826   0.75873   0.63305   0.00000  Uiso   1.00
H1336  H     0.91713   0.90134   0.62169   0.00000  Uiso   1.00
H1337  H     0.67137   0.86527   0.57916   0.00000  Uiso   1.00
H1338  H     0.95159   0.86128   0.64690   0.00000  Uiso   1.00
H1339  H     0.77334   0.76610   0.39706   0.00000  Uiso   1.00
H1340  H     0.72985   0.80375   0.38240   0.00000  Uiso   1.00
H1341  H     0.99390   0.90181   0.53891   0.00000  Uiso   1.00
H1342  H     0.82362   0.70209   0.38936   0.00000  Uiso   1.00
H1343  H     0.91721   0.68363   0.40921   0.00000  Uiso   1.00
H1344  H     0.92385   0.72634   0.44853   0.00000  Uiso   1.00
H1345  H     0.90901   0.73587   0.38864   0.00000  Uiso   1.00
H1346  H     0.74214   0.96429   0.56877   0.00000  Uiso   1.00
N1347  N     0.83332   0.83332   0.61907   0.00000  Uiso   1.00
N1348  N     0.75711   0.78480   0.61148   0.00000  Uiso   1.00
N1349  N     0.91741   0.86945   0.62660   0.00000  Uiso   1.00
N1350  N     0.75675   0.78489   0.37127   0.00000  Uiso   1.00
N1351  N     0.83335   0.83334   0.38093   0.00000  Uiso   1.00
N1352  N     0.98759   0.79831   0.44956   0.00000  Uiso   1.00
N1353  N     0.67853   0.87398   0.54669   0.00000  Uiso   1.00
N1354  N     0.84663   0.70937   0.41953   0.00000  Uiso   1.00
N1355  N     0.77910   0.95436   0.56706   0.00000  Uiso   1.00
N1356  N     0.81734   0.95764   0.41375   0.00000  Uiso   1.00
N1357  N     0.81219   0.70611   0.57966   0.00000  Uiso   1.00
N1358  N     0.90939   0.88262   0.38884   0.00000  Uiso   1.00
O1359  O     0.83333   0.77225   0.53821   0.00000  Uiso   1.00
O1360  O     0.83334   0.89442   0.46179   0.00000  Uiso   1.00
O1361  O     0.83333   0.77226   0.46176   0.00000  Uiso   1.00
O1362  O     0.83334   0.89441   0.53824   0.00000  Uiso   1.00
O1363  O     0.75725   0.83333   0.52928   0.00000  Uiso   1.00
O1364  O     0.90942   0.83334   0.47072   0.00000  Uiso   1.00
O1365  O     0.75725   0.83334   0.45284   0.00000  Uiso   1.00
O1366  O     0.90942   0.83333   0.54716   0.00000  Uiso   1.00
Zn1367 Zn    0.83333   0.83333   0.55104   0.00000  Uiso   1.00
Zn1368 Zn    0.83333   0.83334   0.44896   0.00000  Uiso   1.00
C1369  C     0.16701   0.08642   0.83357   0.00000  Uiso   1.00
C1370  C     0.14997   0.01911   0.87160   0.00000  Uiso   1.00
C1371  C     0.15134   0.28955   0.82988   0.00000  Uiso   1.00
C1372  C     0.16362   0.04144   0.83317   0.00000  Uiso   1.00
C1373  C     0.20404   0.19051   0.69435   0.00000  Uiso   1.00
C1374  C     0.12834   0.14445   0.97189   0.00000  Uiso   1.00
C1375  C     0.20586   0.18755   0.97978   0.00000  Uiso   1.00
C1376  C     0.12933   0.14370   0.68637   0.00000  Uiso   1.00
C1377  C     0.23546   0.04724   0.74973   0.00000  Uiso   1.00
C1378  C     0.14119   0.27848   0.94402   0.00000  Uiso   1.00
C1379  C     0.09682   0.28055   0.72840   0.00000  Uiso   1.00
C1380  C     0.16093   0.24600   0.83230   0.00000  Uiso   1.00
C1381  C     0.19411   0.04554   0.94347   0.00000  Uiso   1.00
C1382  C     0.25944   0.25649   0.70632   0.00000  Uiso   1.00
C1383  C     0.03528   0.12028   0.94889   0.00000  Uiso   1.00
C1384  C     0.06742   0.16635   0.82179   0.00000  Uiso   1.00
C1385  C     0.26598   0.16837   0.84470   0.00000  Uiso   1.00
C1386  C     0.01271   0.16003   0.81704   0.00000  Uiso   1.00
C1387  C     0.32061   0.17644   0.84840   0.00000  Uiso   1.00
C1388  C     0.16674   0.02077   0.79197   0.00000  Uiso   1.00
C1389  C     0.14034   0.30974   0.86850   0.00000  Uiso   1.00
C1390  C     0.15669   0.31161   0.78970   0.00000  Uiso   1.00
H1391  H     0.32329   0.14520   0.75121   0.00000  Uiso   1.00
H1392  H     0.13383   0.30131   0.96954   0.00000  Uiso   1.00
H1393  H     0.18378   0.27865   0.94209   0.00000  Uiso   1.00
H1394  H     0.12761   0.24737   0.95516   0.00000  Uiso   1.00
H1395  H     0.17303   0.30289   0.72342   0.00000  Uiso   1.00
H1396  H     0.07650   0.30914   0.71781   0.00000  Uiso   1.00
H1397  H     0.07566   0.26343   0.75362   0.00000  Uiso   1.00
H1398  H     0.09591   0.26029   0.69854   0.00000  Uiso   1.00
H1399  H     0.11414   0.02936   0.92906   0.00000  Uiso   1.00
H1400  H     0.20825   0.01559   0.95697   0.00000  Uiso   1.00
H1401  H     0.18757   0.06509   0.97229   0.00000  Uiso   1.00
H1402  H     0.00797   0.10451   0.78499   0.00000  Uiso   1.00
H1403  H     0.22510   0.06136   0.92592   0.00000  Uiso   1.00
H1404  H     0.23563   0.21825   0.75469   0.00000  Uiso   1.00
H1405  H     0.26829   0.27822   0.73527   0.00000  Uiso   1.00
H1406  H     0.22848   0.26968   0.68191   0.00000  Uiso   1.00
H1407  H     0.29640   0.25470   0.69146   0.00000  Uiso   1.00
H1408  H     0.09818   0.10967   0.91363   0.00000  Uiso   1.00
H1409  H     0.01208   0.12104   0.91486   0.00000  Uiso   1.00
H1410  H     0.02775   0.14815   0.96785   0.00000  Uiso   1.00
H1411  H     0.02159   0.09206   0.96638   0.00000  Uiso   1.00
H1412  H     0.25047   0.23468   0.95502   0.00000  Uiso   1.00
H1413  H     0.00470   0.19860   0.91250   0.00000  Uiso   1.00
H1414  H     0.28492   0.19462   0.98024   0.00000  Uiso   1.00
H1415  H     0.10668   0.09944   0.73039   0.00000  Uiso   1.00
H1416  H     0.06318   0.13708   0.71574   0.00000  Uiso   1.00
H1417  H     0.32724   0.23514   0.87224   0.00000  Uiso   1.00
H1418  H     0.15695   0.03542   0.72270   0.00000  Uiso   1.00
H1419  H     0.25054   0.01696   0.74254   0.00000  Uiso   1.00
H1420  H     0.25718   0.05967   0.78186   0.00000  Uiso   1.00
H1421  H     0.24235   0.06920   0.72197   0.00000  Uiso   1.00
H1422  H     0.07548   0.29762   0.90210   0.00000  Uiso   1.00
N1423  N     0.16665   0.16666   0.95240   0.00000  Uiso   1.00
N1424  N     0.09044   0.11814   0.94481   0.00000  Uiso   1.00
N1425  N     0.25075   0.20278   0.95994   0.00000  Uiso   1.00
N1426  N     0.09008   0.11823   0.70461   0.00000  Uiso   1.00
N1427  N     0.16668   0.16668   0.71427   0.00000  Uiso   1.00
N1428  N     0.32093   0.13165   0.78289   0.00000  Uiso   1.00
N1429  N     0.01187   0.20732   0.88002   0.00000  Uiso   1.00
N1430  N     0.17997   0.04271   0.75287   0.00000  Uiso   1.00
N1431  N     0.11244   0.28769   0.90039   0.00000  Uiso   1.00
N1432  N     0.15067   0.29097   0.74708   0.00000  Uiso   1.00
N1433  N     0.14552   0.03944   0.91300   0.00000  Uiso   1.00
N1434  N     0.24272   0.21595   0.72217   0.00000  Uiso   1.00
O1435  O     0.16666   0.10558   0.87154   0.00000  Uiso   1.00
O1436  O     0.16667   0.22775   0.79513   0.00000  Uiso   1.00
O1437  O     0.16666   0.10559   0.79510   0.00000  Uiso   1.00
O1438  O     0.16667   0.22774   0.87157   0.00000  Uiso   1.00
O1439  O     0.09058   0.16666   0.86261   0.00000  Uiso   1.00
O1440  O     0.24275   0.16667   0.80405   0.00000  Uiso   1.00
O1441  O     0.09058   0.16667   0.78617   0.00000  Uiso   1.00
O1442  O     0.24275   0.16666   0.88050   0.00000  Uiso   1.00
Zn1443 Zn    0.16667   0.16666   0.88437   0.00000  Uiso   1.00
Zn1444 Zn    0.16667   0.16667   0.78229   0.00000  Uiso   1.00
C1445  C     0.50034   0.08642   0.83357   0.00000  Uiso   1.00
C1446  C     0.48330   0.01911   0.87160   0.00000  Uiso   1.00
C1447  C     0.48467   0.28955   0.82988   0.00000  Uiso   1.00
C1448  C     0.49696   0.04144   0.83317   0.00000  Uiso   1.00
C1449  C     0.53737   0.19051   0.69435   0.00000  Uiso   1.00
C1450  C     0.46167   0.14445   0.97189   0.00000  Uiso   1.00
C1451  C     0.53919   0.18755   0.97978   0.00000  Uiso   1.00
C1452  C     0.46267   0.14370   0.68637   0.00000  Uiso   1.00
C1453  C     0.56879   0.04724   0.74973   0.00000  Uiso   1.00
C1454  C     0.47452   0.27848   0.94402   0.00000  Uiso   1.00
C1455  C     0.43016   0.28055   0.72840   0.00000  Uiso   1.00
C1456  C     0.49426   0.24600   0.83230   0.00000  Uiso   1.00
C1457  C     0.52744   0.04554   0.94347   0.00000  Uiso   1.00
C1458  C     0.59277   0.25649   0.70632   0.00000  Uiso   1.00
C1459  C     0.36862   0.12028   0.94889   0.00000  Uiso   1.00
C1460  C     0.40075   0.16635   0.82179   0.00000  Uiso   1.00
C1461  C     0.59931   0.16837   0.84470   0.00000  Uiso   1.00
C1462  C     0.34604   0.16003   0.81704   0.00000  Uiso   1.00
C1463  C     0.65394   0.17644   0.84840   0.00000  Uiso   1.00
C1464  C     0.50007   0.02077   0.79197   0.00000  Uiso   1.00
C1465  C     0.47367   0.30974   0.86850   0.00000  Uiso   1.00
C1466  C     0.49003   0.31161   0.78970   0.00000  Uiso   1.00
H1467  H     0.65662   0.14520   0.75121   0.00000  Uiso   1.00
H1468  H     0.46717   0.30131   0.96954   0.00000  Uiso   1.00
H1469  H     0.51712   0.27865   0.94209   0.00000  Uiso   1.00
H1470  H     0.46094   0.24737   0.95516   0.00000  Uiso   1.00
H1471  H     0.50636   0.30289   0.72342   0.00000  Uiso   1.00
H1472  H     0.40983   0.30914   0.71781   0.00000  Uiso   1.00
H1473  H     0.40900   0.26343   0.75362   0.00000  Uiso   1.00
H1474  H     0.42925   0.26029   0.69854   0.00000  Uiso   1.00
H1475  H     0.44747   0.02936   0.92906   0.00000  Uiso   1.00
H1476  H     0.54158   0.01559   0.95697   0.00000  Uiso   1.00
H1477  H     0.52091   0.06509   0.97229   0.00000  Uiso   1.00
H1478  H     0.34130   0.10451   0.78499   0.00000  Uiso   1.00
H1479  H     0.55843   0.06136   0.92592   0.00000  Uiso   1.00
H1480  H     0.56896   0.21825   0.75469   0.00000  Uiso   1.00
H1481  H     0.60162   0.27822   0.73527   0.00000  Uiso   1.00
H1482  H     0.56181   0.26968   0.68191   0.00000  Uiso   1.00
H1483  H     0.62974   0.25470   0.69146   0.00000  Uiso   1.00
H1484  H     0.43152   0.10967   0.91363   0.00000  Uiso   1.00
H1485  H     0.34541   0.12104   0.91486   0.00000  Uiso   1.00
H1486  H     0.36108   0.14815   0.96785   0.00000  Uiso   1.00
H1487  H     0.35492   0.09206   0.96638   0.00000  Uiso   1.00
H1488  H     0.58380   0.23468   0.95502   0.00000  Uiso   1.00
H1489  H     0.33804   0.19860   0.91250   0.00000  Uiso   1.00
H1490  H     0.61825   0.19462   0.98024   0.00000  Uiso   1.00
H1491  H     0.44001   0.09944   0.73039   0.00000  Uiso   1.00
H1492  H     0.39651   0.13708   0.71574   0.00000  Uiso   1.00
H1493  H     0.66057   0.23514   0.87224   0.00000  Uiso   1.00
H1494  H     0.49029   0.03542   0.72270   0.00000  Uiso   1.00
H1495  H     0.58387   0.01696   0.74254   0.00000  Uiso   1.00
H1496  H     0.59051   0.05967   0.78186   0.00000  Uiso   1.00
H1497  H     0.57568   0.06920   0.72197   0.00000  Uiso   1.00
H1498  H     0.40881   0.29762   0.90210   0.00000  Uiso   1.00
N1499  N     0.49999   0.16666   0.95240   0.00000  Uiso   1.00
N1500  N     0.42378   0.11814   0.94481   0.00000  Uiso   1.00
N1501  N     0.58408   0.20278   0.95994   0.00000  Uiso   1.00
N1502  N     0.42342   0.11823   0.70461   0.00000  Uiso   1.00
N1503  N     0.50001   0.16668   0.71427   0.00000  Uiso   1.00
N1504  N     0.65426   0.13165   0.78289   0.00000  Uiso   1.00
N1505  N     0.34520   0.20732   0.88002   0.00000  Uiso   1.00
N1506  N     0.51330   0.04271   0.75287   0.00000  Uiso   1.00
N1507  N     0.44577   0.28769   0.90039   0.00000  Uiso   1.00
N1508  N     0.48401   0.29097   0.74708   0.00000  Uiso   1.00
N1509  N     0.47885   0.03944   0.91300   0.00000  Uiso   1.00
N1510  N     0.57606   0.21595   0.72217   0.00000  Uiso   1.00
O1511  O     0.50000   0.10558   0.87154   0.00000  Uiso   1.00
O1512  O     0.50000   0.22775   0.79513   0.00000  Uiso   1.00
O1513  O     0.50000   0.10559   0.79510   0.00000  Uiso   1.00
O1514  O     0.50000   0.22774   0.87157   0.00000  Uiso   1.00
O1515  O     0.42392   0.16666   0.86261   0.00000  Uiso   1.00
O1516  O     0.57608   0.16667   0.80405   0.00000  Uiso   1.00
O1517  O     0.42392   0.16667   0.78617   0.00000  Uiso   1.00
O1518  O     0.57608   0.16666   0.88050   0.00000  Uiso   1.00
Zn1519 Zn    0.50000   0.16666   0.88437   0.00000  Uiso   1.00
Zn1520 Zn    0.50000   0.16667   0.78229   0.00000  Uiso   1.00
C1521  C     0.83368   0.08642   0.83357   0.00000  Uiso   1.00
C1522  C     0.81663   0.01911   0.87160   0.00000  Uiso   1.00
C1523  C     0.81800   0.28955   0.82988   0.00000  Uiso   1.00
C1524  C     0.83029   0.04144   0.83317   0.00000  Uiso   1.00
C1525  C     0.87070   0.19051   0.69435   0.00000  Uiso   1.00
C1526  C     0.79501   0.14445   0.97189   0.00000  Uiso   1.00
C1527  C     0.87253   0.18755   0.97978   0.00000  Uiso   1.00
C1528  C     0.79600   0.14370   0.68637   0.00000  Uiso   1.00
C1529  C     0.90212   0.04724   0.74973   0.00000  Uiso   1.00
C1530  C     0.80786   0.27848   0.94402   0.00000  Uiso   1.00
C1531  C     0.76349   0.28055   0.72840   0.00000  Uiso   1.00
C1532  C     0.82760   0.24600   0.83230   0.00000  Uiso   1.00
C1533  C     0.86078   0.04554   0.94347   0.00000  Uiso   1.00
C1534  C     0.92610   0.25649   0.70632   0.00000  Uiso   1.00
C1535  C     0.70195   0.12028   0.94889   0.00000  Uiso   1.00
C1536  C     0.73408   0.16635   0.82179   0.00000  Uiso   1.00
C1537  C     0.93264   0.16837   0.84470   0.00000  Uiso   1.00
C1538  C     0.67938   0.16003   0.81704   0.00000  Uiso   1.00
C1539  C     0.98728   0.17644   0.84840   0.00000  Uiso   1.00
C1540  C     0.83340   0.02077   0.79197   0.00000  Uiso   1.00
C1541  C     0.80700   0.30974   0.86850   0.00000  Uiso   1.00
C1542  C     0.82336   0.31161   0.78970   0.00000  Uiso   1.00
H1543  H     0.98995   0.14520   0.75121   0.00000  Uiso   1.00
H1544  H     0.80050   0.30131   0.96954   0.00000  Uiso   1.00
H1545  H     0.85045   0.27865   0.94209   0.00000  Uiso   1.00
H1546  H     0.79427   0.24737   0.95516   0.00000  Uiso   1.00
H1547  H     0.83969   0.30289   0.72342   0.00000  Uiso   1.00
H1548  H     0.74316   0.30914   0.71781   0.00000  Uiso   1.00
H1549  H     0.74233   0.26343   0.75362   0.00000  Uiso   1.00
H1550  H     0.76258   0.26029   0.69854   0.00000  Uiso   1.00
H1551  H     0.78080   0.02936   0.92906   0.00000  Uiso   1.00
H1552  H     0.87491   0.01559   0.95697   0.00000  Uiso   1.00
H1553  H     0.85424   0.06509   0.97229   0.00000  Uiso   1.00
H1554  H     0.67463   0.10451   0.78499   0.00000  Uiso   1.00
H1555  H     0.89177   0.06136   0.92592   0.00000  Uiso   1.00
H1556  H     0.90229   0.21825   0.75469   0.00000  Uiso   1.00
H1557  H     0.93495   0.27822   0.73527   0.00000  Uiso   1.00
H1558  H     0.89514   0.26968   0.68191   0.00000  Uiso   1.00
H1559  H     0.96307   0.25470   0.69146   0.00000  Uiso   1.00
H1560  H     0.76485   0.10967   0.91363   0.00000  Uiso   1.00
H1561  H     0.67874   0.12104   0.91486   0.00000  Uiso   1.00
H1562  H     0.69441   0.14815   0.96785   0.00000  Uiso   1.00
H1563  H     0.68826   0.09206   0.96638   0.00000  Uiso   1.00
H1564  H     0.91713   0.23468   0.95502   0.00000  Uiso   1.00
H1565  H     0.67137   0.19860   0.91250   0.00000  Uiso   1.00
H1566  H     0.95159   0.19462   0.98024   0.00000  Uiso   1.00
H1567  H     0.77334   0.09944   0.73039   0.00000  Uiso   1.00
H1568  H     0.72985   0.13708   0.71574   0.00000  Uiso   1.00
H1569  H     0.99390   0.23514   0.87224   0.00000  Uiso   1.00
H1570  H     0.82362   0.03542   0.72270   0.00000  Uiso   1.00
H1571  H     0.91721   0.01696   0.74254   0.00000  Uiso   1.00
H1572  H     0.92385   0.05967   0.78186   0.00000  Uiso   1.00
H1573  H     0.90901   0.06920   0.72197   0.00000  Uiso   1.00
H1574  H     0.74214   0.29762   0.90210   0.00000  Uiso   1.00
N1575  N     0.83332   0.16666   0.95240   0.00000  Uiso   1.00
N1576  N     0.75711   0.11814   0.94481   0.00000  Uiso   1.00
N1577  N     0.91741   0.20278   0.95994   0.00000  Uiso   1.00
N1578  N     0.75675   0.11823   0.70461   0.00000  Uiso   1.00
N1579  N     0.83335   0.16668   0.71427   0.00000  Uiso   1.00
N1580  N     0.98759   0.13165   0.78289   0.00000  Uiso   1.00
N1581  N     0.67853   0.20732   0.88002   0.00000  Uiso   1.00
N1582  N     0.84663   0.04271   0.75287   0.00000  Uiso   1.00
N1583  N     0.77910   0.28769   0.90039   0.00000  Uiso   1.00
N1584  N     0.81734   0.29097   0.74708   0.00000  Uiso   1.00
N1585  N     0.81219   0.03944   0.91300   0.00000  Uiso   1.00
N1586  N     0.90939   0.21595   0.72217   0.00000  Uiso   1.00
O1587  O     0.83333   0.10558   0.87154   0.00000  Uiso   1.00
O1588  O     0.83334   0.22775   0.79513   0.00000  Uiso   1.00
O1589  O     0.83333   0.10559   0.79510   0.00000  Uiso   1.00
O1590  O     0.83334   0.22774   0.87157   0.00000  Uiso   1.00
O1591  O     0.75725   0.16666   0.86261   0.00000  Uiso   1.00
O1592  O     0.90942   0.16667   0.80405   0.00000  Uiso   1.00
O1593  O     0.75725   0.16667   0.78617   0.00000  Uiso   1.00
O1594  O     0.90942   0.16666   0.88050   0.00000  Uiso   1.00
Zn1595 Zn    0.83333   0.16666   0.88437   0.00000  Uiso   1.00
Zn1596 Zn    0.83333   0.16667   0.78229   0.00000  Uiso   1.00
C1597  C     0.16701   0.41975   0.83357   0.00000  Uiso   1.00
C1598  C     0.14997   0.35245   0.87160   0.00000  Uiso   1.00
C1599  C     0.15134   0.62289   0.82988   0.00000  Uiso   1.00
C1600  C     0.16362   0.37478   0.83317   0.00000  Uiso   1.00
C1601  C     0.20404   0.52385   0.69435   0.00000  Uiso   1.00
C1602  C     0.12834   0.47778   0.97189   0.00000  Uiso   1.00
C1603  C     0.20586   0.52089   0.97978   0.00000  Uiso   1.00
C1604  C     0.12933   0.47703   0.68637   0.00000  Uiso   1.00
C1605  C     0.23546   0.38058   0.74973   0.00000  Uiso   1.00
C1606  C     0.14119   0.61181   0.94402   0.00000  Uiso   1.00
C1607  C     0.09682   0.61388   0.72840   0.00000  Uiso   1.00
C1608  C     0.16093   0.57934   0.83230   0.00000  Uiso   1.00
C1609  C     0.19411   0.37888   0.94347   0.00000  Uiso   1.00
C1610  C     0.25944   0.58982   0.70632   0.00000  Uiso   1.00
C1611  C     0.03528   0.45362   0.94889   0.00000  Uiso   1.00
C1612  C     0.06742   0.49969   0.82179   0.00000  Uiso   1.00
C1613  C     0.26598   0.50170   0.84470   0.00000  Uiso   1.00
C1614  C     0.01271   0.49337   0.81704   0.00000  Uiso   1.00
C1615  C     0.32061   0.50978   0.84840   0.00000  Uiso   1.00
C1616  C     0.16674   0.35411   0.79197   0.00000  Uiso   1.00
C1617  C     0.14034   0.64307   0.86850   0.00000  Uiso   1.00
C1618  C     0.15669   0.64494   0.78970   0.00000  Uiso   1.00
H1619  H     0.32329   0.47853   0.75121   0.00000  Uiso   1.00
H1620  H     0.13383   0.63465   0.96954   0.00000  Uiso   1.00
H1621  H     0.18378   0.61198   0.94209   0.00000  Uiso   1.00
H1622  H     0.12761   0.58070   0.95516   0.00000  Uiso   1.00
H1623  H     0.17303   0.63622   0.72342   0.00000  Uiso   1.00
H1624  H     0.07650   0.64247   0.71781   0.00000  Uiso   1.00
H1625  H     0.07566   0.59677   0.75362   0.00000  Uiso   1.00
H1626  H     0.09591   0.59362   0.69854   0.00000  Uiso   1.00
H1627  H     0.11414   0.36269   0.92906   0.00000  Uiso   1.00
H1628  H     0.20825   0.34892   0.95697   0.00000  Uiso   1.00
H1629  H     0.18757   0.39842   0.97229   0.00000  Uiso   1.00
H1630  H     0.00797   0.43785   0.78499   0.00000  Uiso   1.00
H1631  H     0.22510   0.39469   0.92592   0.00000  Uiso   1.00
H1632  H     0.23563   0.55158   0.75469   0.00000  Uiso   1.00
H1633  H     0.26829   0.61155   0.73527   0.00000  Uiso   1.00
H1634  H     0.22848   0.60301   0.68191   0.00000  Uiso   1.00
H1635  H     0.29640   0.58803   0.69146   0.00000  Uiso   1.00
H1636  H     0.09818   0.44301   0.91363   0.00000  Uiso   1.00
H1637  H     0.01208   0.45438   0.91486   0.00000  Uiso   1.00
H1638  H     0.02775   0.48148   0.96785   0.00000  Uiso   1.00
H1639  H     0.02159   0.42540   0.96638   0.00000  Uiso   1.00
H1640  H     0.25047   0.56801   0.95502   0.00000  Uiso   1.00
H1641  H     0.00470   0.53193   0.91250   0.00000  Uiso   1.00
H1642  H     0.28492   0.52795   0.98024   0.00000  Uiso   1.00
H1643  H     0.10668   0.43277   0.73039   0.00000  Uiso   1.00
H1644  H     0.06318   0.47042   0.71574   0.00000  Uiso   1.00
H1645  H     0.32724   0.56847   0.87224   0.00000  Uiso   1.00
H1646  H     0.15695   0.36876   0.72270   0.00000  Uiso   1.00
H1647  H     0.25054   0.35030   0.74254   0.00000  Uiso   1.00
H1648  H     0.25718   0.39300   0.78186   0.00000  Uiso   1.00
H1649  H     0.24235   0.40253   0.72197   0.00000  Uiso   1.00
H1650  H     0.07548   0.63095   0.90210   0.00000  Uiso   1.00
N1651  N     0.16665   0.49999   0.95240   0.00000  Uiso   1.00
N1652  N     0.09044   0.45147   0.94481   0.00000  Uiso   1.00
N1653  N     0.25075   0.53612   0.95994   0.00000  Uiso   1.00
N1654  N     0.09008   0.45156   0.70461   0.00000  Uiso   1.00
N1655  N     0.16668   0.50001   0.71427   0.00000  Uiso   1.00
N1656  N     0.32093   0.46498   0.78289   0.00000  Uiso   1.00
N1657  N     0.01187   0.54065   0.88002   0.00000  Uiso   1.00
N1658  N     0.17997   0.37604   0.75287   0.00000  Uiso   1.00
N1659  N     0.11244   0.62103   0.90039   0.00000  Uiso   1.00
N1660  N     0.15067   0.62431   0.74708   0.00000  Uiso   1.00
N1661  N     0.14552   0.37277   0.91300   0.00000  Uiso   1.00
N1662  N     0.24272   0.54929   0.72217   0.00000  Uiso   1.00
O1663  O     0.16666   0.43892   0.87154   0.00000  Uiso   1.00
O1664  O     0.16667   0.56108   0.79513   0.00000  Uiso   1.00
O1665  O     0.16666   0.43893   0.79510   0.00000  Uiso   1.00
O1666  O     0.16667   0.56107   0.87157   0.00000  Uiso   1.00
O1667  O     0.09058   0.50000   0.86261   0.00000  Uiso   1.00
O1668  O     0.24275   0.50000   0.80405   0.00000  Uiso   1.00
O1669  O     0.09058   0.50000   0.78617   0.00000  Uiso   1.00
O1670  O     0.24275   0.50000   0.88050   0.00000  Uiso   1.00
Zn1671 Zn    0.16667   0.49999   0.88437   0.00000  Uiso   1.00
Zn1672 Zn    0.16667   0.50001   0.78229   0.00000  Uiso   1.00
C1673  C     0.50034   0.41975   0.83357   0.00000  Uiso   1.00
C1674  C     0.48330   0.35245   0.87160   0.00000  Uiso   1.00
C1675  C     0.48467   0.62289   0.82988   0.00000  Uiso   1.00
C1676  C     0.49696   0.37478   0.83317   0.00000  Uiso   1.00
C1677  C     0.53737   0.52385   0.69435   0.00000  Uiso   1.00
C1678  C     0.46167   0.47778   0.97189   0.00000  Uiso   1.00
C1679  C     0.53919   0.52089   0.97978   0.00000  Uiso   1.00
C1680  C     0.46267   0.47703   0.68637   0.00000  Uiso   1.00
C1681  C     0.56879   0.38058   0.74973   0.00000  Uiso   1.00
C1682  C     0.47452   0.61181   0.94402   0.00000  Uiso   1.00
C1683  C     0.43016   0.61388   0.72840   0.00000  Uiso   1.00
C1684  C     0.49426   0.57934   0.83230   0.00000  Uiso   1.00
C1685  C     0.52744   0.37888   0.94347   0.00000  Uiso   1.00
C1686  C     0.59277   0.58982   0.70632   0.00000  Uiso   1.00
C1687  C     0.36862   0.45362   0.94889   0.00000  Uiso   1.00
C1688  C     0.40075   0.49969   0.82179   0.00000  Uiso   1.00
C1689  C     0.59931   0.50170   0.84470   0.00000  Uiso   1.00
C1690  C     0.34604   0.49337   0.81704   0.00000  Uiso   1.00
C1691  C     0.65394   0.50978   0.84840   0.00000  Uiso   1.00
C1692  C     0.50007   0.35411   0.79197   0.00000  Uiso   1.00
C1693  C     0.47367   0.64307   0.86850   0.00000  Uiso   1.00
C1694  C     0.49003   0.64494   0.78970   0.00000  Uiso   1.00
H1695  H     0.65662   0.47853   0.75121   0.00000  Uiso   1.00
H1696  H     0.46717   0.63465   0.96954   0.00000  Uiso   1.00
H1697  H     0.51712   0.61198   0.94209   0.00000  Uiso   1.00
H1698  H     0.46094   0.58070   0.95516   0.00000  Uiso   1.00
H1699  H     0.50636   0.63622   0.72342   0.00000  Uiso   1.00
H1700  H     0.40983   0.64247   0.71781   0.00000  Uiso   1.00
H1701  H     0.40900   0.59677   0.75362   0.00000  Uiso   1.00
H1702  H     0.42925   0.59362   0.69854   0.00000  Uiso   1.00
H1703  H     0.44747   0.36269   0.92906   0.00000  Uiso   1.00
H1704  H     0.54158   0.34892   0.95697   0.00000  Uiso   1.00
H1705  H     0.52091   0.39842   0.97229   0.00000  Uiso   1.00
H1706  H     0.34130   0.43785   0.78499   0.00000  Uiso   1.00
H1707  H     0.55843   0.39469   0.92592   0.00000  Uiso   1.00
H1708  H     0.56896   0.55158   0.75469   0.00000  Uiso   1.00
H1709  H     0.60162   0.61155   0.73527   0.00000  Uiso   1.00
H1710  H     0.56181   0.60301   0.68191   0.00000  Uiso   1.00
H1711  H     0.62974   0.58803   0.69146   0.00000  Uiso   1.00
H1712  H     0.43152   0.44301   0.91363   0.00000  Uiso   1.00
H1713  H     0.34541   0.45438   0.91486   0.00000  Uiso   1.00
H1714  H     0.36108   0.48148   0.96785   0.00000  Uiso   1.00
H1715  H     0.35492   0.42540   0.96638   0.00000  Uiso   1.00
H1716  H     0.58380   0.56801   0.95502   0.00000  Uiso   1.00
H1717  H     0.33804   0.53193   0.91250   0.00000  Uiso   1.00
H1718  H     0.61825   0.52795   0.98024   0.00000  Uiso   1.00
H1719  H     0.44001   0.43277   0.73039   0.00000  Uiso   1.00
H1720  H     0.39651   0.47042   0.71574   0.00000  Uiso   1.00
H1721  H     0.66057   0.56847   0.87224   0.00000  Uiso   1.00
H1722  H     0.49029   0.36876   0.72270   0.00000  Uiso   1.00
H1723  H     0.58387   0.35030   0.74254   0.00000  Uiso   1.00
H1724  H     0.59051   0.39300   0.78186   0.00000  Uiso   1.00
H1725  H     0.57568   0.40253   0.72197   0.00000  Uiso   1.00
H1726  H     0.40881   0.63095   0.90210   0.00000  Uiso   1.00
N1727  N     0.49999   0.49999   0.95240   0.00000  Uiso   1.00
N1728  N     0.42378   0.45147   0.94481   0.00000  Uiso   1.00
N1729  N     0.58408   0.53612   0.95994   0.00000  Uiso   1.00
N1730  N     0.42342   0.45156   0.70461   0.00000  Uiso   1.00
N1731  N     0.50001   0.50001   0.71427   0.00000  Uiso   1.00
N1732  N     0.65426   0.46498   0.78289   0.00000  Uiso   1.00
N1733  N     0.34520   0.54065   0.88002   0.00000  Uiso   1.00
N1734  N     0.51330   0.37604   0.75287   0.00000  Uiso   1.00
N1735  N     0.44577   0.62103   0.90039   0.00000  Uiso   1.00
N1736  N     0.48401   0.62431   0.74708   0.00000  Uiso   1.00
N1737  N     0.47885   0.37277   0.91300   0.00000  Uiso   1.00
N1738  N     0.57606   0.54929   0.72217   0.00000  Uiso   1.00
O1739  O     0.50000   0.43892   0.87154   0.00000  Uiso   1.00
O1740  O     0.50000   0.56108   0.79513   0.00000  Uiso   1.00
O1741  O     0.50000   0.43893   0.79510   0.00000  Uiso   1.00
O1742  O     0.50000   0.56107   0.87157   0.00000  Uiso   1.00
O1743  O     0.42392   0.50000   0.86261   0.00000  Uiso   1.00
O1744  O     0.57608   0.50000   0.80405   0.00000  Uiso   1.00
O1745  O     0.42392   0.50000   0.78617   0.00000  Uiso   1.00
O1746  O     0.57608   0.50000   0.88050   0.00000  Uiso   1.00
Zn1747 Zn    0.50000   0.49999   0.88437   0.00000  Uiso   1.00
Zn1748 Zn    0.50000   0.50001   0.78229   0.00000  Uiso   1.00
C1749  C     0.83368   0.41975   0.83357   0.00000  Uiso   1.00
C1750  C     0.81663   0.35245   0.87160   0.00000  Uiso   1.00
C1751  C     0.81800   0.62289   0.82988   0.00000  Uiso   1.00
C1752  C     0.83029   0.37478   0.83317   0.00000  Uiso   1.00
C1753  C     0.87070   0.52385   0.69435   0.00000  Uiso   1.00
C1754  C     0.79501   0.47778   0.97189   0.00000  Uiso   1.00
C1755  C     0.87253   0.52089   0.97978   0.00000  Uiso   1.00
C1756  C     0.79600   0.47703   0.68637   0.00000  Uiso   1.00
C1757  C     0.90212   0.38058   0.74973   0.00000  Uiso   1.00
C1758  C     0.80786   0.61181   0.94402   0.00000  Uiso   1.00
C1759  C     0.76349   0.61388   0.72840   0.00000  Uiso   1.00
C1760  C     0.82760   0.57934   0.83230   0.00000  Uiso   1.00
C1761  C     0.86078   0.37888   0.94347   0.00000  Uiso   1.00
C1762  C     0.92610   0.58982   0.70632   0.00000  Uiso   1.00
C1763  C     0.70195   0.45362   0.94889   0.00000  Uiso   1.00
C1764  C     0.73408   0.49969   0.82179   0.00000  Uiso   1.00
C1765  C     0.93264   0.50170   0.84470   0.00000  Uiso   1.00
C1766  C     0.67938   0.49337   0.81704   0.00000  Uiso   1.00
C1767  C     0.98728   0.50978   0.84840   0.00000  Uiso   1.00
C1768  C     0.83340   0.35411   0.79197   0.00000  Uiso   1.00
C1769  C     0.80700   0.64307   0.86850   0.00000  Uiso   1.00
C1770  C     0.82336   0.64494   0.78970   0.00000  Uiso   1.00
H1771  H     0.98995   0.47853   0.75121   0.00000  Uiso   1.00
H1772  H     0.80050   0.63465   0.96954   0.00000  Uiso   1.00
H1773  H     0.85045   0.61198   0.94209   0.00000  Uiso   1.00
H1774  H     0.79427   0.58070   0.95516   0.00000  Uiso   1.00
H1775  H     0.83969   0.63622   0.72342   0.00000  Uiso   1.00
H1776  H     0.74316   0.64247   0.71781   0.00000  Uiso   1.00
H1777  H     0.74233   0.59677   0.75362   0.00000  Uiso   1.00
H1778  H     0.76258   0.59362   0.69854   0.00000  Uiso   1.00
H1779  H     0.78080   0.36269   0.92906   0.00000  Uiso   1.00
H1780  H     0.87491   0.34892   0.95697   0.00000  Uiso   1.00
H1781  H     0.85424   0.39842   0.97229   0.00000  Uiso   1.00
H1782  H     0.67463   0.43785   0.78499   0.00000  Uiso   1.00
H1783  H     0.89177   0.39469   0.92592   0.00000  Uiso   1.00
H1784  H     0.90229   0.55158   0.75469   0.00000  Uiso   1.00
H1785  H     0.93495   0.61155   0.73527   0.00000  Uiso   1.00
H1786  H     0.89514   0.60301   0.68191   0.00000  Uiso   1.00
H1787  H     0.96307   0.58803   0.69146   0.00000  Uiso   1.00
H1788  H     0.76485   0.44301   0.91363   0.00000  Uiso   1.00
H1789  H     0.67874   0.45438   0.91486   0.00000  Uiso   1.00
H1790  H     0.69441   0.48148   0.96785   0.00000  Uiso   1.00
H1791  H     0.68826   0.42540   0.96638   0.00000  Uiso   1.00
H1792  H     0.91713   0.56801   0.95502   0.00000  Uiso   1.00
H1793  H     0.67137   0.53193   0.91250   0.00000  Uiso   1.00
H1794  H     0.95159   0.52795   0.98024   0.00000  Uiso   1.00
H1795  H     0.77334   0.43277   0.73039   0.00000  Uiso   1.00
H1796  H     0.72985   0.47042   0.71574   0.00000  Uiso   1.00
H1797  H     0.99390   0.56847   0.87224   0.00000  Uiso   1.00
H1798  H     0.82362   0.36876   0.72270   0.00000  Uiso   1.00
H1799  H     0.91721   0.35030   0.74254   0.00000  Uiso   1.00
H1800  H     0.92385   0.39300   0.78186   0.00000  Uiso   1.00
H1801  H     0.90901   0.40253   0.72197   0.00000  Uiso   1.00
H1802  H     0.74214   0.63095   0.90210   0.00000  Uiso   1.00
N1803  N     0.83332   0.49999   0.95240   0.00000  Uiso   1.00
N1804  N     0.75711   0.45147   0.94481   0.00000  Uiso   1.00
N1805  N     0.91741   0.53612   0.95994   0.00000  Uiso   1.00
N1806  N     0.75675   0.45156   0.70461   0.00000  Uiso   1.00
N1807  N     0.83335   0.50001   0.71427   0.00000  Uiso   1.00
N1808  N     0.98759   0.46498   0.78289   0.00000  Uiso   1.00
N1809  N     0.67853   0.54065   0.88002   0.00000  Uiso   1.00
N1810  N     0.84663   0.37604   0.75287   0.00000  Uiso   1.00
N1811  N     0.77910   0.62103   0.90039   0.00000  Uiso   1.00
N1812  N     0.81734   0.62431   0.74708   0.00000  Uiso   1.00
N1813  N     0.81219   0.37277   0.91300   0.00000  Uiso   1.00
N1814  N     0.90939   0.54929   0.72217   0.00000  Uiso   1.00
O1815  O     0.83333   0.43892   0.87154   0.00000  Uiso   1.00
O1816  O     0.83334   0.56108   0.79513   0.00000  Uiso   1.00
O1817  O     0.83333   0.43893   0.79510   0.00000  Uiso   1.00
O1818  O     0.83334   0.56107   0.87157   0.00000  Uiso   1.00
O1819  O     0.75725   0.50000   0.86261   0.00000  Uiso   1.00
O1820  O     0.90942   0.50000   0.80405   0.00000  Uiso   1.00
O1821  O     0.75725   0.50000   0.78617   0.00000  Uiso   1.00
O1822  O     0.90942   0.50000   0.88050   0.00000  Uiso   1.00
Zn1823 Zn    0.83333   0.49999   0.88437   0.00000  Uiso   1.00
Zn1824 Zn    0.83333   0.50001   0.78229   0.00000  Uiso   1.00
C1825  C     0.16701   0.75309   0.83357   0.00000  Uiso   1.00
C1826  C     0.14997   0.68578   0.87160   0.00000  Uiso   1.00
C1827  C     0.15134   0.95622   0.82988   0.00000  Uiso   1.00
C1828  C     0.16362   0.70811   0.83317   0.00000  Uiso   1.00
C1829  C     0.20404   0.85718   0.69435   0.00000  Uiso   1.00
C1830  C     0.12834   0.81111   0.97189   0.00000  Uiso   1.00
C1831  C     0.20586   0.85422   0.97978   0.00000  Uiso   1.00
C1832  C     0.12933   0.81036   0.68637   0.00000  Uiso   1.00
C1833  C     0.23546   0.71391   0.74973   0.00000  Uiso   1.00
C1834  C     0.14119   0.94514   0.94402   0.00000  Uiso   1.00
C1835  C     0.09682   0.94722   0.72840   0.00000  Uiso   1.00
C1836  C     0.16093   0.91267   0.83230   0.00000  Uiso   1.00
C1837  C     0.19411   0.71221   0.94347   0.00000  Uiso   1.00
C1838  C     0.25944   0.92315   0.70632   0.00000  Uiso   1.00
C1839  C     0.03528   0.78695   0.94889   0.00000  Uiso   1.00
C1840  C     0.06742   0.83302   0.82179   0.00000  Uiso   1.00
C1841  C     0.26598   0.83503   0.84470   0.00000  Uiso   1.00
C1842  C     0.01271   0.82670   0.81704   0.00000  Uiso   1.00
C1843  C     0.32061   0.84311   0.84840   0.00000  Uiso   1.00
C1844  C     0.16674   0.68744   0.79197   0.00000  Uiso   1.00
C1845  C     0.14034   0.97641   0.86850   0.00000  Uiso   1.00
C1846  C     0.15669   0.97828   0.78970   0.00000  Uiso   1.00
H1847  H     0.32329   0.81186   0.75121   0.00000  Uiso   1.00
H1848  H     0.13383   0.96798   0.96954   0.00000  Uiso   1.00
H1849  H     0.18378   0.94532   0.94209   0.00000  Uiso   1.00
H1850  H     0.12761   0.91404   0.95516   0.00000  Uiso   1.00
H1851  H     0.17303   0.96956   0.72342   0.00000  Uiso   1.00
H1852  H     0.07650   0.97580   0.71781   0.00000  Uiso   1.00
H1853  H     0.07566   0.93010   0.75362   0.00000  Uiso   1.00
H1854  H     0.09591   0.92696   0.69854   0.00000  Uiso   1.00
H1855  H     0.11414   0.69603   0.92906   0.00000  Uiso   1.00
H1856  H     0.20825   0.68226   0.95697   0.00000  Uiso   1.00
H1857  H     0.18757   0.73175   0.97229   0.00000  Uiso   1.00
H1858  H     0.00797   0.77118   0.78499   0.00000  Uiso   1.00
H1859  H     0.22510   0.72803   0.92592   0.00000  Uiso   1.00
H1860  H     0.23563   0.88492   0.75469   0.00000  Uiso   1.00
H1861  H     0.26829   0.94489   0.73527   0.00000  Uiso   1.00
H1862  H     0.22848   0.93634   0.68191   0.00000  Uiso   1.00
H1863  H     0.29640   0.92137   0.69146   0.00000  Uiso   1.00
H1864  H     0.09818   0.77634   0.91363   0.00000  Uiso   1.00
H1865  H     0.01208   0.78771   0.91486   0.00000  Uiso   1.00
H1866  H     0.02775   0.81481   0.96785   0.00000  Uiso   1.00
H1867  H     0.02159   0.75873   0.96638   0.00000  Uiso   1.00
H1868  H     0.25047   0.90134   0.95502   0.00000  Uiso   1.00
H1869  H     0.00470   0.86527   0.91250   0.00000  Uiso   1.00
H1870  H     0.28492   0.86128   0.98024   0.00000  Uiso   1.00
H1871  H     0.10668   0.76610   0.73039   0.00000  Uiso   1.00
H1872  H     0.06318   0.80375   0.71574   0.00000  Uiso   1.00
H1873  H     0.32724   0.90181   0.87224   0.00000  Uiso   1.00
H1874  H     0.15695   0.70209   0.72270   0.00000  Uiso   1.00
H1875  H     0.25054   0.68363   0.74254   0.00000  Uiso   1.00
H1876  H     0.25718   0.72634   0.78186   0.00000  Uiso   1.00
H1877  H     0.24235   0.73587   0.72197   0.00000  Uiso   1.00
H1878  H     0.07548   0.96429   0.90210   0.00000  Uiso   1.00
N1879  N     0.16665   0.83332   0.95240   0.00000  Uiso   1.00
N1880  N     0.09044   0.78480   0.94481   0.00000  Uiso   1.00
N1881  N     0.25075   0.86945   0.95994   0.00000  Uiso   1.00
N1882  N     0.09008   0.78489   0.70461   0.00000  Uiso   1.00
N1883  N     0.16668   0.83334   0.71427   0.00000  Uiso   1.00
N1884  N     0.32093   0.79831   0.78289   0.00000  Uiso   1.00
N1885  N     0.01187   0.87398   0.88002   0.00000  Uiso   1.00
N1886  N     0.17997   0.70937   0.75287   0.00000  Uiso   1.00
N1887  N     0.11244   0.95436   0.90039   0.00000  Uiso   1.00
N1888  N     0.15067   0.95764   0.74708   0.00000  Uiso   1.00
N1889  N     0.14552   0.70611   0.91300   0.00000  Uiso   1.00
N1890  N     0.24272   0.88262   0.72217   0.00000  Uiso   1.00
O1891  O     0.16666   0.77225   0.87154   0.00000  Uiso   1.00
O1892  O     0.16667   0.89442   0.79513   0.00000  Uiso   1.00
O1893  O     0.16666   0.77226   0.79510   0.00000  Uiso   1.00
O1894  O     0.16667   0.89441   0.87157   0.00000  Uiso   1.00
O1895  O     0.09058   0.83333   0.86261   0.00000  Uiso   1.00
O1896  O     0.24275   0.83334   0.80405   0.00000  Uiso   1.00
O1897  O     0.09058   0.83334   0.78617   0.00000  Uiso   1.00
O1898  O     0.24275   0.83333   0.88050   0.00000  Uiso   1.00
Zn1899 Zn    0.16667   0.83333   0.88437   0.00000  Uiso   1.00
Zn1900 Zn    0.16667   0.83334   0.78229   0.00000  Uiso   1.00
C1901  C     0.50034   0.75309   0.83357   0.00000  Uiso   1.00
C1902  C     0.48330   0.68578   0.87160   0.00000  Uiso   1.00
C1903  C     0.48467   0.95622   0.82988   0.00000  Uiso   1.00
C1904  C     0.49696   0.70811   0.83317   0.00000  Uiso   1.00
C1905  C     0.53737   0.85718   0.69435   0.00000  Uiso   1.00
C1906  C     0.46167   0.81111   0.97189   0.00000  Uiso   1.00
C1907  C     0.53919   0.85422   0.97978   0.00000  Uiso   1.00
C1908  C     0.46267   0.81036   0.68637   0.00000  Uiso   1.00
C1909  C     0.56879   0.71391   0.74973   0.00000  Uiso   1.00
C1910  C     0.47452   0.94514   0.94402   0.00000  Uiso   1.00
C1911  C     0.43016   0.94722   0.72840   0.00000  Uiso   1.00
C1912  C     0.49426   0.91267   0.83230   0.00000  Uiso   1.00
C1913  C     0.52744   0.71221   0.94347   0.00000  Uiso   1.00
C1914  C     0.59277   0.92315   0.70632   0.00000  Uiso   1.00
C1915  C     0.36862   0.78695   0.94889   0.00000  Uiso   1.00
C1916  C     0.40075   0.83302   0.82179   0.00000  Uiso   1.00
C1917  C     0.59931   0.83503   0.84470   0.00000  Uiso   1.00
C1918  C     0.34604   0.82670   0.81704   0.00000  Uiso   1.00
C1919  C     0.65394   0.84311   0.84840   0.00000  Uiso   1.00
C1920  C     0.50007   0.68744   0.79197   0.00000  Uiso   1.00
C1921  C     0.47367   0.97641   0.86850   0.00000  Uiso   1.00
C1922  C     0.49003   0.97828   0.78970   0.00000  Uiso   1.00
H1923  H     0.65662   0.81186   0.75121   0.00000  Uiso   1.00
H1924  H     0.46717   0.96798   0.96954   0.00000  Uiso   1.00
H1925  H     0.51712   0.94532   0.94209   0.00000  Uiso   1.00
H1926  H     0.46094   0.91404   0.95516   0.00000  Uiso   1.00
H1927  H     0.50636   0.96956   0.72342   0.00000  Uiso   1.00
H1928  H     0.40983   0.97580   0.71781   0.00000  Uiso   1.00
H1929  H     0.40900   0.93010   0.75362   0.00000  Uiso   1.00
H1930  H     0.42925   0.92696   0.69854   0.00000  Uiso   1.00
H1931  H     0.44747   0.69603   0.92906   0.00000  Uiso   1.00
H1932  H     0.54158   0.68226   0.95697   0.00000  Uiso   1.00
H1933  H     0.52091   0.73175   0.97229   0.00000  Uiso   1.00
H1934  H     0.34130   0.77118   0.78499   0.00000  Uiso   1.00
H1935  H     0.55843   0.72803   0.92592   0.00000  Uiso   1.00
H1936  H     0.56896   0.88492   0.75469   0.00000  Uiso   1.00
H1937  H     0.60162   0.94489   0.73527   0.00000  Uiso   1.00
H1938  H     0.56181   0.93634   0.68191   0.00000  Uiso   1.00
H1939  H     0.62974   0.92137   0.69146   0.00000  Uiso   1.00
H1940  H     0.43152   0.77634   0.91363   0.00000  Uiso   1.00
H1941  H     0.34541   0.78771   0.91486   0.00000  Uiso   1.00
H1942  H     0.36108   0.81481   0.96785   0.00000  Uiso   1.00
H1943  H     0.35492   0.75873   0.96638   0.00000  Uiso   1.00
H1944  H     0.58380   0.90134   0.95502   0.00000  Uiso   1.00
H1945  H     0.33804   0.86527   0.91250   0.00000  Uiso   1.00
H1946  H     0.61825   0.86128   0.98024   0.00000  Uiso   1.00
H1947  H     0.44001   0.76610   0.73039   0.00000  Uiso   1.00
H1948  H     0.39651   0.80375   0.71574   0.00000  Uiso   1.00
H1949  H     0.66057   0.90181   0.87224   0.00000  Uiso   1.00
H1950  H     0.49029   0.70209   0.72270   0.00000  Uiso   1.00
H1951  H     0.58387   0.68363   0.74254   0.00000  Uiso   1.00
H1952  H     0.59051   0.72634   0.78186   0.00000  Uiso   1.00
H1953  H     0.57568   0.73587   0.72197   0.00000  Uiso   1.00
H1954  H     0.40881   0.96429   0.90210   0.00000  Uiso   1.00
N1955  N     0.49999   0.83332   0.95240   0.00000  Uiso   1.00
N1956  N     0.42378   0.78480   0.94481   0.00000  Uiso   1.00
N1957  N     0.58408   0.86945   0.95994   0.00000  Uiso   1.00
N1958  N     0.42342   0.78489   0.70461   0.00000  Uiso   1.00
N1959  N     0.50001   0.83334   0.71427   0.00000  Uiso   1.00
N1960  N     0.65426   0.79831   0.78289   0.00000  Uiso   1.00
N1961  N     0.34520   0.87398   0.88002   0.00000  Uiso   1.00
N1962  N     0.51330   0.70937   0.75287   0.00000  Uiso   1.00
N1963  N     0.44577   0.95436   0.90039   0.00000  Uiso   1.00
N1964  N     0.48401   0.95764   0.74708   0.00000  Uiso   1.00
N1965  N     0.47885   0.70611   0.91300   0.00000  Uiso   1.00
N1966  N     0.57606   0.88262   0.72217   0.00000  Uiso   1.00
O1967  O     0.50000   0.77225   0.87154   0.00000  Uiso   1.00
O1968  O     0.50000   0.89442   0.79513   0.00000  Uiso   1.00
O1969  O     0.50000   0.77226   0.79510   0.00000  Uiso   1.00
O1970  O     0.50000   0.89441   0.87157   0.00000  Uiso   1.00
O1971  O     0.42392   0.83333   0.86261   0.00000  Uiso   1.00
O1972  O     0.57608   0.83334   0.80405   0.00000  Uiso   1.00
O1973  O     0.42392   0.83334   0.78617   0.00000  Uiso   1.00
O1974  O     0.57608   0.83333   0.88050   0.00000  Uiso   1.00
Zn1975 Zn    0.50000   0.83333   0.88437   0.00000  Uiso   1.00
Zn1976 Zn    0.50000   0.83334   0.78229   0.00000  Uiso   1.00
C1977  C     0.83368   0.75309   0.83357   0.00000  Uiso   1.00
C1978  C     0.81663   0.68578   0.87160   0.00000  Uiso   1.00
C1979  C     0.81800   0.95622   0.82988   0.00000  Uiso   1.00
C1980  C     0.83029   0.70811   0.83317   0.00000  Uiso   1.00
C1981  C     0.87070   0.85718   0.69435   0.00000  Uiso   1.00
C1982  C     0.79501   0.81111   0.97189   0.00000  Uiso   1.00
C1983  C     0.87253   0.85422   0.97978   0.00000  Uiso   1.00
C1984  C     0.79600   0.81036   0.68637   0.00000  Uiso   1.00
C1985  C     0.90212   0.71391   0.74973   0.00000  Uiso   1.00
C1986  C     0.80786   0.94514   0.94402   0.00000  Uiso   1.00
C1987  C     0.76349   0.94722   0.72840   0.00000  Uiso   1.00
C1988  C     0.82760   0.91267   0.83230   0.00000  Uiso   1.00
C1989  C     0.86078   0.71221   0.94347   0.00000  Uiso   1.00
C1990  C     0.92610   0.92315   0.70632   0.00000  Uiso   1.00
C1991  C     0.70195   0.78695   0.94889   0.00000  Uiso   1.00
C1992  C     0.73408   0.83302   0.82179   0.00000  Uiso   1.00
C1993  C     0.93264   0.83503   0.84470   0.00000  Uiso   1.00
C1994  C     0.67938   0.82670   0.81704   0.00000  Uiso   1.00
C1995  C     0.98728   0.84311   0.84840   0.00000  Uiso   1.00
C1996  C     0.83340   0.68744   0.79197   0.00000  Uiso   1.00
C1997  C     0.80700   0.97641   0.86850   0.00000  Uiso   1.00
C1998  C     0.82336   0.97828   0.78970   0.00000  Uiso   1.00
H1999  H     0.98995   0.81186   0.75121   0.00000  Uiso   1.00
H2000  H     0.80050   0.96798   0.96954   0.00000  Uiso   1.00
H2001  H     0.85045   0.94532   0.94209   0.00000  Uiso   1.00
H2002  H     0.79427   0.91404   0.95516   0.00000  Uiso   1.00
H2003  H     0.83969   0.96956   0.72342   0.00000  Uiso   1.00
H2004  H     0.74316   0.97580   0.71781   0.00000  Uiso   1.00
H2005  H     0.74233   0.93010   0.75362   0.00000  Uiso   1.00
H2006  H     0.76258   0.92696   0.69854   0.00000  Uiso   1.00
H2007  H     0.78080   0.69603   0.92906   0.00000  Uiso   1.00
H2008  H     0.87491   0.68226   0.95697   0.00000  Uiso   1.00
H2009  H     0.85424   0.73175   0.97229   0.00000  Uiso   1.00
H2010  H     0.67463   0.77118   0.78499   0.00000  Uiso   1.00
H2011  H     0.89177   0.72803   0.92592   0.00000  Uiso   1.00
H2012  H     0.90229   0.88492   0.75469   0.00000  Uiso   1.00
H2013  H     0.93495   0.94489   0.73527   0.00000  Uiso   1.00
H2014  H     0.89514   0.93634   0.68191   0.00000  Uiso   1.00
H2015  H     0.96307   0.92137   0.69146   0.00000  Uiso   1.00
H2016  H     0.76485   0.77634   0.91363   0.00000  Uiso   1.00
H2017  H     0.67874   0.78771   0.91486   0.00000  Uiso   1.00
H2018  H     0.69441   0.81481   0.96785   0.00000  Uiso   1.00
H2019  H     0.68826   0.75873   0.96638   0.00000  Uiso   1.00
H2020  H     0.91713   0.90134   0.95502   0.00000  Uiso   1.00
H2021  H     0.67137   0.86527   0.91250   0.00000  Uiso   1.00
H2022  H     0.95159   0.86128   0.98024   0.00000  Uiso   1.00
H2023  H     0.77334   0.76610   0.73039   0.00000  Uiso   1.00
H2024  H     0.72985   0.80375   0.71574   0.00000  Uiso   1.00
H2025  H     0.99390   0.90181   0.87224   0.00000  Uiso   1.00
H2026  H     0.82362   0.70209   0.72270   0.00000  Uiso   1.00
H2027  H     0.91721   0.68363   0.74254   0.00000  Uiso   1.00
H2028  H     0.92385   0.72634   0.78186   0.00000  Uiso   1.00
H2029  H     0.90901   0.73587   0.72197   0.00000  Uiso   1.00
H2030  H     0.74214   0.96429   0.90210   0.00000  Uiso   1.00
N2031  N     0.83332   0.83332   0.95240   0.00000  Uiso   1.00
N2032  N     0.75711   0.78480   0.94481   0.00000  Uiso   1.00
N2033  N     0.91741   0.86945   0.95994   0.00000  Uiso   1.00
N2034  N     0.75675   0.78489   0.70461   0.00000  Uiso   1.00
N2035  N     0.83335   0.83334   0.71427   0.00000  Uiso   1.00
N2036  N     0.98759   0.79831   0.78289   0.00000  Uiso   1.00
N2037  N     0.67853   0.87398   0.88002   0.00000  Uiso   1.00
N2038  N     0.84663   0.70937   0.75287   0.00000  Uiso   1.00
N2039  N     0.77910   0.95436   0.90039   0.00000  Uiso   1.00
N2040  N     0.81734   0.95764   0.74708   0.00000  Uiso   1.00
N2041  N     0.81219   0.70611   0.91300   0.00000  Uiso   1.00
N2042  N     0.90939   0.88262   0.72217   0.00000  Uiso   1.00
O2043  O     0.83333   0.77225   0.87154   0.00000  Uiso   1.00
O2044  O     0.83334   0.89442   0.79513   0.00000  Uiso   1.00
O2045  O     0.83333   0.77226   0.79510   0.00000  Uiso   1.00
O2046  O     0.83334   0.89441   0.87157   0.00000  Uiso   1.00
O2047  O     0.75725   0.83333   0.86261   0.00000  Uiso   1.00
O2048  O     0.90942   0.83334   0.80405   0.00000  Uiso   1.00
O2049  O     0.75725   0.83334   0.78617   0.00000  Uiso   1.00
O2050  O     0.90942   0.83333   0.88050   0.00000  Uiso   1.00
Zn2051 Zn    0.83333   0.83333   0.88437   0.00000  Uiso   1.00
Zn2052 Zn    0.83333   0.83334   0.78229   0.00000  Uiso   1.00
loop_
_geom_bond_atom_site_label_1
_geom_bond_atom_site_label_2
_geom_bond_distance
_geom_bond_site_symmetry_2
_ccdc_geom_bond_type
C1     C4      1.453   .     S
C1     O67     1.299   .     A
C1     O69     1.297   .     A
C2     C4      1.421   .     A
C2     N65     1.427   .     S
C2     C477    1.392   1_545 S
C3     C21     1.401   .     A
C3     C22     1.406   .     A
C3     C12     1.444   .     S
C4     C20     1.420   .     A
C5     N59     1.390   .     A
C5     N66     1.435   .     S
C5     C1375   1.441   1_554 S
C6     N55     1.376   .     A
C6     N56     1.429   .     S
C6     C692    1.423   .     S
C7     N55     1.363   .     A
C7     N57     1.430   .     S
C7     C689    1.441   .     S
C8     N58     1.428   .     S
C8     N59     1.375   .     A
C8     C1374   1.423   1_554 S
C9     H51     1.109   .     S
C9     H52     1.110   .     S
C9     N62     1.446   .     S
C9     H53     1.110   .     S
C10    N63     1.445   .     S
C10    H26     1.109   .     S
C10    H24     1.109   .     S
C10    H25     1.107   .     S
C11    H30     1.110   .     S
C11    H29     1.112   .     S
C11    H28     1.111   .     S
C11    N64     1.447   .     S
C12    O68     1.293   .     A
C12    O70     1.300   .     A
C13    N65     1.451   .     S
C13    H33     1.110   .     S
C13    H35     1.111   .     S
C13    H32     1.108   .     S
C14    H37     1.112   .     S
C14    N66     1.451   .     S
C14    H38     1.107   .     S
C14    H39     1.109   .     S
C15    N56     1.450   .     S
C15    H43     1.110   .     S
C15    H41     1.107   .     S
C15    H42     1.111   .     S
C16    O71     1.282   .     A
C16    C18     1.402   .     S
C16    O73     1.287   .     A
C17    O74     1.292   .     A
C17    O72     1.278   .     A
C17    C19     1.408   .     S
C18    C171    1.344   1_455 S
C18    N212    1.441   1_455 S
C19    C94     1.344   .     S
C19    N137    1.442   .     S
C20    N62     1.428   .     S
C20    C478    1.386   1_545 S
C21    N63     1.428   .     S
C21    C230    1.392   .     S
C22    N64     1.429   .     S
C22    C248    1.386   .     S
H23    N60     1.045   .     S
H27    N64     1.028   .     S
H31    N65     1.030   .     S
H34    N212    1.046   1_455 S
H36    N66     1.015   .     S
H40    N56     1.021   .     S
H44    N57     1.041   .     S
H45    N61     1.043   .     S
H46    N57     1.045   .     S
H47    N58     1.036   .     S
H48    N58     1.039   .     S
H49    N137    1.046   .     S
H50    N62     1.031   .     S
H54    N63     1.031   .     S
N55    Zn75    2.029   .     S
N59    Zn76    2.029   .     S
N60    H110    1.046   .     S
N60    C94     1.441   .     S
N61    H201    1.046   1_455 S
N61    C171    1.442   1_455 S
O67    Zn75    2.018   .     S
O68    Zn76    2.018   .     S
O69    Zn76    2.009   .     S
O70    Zn75    2.009   .     S
O71    Zn75    1.982   .     S
O72    Zn76    1.982   .     S
O73    Zn76    1.981   .     S
O74    Zn75    1.981   .     S
C77    C80     1.453   .     S
C77    O143    1.299   .     A
C77    O145    1.297   .     A
C78    C80     1.421   .     A
C78    N141    1.427   .     S
C78    C553    1.392   1_545 S
C79    C97     1.401   .     A
C79    C98     1.406   .     A
C79    C88     1.444   .     S
C80    C96     1.420   .     A
C81    N135    1.390   .     A
C81    N142    1.435   .     S
C81    C1451   1.441   1_554 S
C82    N131    1.376   .     A
C82    N132    1.429   .     S
C82    C768    1.423   .     S
C83    N131    1.363   .     A
C83    N133    1.430   .     S
C83    C765    1.441   .     S
C84    N134    1.428   .     S
C84    N135    1.375   .     A
C84    C1450   1.423   1_554 S
C85    H127    1.109   .     S
C85    H128    1.110   .     S
C85    N138    1.446   .     S
C85    H129    1.110   .     S
C86    N139    1.445   .     S
C86    H102    1.109   .     S
C86    H100    1.109   .     S
C86    H101    1.107   .     S
C87    H106    1.110   .     S
C87    H105    1.112   .     S
C87    H104    1.111   .     S
C87    N140    1.447   .     S
C88    O144    1.293   .     A
C88    O146    1.300   .     A
C89    N141    1.451   .     S
C89    H109    1.110   .     S
C89    H111    1.111   .     S
C89    H108    1.108   .     S
C90    H113    1.112   .     S
C90    N142    1.451   .     S
C90    H114    1.107   .     S
C90    H115    1.109   .     S
C91    N132    1.450   .     S
C91    H119    1.110   .     S
C91    H117    1.107   .     S
C91    H118    1.111   .     S
C92    O147    1.282   .     A
C92    C94     1.402   .     S
C92    O149    1.287   .     A
C93    O150    1.292   .     A
C93    O148    1.278   .     A
C93    C95     1.408   .     S
C95    C170    1.344   .     S
C95    N213    1.442   .     S
C96    N138    1.428   .     S
C96    C554    1.386   1_545 S
C97    N139    1.428   .     S
C97    C306    1.392   .     S
C98    N140    1.429   .     S
C98    C324    1.386   .     S
H99    N136    1.045   .     S
H103   N140    1.028   .     S
H107   N141    1.030   .     S
H112   N142    1.015   .     S
H116   N132    1.021   .     S
H120   N133    1.041   .     S
H121   N137    1.043   .     S
H122   N133    1.045   .     S
H123   N134    1.036   .     S
H124   N134    1.039   .     S
H125   N213    1.046   .     S
H126   N138    1.031   .     S
H130   N139    1.031   .     S
N131   Zn151   2.029   .     S
N135   Zn152   2.029   .     S
N136   H186    1.046   .     S
N136   C170    1.441   .     S
O143   Zn151   2.018   .     S
O144   Zn152   2.018   .     S
O145   Zn152   2.009   .     S
O146   Zn151   2.009   .     S
O147   Zn151   1.982   .     S
O148   Zn152   1.982   .     S
O149   Zn152   1.981   .     S
O150   Zn151   1.981   .     S
C153   C156    1.453   .     S
C153   O219    1.299   .     A
C153   O221    1.297   .     A
C154   C156    1.421   .     A
C154   N217    1.427   .     S
C154   C629    1.392   1_545 S
C155   C173    1.401   .     A
C155   C174    1.406   .     A
C155   C164    1.444   .     S
C156   C172    1.420   .     A
C157   N211    1.390   .     A
C157   N218    1.435   .     S
C157   C1527   1.441   1_554 S
C158   N207    1.376   .     A
C158   N208    1.429   .     S
C158   C844    1.423   .     S
C159   N207    1.363   .     A
C159   N209    1.430   .     S
C159   C841    1.441   .     S
C160   N210    1.428   .     S
C160   N211    1.375   .     A
C160   C1526   1.423   1_554 S
C161   H203    1.109   .     S
C161   H204    1.110   .     S
C161   N214    1.446   .     S
C161   H205    1.110   .     S
C162   N215    1.445   .     S
C162   H178    1.109   .     S
C162   H176    1.109   .     S
C162   H177    1.107   .     S
C163   H182    1.110   .     S
C163   H181    1.112   .     S
C163   H180    1.111   .     S
C163   N216    1.447   .     S
C164   O220    1.293   .     A
C164   O222    1.300   .     A
C165   N217    1.451   .     S
C165   H185    1.110   .     S
C165   H187    1.111   .     S
C165   H184    1.108   .     S
C166   H189    1.112   .     S
C166   N218    1.451   .     S
C166   H190    1.107   .     S
C166   H191    1.109   .     S
C167   N208    1.450   .     S
C167   H195    1.110   .     S
C167   H193    1.107   .     S
C167   H194    1.111   .     S
C168   O223    1.282   .     A
C168   C170    1.402   .     S
C168   O225    1.287   .     A
C169   O226    1.292   .     A
C169   O224    1.278   .     A
C169   C171    1.408   .     S
C171   C18     1.344   1_655 S
C171   N61     1.442   1_655 S
C172   N214    1.428   .     S
C172   C630    1.386   1_545 S
C173   N215    1.428   .     S
C173   C382    1.392   .     S
C174   N216    1.429   .     S
C174   C400    1.386   .     S
H175   N212    1.045   .     S
H179   N216    1.028   .     S
H183   N217    1.030   .     S
H188   N218    1.015   .     S
H192   N208    1.021   .     S
H196   N209    1.041   .     S
H197   N213    1.043   .     S
H198   N209    1.045   .     S
H199   N210    1.036   .     S
H200   N210    1.039   .     S
H201   N61     1.046   1_655 S
H202   N214    1.031   .     S
H206   N215    1.031   .     S
N207   Zn227   2.029   .     S
N211   Zn228   2.029   .     S
N212   H34     1.046   1_655 S
N212   C18     1.441   1_655 S
O219   Zn227   2.018   .     S
O220   Zn228   2.018   .     S
O221   Zn228   2.009   .     S
O222   Zn227   2.009   .     S
O223   Zn227   1.982   .     S
O224   Zn228   1.982   .     S
O225   Zn228   1.981   .     S
O226   Zn227   1.981   .     S
C229   C232    1.453   .     S
C229   O295    1.299   .     A
C229   O297    1.297   .     A
C230   C232    1.421   .     A
C230   N293    1.427   .     S
C231   C249    1.401   .     A
C231   C250    1.406   .     A
C231   C240    1.444   .     S
C232   C248    1.420   .     A
C233   N287    1.390   .     A
C233   N294    1.435   .     S
C233   C1603   1.441   1_554 S
C234   N283    1.376   .     A
C234   N284    1.429   .     S
C234   C920    1.423   .     S
C235   N283    1.363   .     A
C235   N285    1.430   .     S
C235   C917    1.441   .     S
C236   N286    1.428   .     S
C236   N287    1.375   .     A
C236   C1602   1.423   1_554 S
C237   H279    1.109   .     S
C237   H280    1.110   .     S
C237   N290    1.446   .     S
C237   H281    1.110   .     S
C238   N291    1.445   .     S
C238   H254    1.109   .     S
C238   H252    1.109   .     S
C238   H253    1.107   .     S
C239   H258    1.110   .     S
C239   H257    1.112   .     S
C239   H256    1.111   .     S
C239   N292    1.447   .     S
C240   O296    1.293   .     A
C240   O298    1.300   .     A
C241   N293    1.451   .     S
C241   H261    1.110   .     S
C241   H263    1.111   .     S
C241   H260    1.108   .     S
C242   H265    1.112   .     S
C242   N294    1.451   .     S
C242   H266    1.107   .     S
C242   H267    1.109   .     S
C243   N284    1.450   .     S
C243   H271    1.110   .     S
C243   H269    1.107   .     S
C243   H270    1.111   .     S
C244   O299    1.282   .     A
C244   C246    1.402   .     S
C244   O301    1.287   .     A
C245   O302    1.292   .     A
C245   O300    1.278   .     A
C245   C247    1.408   .     S
C246   C399    1.344   1_455 S
C246   N440    1.441   1_455 S
C247   C322    1.344   .     S
C247   N365    1.442   .     S
C248   N290    1.428   .     S
C249   N291    1.428   .     S
C249   C458    1.392   .     S
C250   N292    1.429   .     S
C250   C476    1.386   .     S
H251   N288    1.045   .     S
H255   N292    1.028   .     S
H259   N293    1.030   .     S
H262   N440    1.046   1_455 S
H264   N294    1.015   .     S
H268   N284    1.021   .     S
H272   N285    1.041   .     S
H273   N289    1.043   .     S
H274   N285    1.045   .     S
H275   N286    1.036   .     S
H276   N286    1.039   .     S
H277   N365    1.046   .     S
H278   N290    1.031   .     S
H282   N291    1.031   .     S
N283   Zn303   2.029   .     S
N287   Zn304   2.029   .     S
N288   H338    1.046   .     S
N288   C322    1.441   .     S
N289   H429    1.046   1_455 S
N289   C399    1.442   1_455 S
O295   Zn303   2.018   .     S
O296   Zn304   2.018   .     S
O297   Zn304   2.009   .     S
O298   Zn303   2.009   .     S
O299   Zn303   1.982   .     S
O300   Zn304   1.982   .     S
O301   Zn304   1.981   .     S
O302   Zn303   1.981   .     S
C305   C308    1.453   .     S
C305   O371    1.299   .     A
C305   O373    1.297   .     A
C306   C308    1.421   .     A
C306   N369    1.427   .     S
C307   C325    1.401   .     A
C307   C326    1.406   .     A
C307   C316    1.444   .     S
C308   C324    1.420   .     A
C309   N363    1.390   .     A
C309   N370    1.435   .     S
C309   C1679   1.441   1_554 S
C310   N359    1.376   .     A
C310   N360    1.429   .     S
C310   C996    1.423   .     S
C311   N359    1.363   .     A
C311   N361    1.430   .     S
C311   C993    1.441   .     S
C312   N362    1.428   .     S
C312   N363    1.375   .     A
C312   C1678   1.423   1_554 S
C313   H355    1.109   .     S
C313   H356    1.110   .     S
C313   N366    1.446   .     S
C313   H357    1.110   .     S
C314   N367    1.445   .     S
C314   H330    1.109   .     S
C314   H328    1.109   .     S
C314   H329    1.107   .     S
C315   H334    1.110   .     S
C315   H333    1.112   .     S
C315   H332    1.111   .     S
C315   N368    1.447   .     S
C316   O372    1.293   .     A
C316   O374    1.300   .     A
C317   N369    1.451   .     S
C317   H337    1.110   .     S
C317   H339    1.111   .     S
C317   H336    1.108   .     S
C318   H341    1.112   .     S
C318   N370    1.451   .     S
C318   H342    1.107   .     S
C318   H343    1.109   .     S
C319   N360    1.450   .     S
C319   H347    1.110   .     S
C319   H345    1.107   .     S
C319   H346    1.111   .     S
C320   O375    1.282   .     A
C320   C322    1.402   .     S
C320   O377    1.287   .     A
C321   O378    1.292   .     A
C321   O376    1.278   .     A
C321   C323    1.408   .     S
C323   C398    1.344   .     S
C323   N441    1.442   .     S
C324   N366    1.428   .     S
C325   N367    1.428   .     S
C325   C534    1.392   .     S
C326   N368    1.429   .     S
C326   C552    1.386   .     S
H327   N364    1.045   .     S
H331   N368    1.028   .     S
H335   N369    1.030   .     S
H340   N370    1.015   .     S
H344   N360    1.021   .     S
H348   N361    1.041   .     S
H349   N365    1.043   .     S
H350   N361    1.045   .     S
H351   N362    1.036   .     S
H352   N362    1.039   .     S
H353   N441    1.046   .     S
H354   N366    1.031   .     S
H358   N367    1.031   .     S
N359   Zn379   2.029   .     S
N363   Zn380   2.029   .     S
N364   H414    1.046   .     S
N364   C398    1.441   .     S
O371   Zn379   2.018   .     S
O372   Zn380   2.018   .     S
O373   Zn380   2.009   .     S
O374   Zn379   2.009   .     S
O375   Zn379   1.982   .     S
O376   Zn380   1.982   .     S
O377   Zn380   1.981   .     S
O378   Zn379   1.981   .     S
C381   C384    1.453   .     S
C381   O447    1.299   .     A
C381   O449    1.297   .     A
C382   C384    1.421   .     A
C382   N445    1.427   .     S
C383   C401    1.401   .     A
C383   C402    1.406   .     A
C383   C392    1.444   .     S
C384   C400    1.420   .     A
C385   N439    1.390   .     A
C385   N446    1.435   .     S
C385   C1755   1.441   1_554 S
C386   N435    1.376   .     A
C386   N436    1.429   .     S
C386   C1072   1.423   .     S
C387   N435    1.363   .     A
C387   N437    1.430   .     S
C387   C1069   1.441   .     S
C388   N438    1.428   .     S
C388   N439    1.375   .     A
C388   C1754   1.423   1_554 S
C389   H431    1.109   .     S
C389   H432    1.110   .     S
C389   N442    1.446   .     S
C389   H433    1.110   .     S
C390   N443    1.445   .     S
C390   H406    1.109   .     S
C390   H404    1.109   .     S
C390   H405    1.107   .     S
C391   H410    1.110   .     S
C391   H409    1.112   .     S
C391   H408    1.111   .     S
C391   N444    1.447   .     S
C392   O448    1.293   .     A
C392   O450    1.300   .     A
C393   N445    1.451   .     S
C393   H413    1.110   .     S
C393   H415    1.111   .     S
C393   H412    1.108   .     S
C394   H417    1.112   .     S
C394   N446    1.451   .     S
C394   H418    1.107   .     S
C394   H419    1.109   .     S
C395   N436    1.450   .     S
C395   H423    1.110   .     S
C395   H421    1.107   .     S
C395   H422    1.111   .     S
C396   O451    1.282   .     A
C396   C398    1.402   .     S
C396   O453    1.287   .     A
C397   O454    1.292   .     A
C397   O452    1.278   .     A
C397   C399    1.408   .     S
C399   C246    1.344   1_655 S
C399   N289    1.442   1_655 S
C400   N442    1.428   .     S
C401   N443    1.428   .     S
C401   C610    1.392   .     S
C402   N444    1.429   .     S
C402   C628    1.386   .     S
H403   N440    1.045   .     S
H407   N444    1.028   .     S
H411   N445    1.030   .     S
H416   N446    1.015   .     S
H420   N436    1.021   .     S
H424   N437    1.041   .     S
H425   N441    1.043   .     S
H426   N437    1.045   .     S
H427   N438    1.036   .     S
H428   N438    1.039   .     S
H429   N289    1.046   1_655 S
H430   N442    1.031   .     S
H434   N443    1.031   .     S
N435   Zn455   2.029   .     S
N439   Zn456   2.029   .     S
N440   H262    1.046   1_655 S
N440   C246    1.441   1_655 S
O447   Zn455   2.018   .     S
O448   Zn456   2.018   .     S
O449   Zn456   2.009   .     S
O450   Zn455   2.009   .     S
O451   Zn455   1.982   .     S
O452   Zn456   1.982   .     S
O453   Zn456   1.981   .     S
O454   Zn455   1.981   .     S
C457   C460    1.453   .     S
C457   O523    1.299   .     A
C457   O525    1.297   .     A
C458   C460    1.421   .     A
C458   N521    1.427   .     S
C459   C477    1.401   .     A
C459   C478    1.406   .     A
C459   C468    1.444   .     S
C460   C476    1.420   .     A
C461   N515    1.390   .     A
C461   N522    1.435   .     S
C461   C1831   1.441   1_554 S
C462   N511    1.376   .     A
C462   N512    1.429   .     S
C462   C1148   1.423   .     S
C463   N511    1.363   .     A
C463   N513    1.430   .     S
C463   C1145   1.441   .     S
C464   N514    1.428   .     S
C464   N515    1.375   .     A
C464   C1830   1.423   1_554 S
C465   H507    1.109   .     S
C465   H508    1.110   .     S
C465   N518    1.446   .     S
C465   H509    1.110   .     S
C466   N519    1.445   .     S
C466   H482    1.109   .     S
C466   H480    1.109   .     S
C466   H481    1.107   .     S
C467   H486    1.110   .     S
C467   H485    1.112   .     S
C467   H484    1.111   .     S
C467   N520    1.447   .     S
C468   O524    1.293   .     A
C468   O526    1.300   .     A
C469   N521    1.451   .     S
C469   H489    1.110   .     S
C469   H491    1.111   .     S
C469   H488    1.108   .     S
C470   H493    1.112   .     S
C470   N522    1.451   .     S
C470   H494    1.107   .     S
C470   H495    1.109   .     S
C471   N512    1.450   .     S
C471   H499    1.110   .     S
C471   H497    1.107   .     S
C471   H498    1.111   .     S
C472   O527    1.282   .     A
C472   C474    1.402   .     S
C472   O529    1.287   .     A
C473   O530    1.292   .     A
C473   O528    1.278   .     A
C473   C475    1.408   .     S
C474   C627    1.344   1_455 S
C474   N668    1.441   1_455 S
C475   C550    1.344   .     S
C475   N593    1.442   .     S
C476   N518    1.428   .     S
C477   N519    1.428   .     S
C477   C2      1.392   1_565 S
C478   N520    1.429   .     S
C478   C20     1.386   1_565 S
H479   N516    1.045   .     S
H483   N520    1.028   .     S
H487   N521    1.030   .     S
H490   N668    1.046   1_455 S
H492   N522    1.015   .     S
H496   N512    1.021   .     S
H500   N513    1.041   .     S
H501   N517    1.043   .     S
H502   N513    1.045   .     S
H503   N514    1.036   .     S
H504   N514    1.039   .     S
H505   N593    1.046   .     S
H506   N518    1.031   .     S
H510   N519    1.031   .     S
N511   Zn531   2.029   .     S
N515   Zn532   2.029   .     S
N516   H566    1.046   .     S
N516   C550    1.441   .     S
N517   H657    1.046   1_455 S
N517   C627    1.442   1_455 S
O523   Zn531   2.018   .     S
O524   Zn532   2.018   .     S
O525   Zn532   2.009   .     S
O526   Zn531   2.009   .     S
O527   Zn531   1.982   .     S
O528   Zn532   1.982   .     S
O529   Zn532   1.981   .     S
O530   Zn531   1.981   .     S
C533   C536    1.453   .     S
C533   O599    1.299   .     A
C533   O601    1.297   .     A
C534   C536    1.421   .     A
C534   N597    1.427   .     S
C535   C553    1.401   .     A
C535   C554    1.406   .     A
C535   C544    1.444   .     S
C536   C552    1.420   .     A
C537   N591    1.390   .     A
C537   N598    1.435   .     S
C537   C1907   1.441   1_554 S
C538   N587    1.376   .     A
C538   N588    1.429   .     S
C538   C1224   1.423   .     S
C539   N587    1.363   .     A
C539   N589    1.430   .     S
C539   C1221   1.441   .     S
C540   N590    1.428   .     S
C540   N591    1.375   .     A
C540   C1906   1.423   1_554 S
C541   H583    1.109   .     S
C541   H584    1.110   .     S
C541   N594    1.446   .     S
C541   H585    1.110   .     S
C542   N595    1.445   .     S
C542   H558    1.109   .     S
C542   H556    1.109   .     S
C542   H557    1.107   .     S
C543   H562    1.110   .     S
C543   H561    1.112   .     S
C543   H560    1.111   .     S
C543   N596    1.447   .     S
C544   O600    1.293   .     A
C544   O602    1.300   .     A
C545   N597    1.451   .     S
C545   H565    1.110   .     S
C545   H567    1.111   .     S
C545   H564    1.108   .     S
C546   H569    1.112   .     S
C546   N598    1.451   .     S
C546   H570    1.107   .     S
C546   H571    1.109   .     S
C547   N588    1.450   .     S
C547   H575    1.110   .     S
C547   H573    1.107   .     S
C547   H574    1.111   .     S
C548   O603    1.282   .     A
C548   C550    1.402   .     S
C548   O605    1.287   .     A
C549   O606    1.292   .     A
C549   O604    1.278   .     A
C549   C551    1.408   .     S
C551   C626    1.344   .     S
C551   N669    1.442   .     S
C552   N594    1.428   .     S
C553   N595    1.428   .     S
C553   C78     1.392   1_565 S
C554   N596    1.429   .     S
C554   C96     1.386   1_565 S
H555   N592    1.045   .     S
H559   N596    1.028   .     S
H563   N597    1.030   .     S
H568   N598    1.015   .     S
H572   N588    1.021   .     S
H576   N589    1.041   .     S
H577   N593    1.043   .     S
H578   N589    1.045   .     S
H579   N590    1.036   .     S
H580   N590    1.039   .     S
H581   N669    1.046   .     S
H582   N594    1.031   .     S
H586   N595    1.031   .     S
N587   Zn607   2.029   .     S
N591   Zn608   2.029   .     S
N592   H642    1.046   .     S
N592   C626    1.441   .     S
O599   Zn607   2.018   .     S
O600   Zn608   2.018   .     S
O601   Zn608   2.009   .     S
O602   Zn607   2.009   .     S
O603   Zn607   1.982   .     S
O604   Zn608   1.982   .     S
O605   Zn608   1.981   .     S
O606   Zn607   1.981   .     S
C609   C612    1.453   .     S
C609   O675    1.299   .     A
C609   O677    1.297   .     A
C610   C612    1.421   .     A
C610   N673    1.427   .     S
C611   C629    1.401   .     A
C611   C630    1.406   .     A
C611   C620    1.444   .     S
C612   C628    1.420   .     A
C613   N667    1.390   .     A
C613   N674    1.435   .     S
C613   C1983   1.441   1_554 S
C614   N663    1.376   .     A
C614   N664    1.429   .     S
C614   C1300   1.423   .     S
C615   N663    1.363   .     A
C615   N665    1.430   .     S
C615   C1297   1.441   .     S
C616   N666    1.428   .     S
C616   N667    1.375   .     A
C616   C1982   1.423   1_554 S
C617   H659    1.109   .     S
C617   H660    1.110   .     S
C617   N670    1.446   .     S
C617   H661    1.110   .     S
C618   N671    1.445   .     S
C618   H634    1.109   .     S
C618   H632    1.109   .     S
C618   H633    1.107   .     S
C619   H638    1.110   .     S
C619   H637    1.112   .     S
C619   H636    1.111   .     S
C619   N672    1.447   .     S
C620   O676    1.293   .     A
C620   O678    1.300   .     A
C621   N673    1.451   .     S
C621   H641    1.110   .     S
C621   H643    1.111   .     S
C621   H640    1.108   .     S
C622   H645    1.112   .     S
C622   N674    1.451   .     S
C622   H646    1.107   .     S
C622   H647    1.109   .     S
C623   N664    1.450   .     S
C623   H651    1.110   .     S
C623   H649    1.107   .     S
C623   H650    1.111   .     S
C624   O679    1.282   .     A
C624   C626    1.402   .     S
C624   O681    1.287   .     A
C625   O682    1.292   .     A
C625   O680    1.278   .     A
C625   C627    1.408   .     S
C627   C474    1.344   1_655 S
C627   N517    1.442   1_655 S
C628   N670    1.428   .     S
C629   N671    1.428   .     S
C629   C154    1.392   1_565 S
C630   N672    1.429   .     S
C630   C172    1.386   1_565 S
H631   N668    1.045   .     S
H635   N672    1.028   .     S
H639   N673    1.030   .     S
H644   N674    1.015   .     S
H648   N664    1.021   .     S
H652   N665    1.041   .     S
H653   N669    1.043   .     S
H654   N665    1.045   .     S
H655   N666    1.036   .     S
H656   N666    1.039   .     S
H657   N517    1.046   1_655 S
H658   N670    1.031   .     S
H662   N671    1.031   .     S
N663   Zn683   2.029   .     S
N667   Zn684   2.029   .     S
N668   H490    1.046   1_655 S
N668   C474    1.441   1_655 S
O675   Zn683   2.018   .     S
O676   Zn684   2.018   .     S
O677   Zn684   2.009   .     S
O678   Zn683   2.009   .     S
O679   Zn683   1.982   .     S
O680   Zn684   1.982   .     S
O681   Zn684   1.981   .     S
O682   Zn683   1.981   .     S
C685   C688    1.453   .     S
C685   O751    1.299   .     A
C685   O753    1.297   .     A
C686   C688    1.421   .     A
C686   N749    1.427   .     S
C686   C1161   1.392   1_545 S
C687   C705    1.401   .     A
C687   C706    1.406   .     A
C687   C696    1.444   .     S
C688   C704    1.420   .     A
C689   N743    1.390   .     A
C689   N750    1.435   .     S
C690   N739    1.376   .     A
C690   N740    1.429   .     S
C690   C1376   1.423   .     S
C691   N739    1.363   .     A
C691   N741    1.430   .     S
C691   C1373   1.441   .     S
C692   N742    1.428   .     S
C692   N743    1.375   .     A
C693   H735    1.109   .     S
C693   H736    1.110   .     S
C693   N746    1.446   .     S
C693   H737    1.110   .     S
C694   N747    1.445   .     S
C694   H710    1.109   .     S
C694   H708    1.109   .     S
C694   H709    1.107   .     S
C695   H714    1.110   .     S
C695   H713    1.112   .     S
C695   H712    1.111   .     S
C695   N748    1.447   .     S
C696   O752    1.293   .     A
C696   O754    1.300   .     A
C697   N749    1.451   .     S
C697   H717    1.110   .     S
C697   H719    1.111   .     S
C697   H716    1.108   .     S
C698   H721    1.112   .     S
C698   N750    1.451   .     S
C698   H722    1.107   .     S
C698   H723    1.109   .     S
C699   N740    1.450   .     S
C699   H727    1.110   .     S
C699   H725    1.107   .     S
C699   H726    1.111   .     S
C700   O755    1.282   .     A
C700   C702    1.402   .     S
C700   O757    1.287   .     A
C701   O758    1.292   .     A
C701   O756    1.278   .     A
C701   C703    1.408   .     S
C702   C855    1.344   1_455 S
C702   N896    1.441   1_455 S
C703   C778    1.344   .     S
C703   N821    1.442   .     S
C704   N746    1.428   .     S
C704   C1162   1.386   1_545 S
C705   N747    1.428   .     S
C705   C914    1.392   .     S
C706   N748    1.429   .     S
C706   C932    1.386   .     S
H707   N744    1.045   .     S
H711   N748    1.028   .     S
H715   N749    1.030   .     S
H718   N896    1.046   1_455 S
H720   N750    1.015   .     S
H724   N740    1.021   .     S
H728   N741    1.041   .     S
H729   N745    1.043   .     S
H730   N741    1.045   .     S
H731   N742    1.036   .     S
H732   N742    1.039   .     S
H733   N821    1.046   .     S
H734   N746    1.031   .     S
H738   N747    1.031   .     S
N739   Zn759   2.029   .     S
N743   Zn760   2.029   .     S
N744   H794    1.046   .     S
N744   C778    1.441   .     S
N745   H885    1.046   1_455 S
N745   C855    1.442   1_455 S
O751   Zn759   2.018   .     S
O752   Zn760   2.018   .     S
O753   Zn760   2.009   .     S
O754   Zn759   2.009   .     S
O755   Zn759   1.982   .     S
O756   Zn760   1.982   .     S
O757   Zn760   1.981   .     S
O758   Zn759   1.981   .     S
C761   C764    1.453   .     S
C761   O827    1.299   .     A
C761   O829    1.297   .     A
C762   C764    1.421   .     A
C762   N825    1.427   .     S
C762   C1237   1.392   1_545 S
C763   C781    1.401   .     A
C763   C782    1.406   .     A
C763   C772    1.444   .     S
C764   C780    1.420   .     A
C765   N819    1.390   .     A
C765   N826    1.435   .     S
C766   N815    1.376   .     A
C766   N816    1.429   .     S
C766   C1452   1.423   .     S
C767   N815    1.363   .     A
C767   N817    1.430   .     S
C767   C1449   1.441   .     S
C768   N818    1.428   .     S
C768   N819    1.375   .     A
C769   H811    1.109   .     S
C769   H812    1.110   .     S
C769   N822    1.446   .     S
C769   H813    1.110   .     S
C770   N823    1.445   .     S
C770   H786    1.109   .     S
C770   H784    1.109   .     S
C770   H785    1.107   .     S
C771   H790    1.110   .     S
C771   H789    1.112   .     S
C771   H788    1.111   .     S
C771   N824    1.447   .     S
C772   O828    1.293   .     A
C772   O830    1.300   .     A
C773   N825    1.451   .     S
C773   H793    1.110   .     S
C773   H795    1.111   .     S
C773   H792    1.108   .     S
C774   H797    1.112   .     S
C774   N826    1.451   .     S
C774   H798    1.107   .     S
C774   H799    1.109   .     S
C775   N816    1.450   .     S
C775   H803    1.110   .     S
C775   H801    1.107   .     S
C775   H802    1.111   .     S
C776   O831    1.282   .     A
C776   C778    1.402   .     S
C776   O833    1.287   .     A
C777   O834    1.292   .     A
C777   O832    1.278   .     A
C777   C779    1.408   .     S
C779   C854    1.344   .     S
C779   N897    1.442   .     S
C780   N822    1.428   .     S
C780   C1238   1.386   1_545 S
C781   N823    1.428   .     S
C781   C990    1.392   .     S
C782   N824    1.429   .     S
C782   C1008   1.386   .     S
H783   N820    1.045   .     S
H787   N824    1.028   .     S
H791   N825    1.030   .     S
H796   N826    1.015   .     S
H800   N816    1.021   .     S
H804   N817    1.041   .     S
H805   N821    1.043   .     S
H806   N817    1.045   .     S
H807   N818    1.036   .     S
H808   N818    1.039   .     S
H809   N897    1.046   .     S
H810   N822    1.031   .     S
H814   N823    1.031   .     S
N815   Zn835   2.029   .     S
N819   Zn836   2.029   .     S
N820   H870    1.046   .     S
N820   C854    1.441   .     S
O827   Zn835   2.018   .     S
O828   Zn836   2.018   .     S
O829   Zn836   2.009   .     S
O830   Zn835   2.009   .     S
O831   Zn835   1.982   .     S
O832   Zn836   1.982   .     S
O833   Zn836   1.981   .     S
O834   Zn835   1.981   .     S
C837   C840    1.453   .     S
C837   O903    1.299   .     A
C837   O905    1.297   .     A
C838   C840    1.421   .     A
C838   N901    1.427   .     S
C838   C1313   1.392   1_545 S
C839   C857    1.401   .     A
C839   C858    1.406   .     A
C839   C848    1.444   .     S
C840   C856    1.420   .     A
C841   N895    1.390   .     A
C841   N902    1.435   .     S
C842   N891    1.376   .     A
C842   N892    1.429   .     S
C842   C1528   1.423   .     S
C843   N891    1.363   .     A
C843   N893    1.430   .     S
C843   C1525   1.441   .     S
C844   N894    1.428   .     S
C844   N895    1.375   .     A
C845   H887    1.109   .     S
C845   H888    1.110   .     S
C845   N898    1.446   .     S
C845   H889    1.110   .     S
C846   N899    1.445   .     S
C846   H862    1.109   .     S
C846   H860    1.109   .     S
C846   H861    1.107   .     S
C847   H866    1.110   .     S
C847   H865    1.112   .     S
C847   H864    1.111   .     S
C847   N900    1.447   .     S
C848   O904    1.293   .     A
C848   O906    1.300   .     A
C849   N901    1.451   .     S
C849   H869    1.110   .     S
C849   H871    1.111   .     S
C849   H868    1.108   .     S
C850   H873    1.112   .     S
C850   N902    1.451   .     S
C850   H874    1.107   .     S
C850   H875    1.109   .     S
C851   N892    1.450   .     S
C851   H879    1.110   .     S
C851   H877    1.107   .     S
C851   H878    1.111   .     S
C852   O907    1.282   .     A
C852   C854    1.402   .     S
C852   O909    1.287   .     A
C853   O910    1.292   .     A
C853   O908    1.278   .     A
C853   C855    1.408   .     S
C855   C702    1.344   1_655 S
C855   N745    1.442   1_655 S
C856   N898    1.428   .     S
C856   C1314   1.386   1_545 S
C857   N899    1.428   .     S
C857   C1066   1.392   .     S
C858   N900    1.429   .     S
C858   C1084   1.386   .     S
H859   N896    1.045   .     S
H863   N900    1.028   .     S
H867   N901    1.030   .     S
H872   N902    1.015   .     S
H876   N892    1.021   .     S
H880   N893    1.041   .     S
H881   N897    1.043   .     S
H882   N893    1.045   .     S
H883   N894    1.036   .     S
H884   N894    1.039   .     S
H885   N745    1.046   1_655 S
H886   N898    1.031   .     S
H890   N899    1.031   .     S
N891   Zn911   2.029   .     S
N895   Zn912   2.029   .     S
N896   H718    1.046   1_655 S
N896   C702    1.441   1_655 S
O903   Zn911   2.018   .     S
O904   Zn912   2.018   .     S
O905   Zn912   2.009   .     S
O906   Zn911   2.009   .     S
O907   Zn911   1.982   .     S
O908   Zn912   1.982   .     S
O909   Zn912   1.981   .     S
O910   Zn911   1.981   .     S
C913   C916    1.453   .     S
C913   O979    1.299   .     A
C913   O981    1.297   .     A
C914   C916    1.421   .     A
C914   N977    1.427   .     S
C915   C933    1.401   .     A
C915   C934    1.406   .     A
C915   C924    1.444   .     S
C916   C932    1.420   .     A
C917   N971    1.390   .     A
C917   N978    1.435   .     S
C918   N967    1.376   .     A
C918   N968    1.429   .     S
C918   C1604   1.423   .     S
C919   N967    1.363   .     A
C919   N969    1.430   .     S
C919   C1601   1.441   .     S
C920   N970    1.428   .     S
C920   N971    1.375   .     A
C921   H963    1.109   .     S
C921   H964    1.110   .     S
C921   N974    1.446   .     S
C921   H965    1.110   .     S
C922   N975    1.445   .     S
C922   H938    1.109   .     S
C922   H936    1.109   .     S
C922   H937    1.107   .     S
C923   H942    1.110   .     S
C923   H941    1.112   .     S
C923   H940    1.111   .     S
C923   N976    1.447   .     S
C924   O980    1.293   .     A
C924   O982    1.300   .     A
C925   N977    1.451   .     S
C925   H945    1.110   .     S
C925   H947    1.111   .     S
C925   H944    1.108   .     S
C926   H949    1.112   .     S
C926   N978    1.451   .     S
C926   H950    1.107   .     S
C926   H951    1.109   .     S
C927   N968    1.450   .     S
C927   H955    1.110   .     S
C927   H953    1.107   .     S
C927   H954    1.111   .     S
C928   O983    1.282   .     A
C928   C930    1.402   .     S
C928   O985    1.287   .     A
C929   O986    1.292   .     A
C929   O984    1.278   .     A
C929   C931    1.408   .     S
C930   C1083   1.344   1_455 S
C930   N1124   1.441   1_455 S
C931   C1006   1.344   .     S
C931   N1049   1.442   .     S
C932   N974    1.428   .     S
C933   N975    1.428   .     S
C933   C1142   1.392   .     S
C934   N976    1.429   .     S
C934   C1160   1.386   .     S
H935   N972    1.045   .     S
H939   N976    1.028   .     S
H943   N977    1.030   .     S
H946   N1124   1.046   1_455 S
H948   N978    1.015   .     S
H952   N968    1.021   .     S
H956   N969    1.041   .     S
H957   N973    1.043   .     S
H958   N969    1.045   .     S
H959   N970    1.036   .     S
H960   N970    1.039   .     S
H961   N1049   1.046   .     S
H962   N974    1.031   .     S
H966   N975    1.031   .     S
N967   Zn987   2.029   .     S
N971   Zn988   2.029   .     S
N972   H1022   1.046   .     S
N972   C1006   1.441   .     S
N973   H1113   1.046   1_455 S
N973   C1083   1.442   1_455 S
O979   Zn987   2.018   .     S
O980   Zn988   2.018   .     S
O981   Zn988   2.009   .     S
O982   Zn987   2.009   .     S
O983   Zn987   1.982   .     S
O984   Zn988   1.982   .     S
O985   Zn988   1.981   .     S
O986   Zn987   1.981   .     S
C989   C992    1.453   .     S
C989   O1055   1.299   .     A
C989   O1057   1.297   .     A
C990   C992    1.421   .     A
C990   N1053   1.427   .     S
C991   C1009   1.401   .     A
C991   C1010   1.406   .     A
C991   C1000   1.444   .     S
C992   C1008   1.420   .     A
C993   N1047   1.390   .     A
C993   N1054   1.435   .     S
C994   N1043   1.376   .     A
C994   N1044   1.429   .     S
C994   C1680   1.423   .     S
C995   N1043   1.363   .     A
C995   N1045   1.430   .     S
C995   C1677   1.441   .     S
C996   N1046   1.428   .     S
C996   N1047   1.375   .     A
C997   H1039   1.109   .     S
C997   H1040   1.110   .     S
C997   N1050   1.446   .     S
C997   H1041   1.110   .     S
C998   N1051   1.445   .     S
C998   H1014   1.109   .     S
C998   H1012   1.109   .     S
C998   H1013   1.107   .     S
C999   H1018   1.110   .     S
C999   H1017   1.112   .     S
C999   H1016   1.111   .     S
C999   N1052   1.447   .     S
C1000  O1056   1.293   .     A
C1000  O1058   1.300   .     A
C1001  N1053   1.451   .     S
C1001  H1021   1.110   .     S
C1001  H1023   1.111   .     S
C1001  H1020   1.108   .     S
C1002  H1025   1.112   .     S
C1002  N1054   1.451   .     S
C1002  H1026   1.107   .     S
C1002  H1027   1.109   .     S
C1003  N1044   1.450   .     S
C1003  H1031   1.110   .     S
C1003  H1029   1.107   .     S
C1003  H1030   1.111   .     S
C1004  O1059   1.282   .     A
C1004  C1006   1.402   .     S
C1004  O1061   1.287   .     A
C1005  O1062   1.292   .     A
C1005  O1060   1.278   .     A
C1005  C1007   1.408   .     S
C1007  C1082   1.344   .     S
C1007  N1125   1.442   .     S
C1008  N1050   1.428   .     S
C1009  N1051   1.428   .     S
C1009  C1218   1.392   .     S
C1010  N1052   1.429   .     S
C1010  C1236   1.386   .     S
H1011  N1048   1.045   .     S
H1015  N1052   1.028   .     S
H1019  N1053   1.030   .     S
H1024  N1054   1.015   .     S
H1028  N1044   1.021   .     S
H1032  N1045   1.041   .     S
H1033  N1049   1.043   .     S
H1034  N1045   1.045   .     S
H1035  N1046   1.036   .     S
H1036  N1046   1.039   .     S
H1037  N1125   1.046   .     S
H1038  N1050   1.031   .     S
H1042  N1051   1.031   .     S
N1043  Zn1063  2.029   .     S
N1047  Zn1064  2.029   .     S
N1048  H1098   1.046   .     S
N1048  C1082   1.441   .     S
O1055  Zn1063  2.018   .     S
O1056  Zn1064  2.018   .     S
O1057  Zn1064  2.009   .     S
O1058  Zn1063  2.009   .     S
O1059  Zn1063  1.982   .     S
O1060  Zn1064  1.982   .     S
O1061  Zn1064  1.981   .     S
O1062  Zn1063  1.981   .     S
C1065  C1068   1.453   .     S
C1065  O1131   1.299   .     A
C1065  O1133   1.297   .     A
C1066  C1068   1.421   .     A
C1066  N1129   1.427   .     S
C1067  C1085   1.401   .     A
C1067  C1086   1.406   .     A
C1067  C1076   1.444   .     S
C1068  C1084   1.420   .     A
C1069  N1123   1.390   .     A
C1069  N1130   1.435   .     S
C1070  N1119   1.376   .     A
C1070  N1120   1.429   .     S
C1070  C1756   1.423   .     S
C1071  N1119   1.363   .     A
C1071  N1121   1.430   .     S
C1071  C1753   1.441   .     S
C1072  N1122   1.428   .     S
C1072  N1123   1.375   .     A
C1073  H1115   1.109   .     S
C1073  H1116   1.110   .     S
C1073  N1126   1.446   .     S
C1073  H1117   1.110   .     S
C1074  N1127   1.445   .     S
C1074  H1090   1.109   .     S
C1074  H1088   1.109   .     S
C1074  H1089   1.107   .     S
C1075  H1094   1.110   .     S
C1075  H1093   1.112   .     S
C1075  H1092   1.111   .     S
C1075  N1128   1.447   .     S
C1076  O1132   1.293   .     A
C1076  O1134   1.300   .     A
C1077  N1129   1.451   .     S
C1077  H1097   1.110   .     S
C1077  H1099   1.111   .     S
C1077  H1096   1.108   .     S
C1078  H1101   1.112   .     S
C1078  N1130   1.451   .     S
C1078  H1102   1.107   .     S
C1078  H1103   1.109   .     S
C1079  N1120   1.450   .     S
C1079  H1107   1.110   .     S
C1079  H1105   1.107   .     S
C1079  H1106   1.111   .     S
C1080  O1135   1.282   .     A
C1080  C1082   1.402   .     S
C1080  O1137   1.287   .     A
C1081  O1138   1.292   .     A
C1081  O1136   1.278   .     A
C1081  C1083   1.408   .     S
C1083  C930    1.344   1_655 S
C1083  N973    1.442   1_655 S
C1084  N1126   1.428   .     S
C1085  N1127   1.428   .     S
C1085  C1294   1.392   .     S
C1086  N1128   1.429   .     S
C1086  C1312   1.386   .     S
H1087  N1124   1.045   .     S
H1091  N1128   1.028   .     S
H1095  N1129   1.030   .     S
H1100  N1130   1.015   .     S
H1104  N1120   1.021   .     S
H1108  N1121   1.041   .     S
H1109  N1125   1.043   .     S
H1110  N1121   1.045   .     S
H1111  N1122   1.036   .     S
H1112  N1122   1.039   .     S
H1113  N973    1.046   1_655 S
H1114  N1126   1.031   .     S
H1118  N1127   1.031   .     S
N1119  Zn1139  2.029   .     S
N1123  Zn1140  2.029   .     S
N1124  H946    1.046   1_655 S
N1124  C930    1.441   1_655 S
O1131  Zn1139  2.018   .     S
O1132  Zn1140  2.018   .     S
O1133  Zn1140  2.009   .     S
O1134  Zn1139  2.009   .     S
O1135  Zn1139  1.982   .     S
O1136  Zn1140  1.982   .     S
O1137  Zn1140  1.981   .     S
O1138  Zn1139  1.981   .     S
C1141  C1144   1.453   .     S
C1141  O1207   1.299   .     A
C1141  O1209   1.297   .     A
C1142  C1144   1.421   .     A
C1142  N1205   1.427   .     S
C1143  C1161   1.401   .     A
C1143  C1162   1.406   .     A
C1143  C1152   1.444   .     S
C1144  C1160   1.420   .     A
C1145  N1199   1.390   .     A
C1145  N1206   1.435   .     S
C1146  N1195   1.376   .     A
C1146  N1196   1.429   .     S
C1146  C1832   1.423   .     S
C1147  N1195   1.363   .     A
C1147  N1197   1.430   .     S
C1147  C1829   1.441   .     S
C1148  N1198   1.428   .     S
C1148  N1199   1.375   .     A
C1149  H1191   1.109   .     S
C1149  H1192   1.110   .     S
C1149  N1202   1.446   .     S
C1149  H1193   1.110   .     S
C1150  N1203   1.445   .     S
C1150  H1166   1.109   .     S
C1150  H1164   1.109   .     S
C1150  H1165   1.107   .     S
C1151  H1170   1.110   .     S
C1151  H1169   1.112   .     S
C1151  H1168   1.111   .     S
C1151  N1204   1.447   .     S
C1152  O1208   1.293   .     A
C1152  O1210   1.300   .     A
C1153  N1205   1.451   .     S
C1153  H1173   1.110   .     S
C1153  H1175   1.111   .     S
C1153  H1172   1.108   .     S
C1154  H1177   1.112   .     S
C1154  N1206   1.451   .     S
C1154  H1178   1.107   .     S
C1154  H1179   1.109   .     S
C1155  N1196   1.450   .     S
C1155  H1183   1.110   .     S
C1155  H1181   1.107   .     S
C1155  H1182   1.111   .     S
C1156  O1211   1.282   .     A
C1156  C1158   1.402   .     S
C1156  O1213   1.287   .     A
C1157  O1214   1.292   .     A
C1157  O1212   1.278   .     A
C1157  C1159   1.408   .     S
C1158  C1311   1.344   1_455 S
C1158  N1352   1.441   1_455 S
C1159  C1234   1.344   .     S
C1159  N1277   1.442   .     S
C1160  N1202   1.428   .     S
C1161  N1203   1.428   .     S
C1161  C686    1.392   1_565 S
C1162  N1204   1.429   .     S
C1162  C704    1.386   1_565 S
H1163  N1200   1.045   .     S
H1167  N1204   1.028   .     S
H1171  N1205   1.030   .     S
H1174  N1352   1.046   1_455 S
H1176  N1206   1.015   .     S
H1180  N1196   1.021   .     S
H1184  N1197   1.041   .     S
H1185  N1201   1.043   .     S
H1186  N1197   1.045   .     S
H1187  N1198   1.036   .     S
H1188  N1198   1.039   .     S
H1189  N1277   1.046   .     S
H1190  N1202   1.031   .     S
H1194  N1203   1.031   .     S
N1195  Zn1215  2.029   .     S
N1199  Zn1216  2.029   .     S
N1200  H1250   1.046   .     S
N1200  C1234   1.441   .     S
N1201  H1341   1.046   1_455 S
N1201  C1311   1.442   1_455 S
O1207  Zn1215  2.018   .     S
O1208  Zn1216  2.018   .     S
O1209  Zn1216  2.009   .     S
O1210  Zn1215  2.009   .     S
O1211  Zn1215  1.982   .     S
O1212  Zn1216  1.982   .     S
O1213  Zn1216  1.981   .     S
O1214  Zn1215  1.981   .     S
C1217  C1220   1.453   .     S
C1217  O1283   1.299   .     A
C1217  O1285   1.297   .     A
C1218  C1220   1.421   .     A
C1218  N1281   1.427   .     S
C1219  C1237   1.401   .     A
C1219  C1238   1.406   .     A
C1219  C1228   1.444   .     S
C1220  C1236   1.420   .     A
C1221  N1275   1.390   .     A
C1221  N1282   1.435   .     S
C1222  N1271   1.376   .     A
C1222  N1272   1.429   .     S
C1222  C1908   1.423   .     S
C1223  N1271   1.363   .     A
C1223  N1273   1.430   .     S
C1223  C1905   1.441   .     S
C1224  N1274   1.428   .     S
C1224  N1275   1.375   .     A
C1225  H1267   1.109   .     S
C1225  H1268   1.110   .     S
C1225  N1278   1.446   .     S
C1225  H1269   1.110   .     S
C1226  N1279   1.445   .     S
C1226  H1242   1.109   .     S
C1226  H1240   1.109   .     S
C1226  H1241   1.107   .     S
C1227  H1246   1.110   .     S
C1227  H1245   1.112   .     S
C1227  H1244   1.111   .     S
C1227  N1280   1.447   .     S
C1228  O1284   1.293   .     A
C1228  O1286   1.300   .     A
C1229  N1281   1.451   .     S
C1229  H1249   1.110   .     S
C1229  H1251   1.111   .     S
C1229  H1248   1.108   .     S
C1230  H1253   1.112   .     S
C1230  N1282   1.451   .     S
C1230  H1254   1.107   .     S
C1230  H1255   1.109   .     S
C1231  N1272   1.450   .     S
C1231  H1259   1.110   .     S
C1231  H1257   1.107   .     S
C1231  H1258   1.111   .     S
C1232  O1287   1.282   .     A
C1232  C1234   1.402   .     S
C1232  O1289   1.287   .     A
C1233  O1290   1.292   .     A
C1233  O1288   1.278   .     A
C1233  C1235   1.408   .     S
C1235  C1310   1.344   .     S
C1235  N1353   1.442   .     S
C1236  N1278   1.428   .     S
C1237  N1279   1.428   .     S
C1237  C762    1.392   1_565 S
C1238  N1280   1.429   .     S
C1238  C780    1.386   1_565 S
H1239  N1276   1.045   .     S
H1243  N1280   1.028   .     S
H1247  N1281   1.030   .     S
H1252  N1282   1.015   .     S
H1256  N1272   1.021   .     S
H1260  N1273   1.041   .     S
H1261  N1277   1.043   .     S
H1262  N1273   1.045   .     S
H1263  N1274   1.036   .     S
H1264  N1274   1.039   .     S
H1265  N1353   1.046   .     S
H1266  N1278   1.031   .     S
H1270  N1279   1.031   .     S
N1271  Zn1291  2.029   .     S
N1275  Zn1292  2.029   .     S
N1276  H1326   1.046   .     S
N1276  C1310   1.441   .     S
O1283  Zn1291  2.018   .     S
O1284  Zn1292  2.018   .     S
O1285  Zn1292  2.009   .     S
O1286  Zn1291  2.009   .     S
O1287  Zn1291  1.982   .     S
O1288  Zn1292  1.982   .     S
O1289  Zn1292  1.981   .     S
O1290  Zn1291  1.981   .     S
C1293  C1296   1.453   .     S
C1293  O1359   1.299   .     A
C1293  O1361   1.297   .     A
C1294  C1296   1.421   .     A
C1294  N1357   1.427   .     S
C1295  C1313   1.401   .     A
C1295  C1314   1.406   .     A
C1295  C1304   1.444   .     S
C1296  C1312   1.420   .     A
C1297  N1351   1.390   .     A
C1297  N1358   1.435   .     S
C1298  N1347   1.376   .     A
C1298  N1348   1.429   .     S
C1298  C1984   1.423   .     S
C1299  N1347   1.363   .     A
C1299  N1349   1.430   .     S
C1299  C1981   1.441   .     S
C1300  N1350   1.428   .     S
C1300  N1351   1.375   .     A
C1301  H1343   1.109   .     S
C1301  H1344   1.110   .     S
C1301  N1354   1.446   .     S
C1301  H1345   1.110   .     S
C1302  N1355   1.445   .     S
C1302  H1318   1.109   .     S
C1302  H1316   1.109   .     S
C1302  H1317   1.107   .     S
C1303  H1322   1.110   .     S
C1303  H1321   1.112   .     S
C1303  H1320   1.111   .     S
C1303  N1356   1.447   .     S
C1304  O1360   1.293   .     A
C1304  O1362   1.300   .     A
C1305  N1357   1.451   .     S
C1305  H1325   1.110   .     S
C1305  H1327   1.111   .     S
C1305  H1324   1.108   .     S
C1306  H1329   1.112   .     S
C1306  N1358   1.451   .     S
C1306  H1330   1.107   .     S
C1306  H1331   1.109   .     S
C1307  N1348   1.450   .     S
C1307  H1335   1.110   .     S
C1307  H1333   1.107   .     S
C1307  H1334   1.111   .     S
C1308  O1363   1.282   .     A
C1308  C1310   1.402   .     S
C1308  O1365   1.287   .     A
C1309  O1366   1.292   .     A
C1309  O1364   1.278   .     A
C1309  C1311   1.408   .     S
C1311  C1158   1.344   1_655 S
C1311  N1201   1.442   1_655 S
C1312  N1354   1.428   .     S
C1313  N1355   1.428   .     S
C1313  C838    1.392   1_565 S
C1314  N1356   1.429   .     S
C1314  C856    1.386   1_565 S
H1315  N1352   1.045   .     S
H1319  N1356   1.028   .     S
H1323  N1357   1.030   .     S
H1328  N1358   1.015   .     S
H1332  N1348   1.021   .     S
H1336  N1349   1.041   .     S
H1337  N1353   1.043   .     S
H1338  N1349   1.045   .     S
H1339  N1350   1.036   .     S
H1340  N1350   1.039   .     S
H1341  N1201   1.046   1_655 S
H1342  N1354   1.031   .     S
H1346  N1355   1.031   .     S
N1347  Zn1367  2.029   .     S
N1351  Zn1368  2.029   .     S
N1352  H1174   1.046   1_655 S
N1352  C1158   1.441   1_655 S
O1359  Zn1367  2.018   .     S
O1360  Zn1368  2.018   .     S
O1361  Zn1368  2.009   .     S
O1362  Zn1367  2.009   .     S
O1363  Zn1367  1.982   .     S
O1364  Zn1368  1.982   .     S
O1365  Zn1368  1.981   .     S
O1366  Zn1367  1.981   .     S
C1369  C1372   1.453   .     S
C1369  O1435   1.299   .     A
C1369  O1437   1.297   .     A
C1370  C1372   1.421   .     A
C1370  N1433   1.427   .     S
C1370  C1845   1.392   1_545 S
C1371  C1389   1.401   .     A
C1371  C1390   1.406   .     A
C1371  C1380   1.444   .     S
C1372  C1388   1.420   .     A
C1373  N1427   1.390   .     A
C1373  N1434   1.435   .     S
C1374  N1423   1.376   .     A
C1374  N1424   1.429   .     S
C1374  C8      1.423   1_556 S
C1375  N1423   1.363   .     A
C1375  N1425   1.430   .     S
C1375  C5      1.441   1_556 S
C1376  N1426   1.428   .     S
C1376  N1427   1.375   .     A
C1377  H1419   1.109   .     S
C1377  H1420   1.110   .     S
C1377  N1430   1.446   .     S
C1377  H1421   1.110   .     S
C1378  N1431   1.445   .     S
C1378  H1394   1.109   .     S
C1378  H1392   1.109   .     S
C1378  H1393   1.107   .     S
C1379  H1398   1.110   .     S
C1379  H1397   1.112   .     S
C1379  H1396   1.111   .     S
C1379  N1432   1.447   .     S
C1380  O1436   1.293   .     A
C1380  O1438   1.300   .     A
C1381  N1433   1.451   .     S
C1381  H1401   1.110   .     S
C1381  H1403   1.111   .     S
C1381  H1400   1.108   .     S
C1382  H1405   1.112   .     S
C1382  N1434   1.451   .     S
C1382  H1406   1.107   .     S
C1382  H1407   1.109   .     S
C1383  N1424   1.450   .     S
C1383  H1411   1.110   .     S
C1383  H1409   1.107   .     S
C1383  H1410   1.111   .     S
C1384  O1439   1.282   .     A
C1384  C1386   1.402   .     S
C1384  O1441   1.287   .     A
C1385  O1442   1.292   .     A
C1385  O1440   1.278   .     A
C1385  C1387   1.408   .     S
C1386  C1539   1.344   1_455 S
C1386  N1580   1.441   1_455 S
C1387  C1462   1.344   .     S
C1387  N1505   1.442   .     S
C1388  N1430   1.428   .     S
C1388  C1846   1.386   1_545 S
C1389  N1431   1.428   .     S
C1389  C1598   1.392   .     S
C1390  N1432   1.429   .     S
C1390  C1616   1.386   .     S
H1391  N1428   1.045   .     S
H1395  N1432   1.028   .     S
H1399  N1433   1.030   .     S
H1402  N1580   1.046   1_455 S
H1404  N1434   1.015   .     S
H1408  N1424   1.021   .     S
H1412  N1425   1.041   .     S
H1413  N1429   1.043   .     S
H1414  N1425   1.045   .     S
H1415  N1426   1.036   .     S
H1416  N1426   1.039   .     S
H1417  N1505   1.046   .     S
H1418  N1430   1.031   .     S
H1422  N1431   1.031   .     S
N1423  Zn1443  2.029   .     S
N1427  Zn1444  2.029   .     S
N1428  H1478   1.046   .     S
N1428  C1462   1.441   .     S
N1429  H1569   1.046   1_455 S
N1429  C1539   1.442   1_455 S
O1435  Zn1443  2.018   .     S
O1436  Zn1444  2.018   .     S
O1437  Zn1444  2.009   .     S
O1438  Zn1443  2.009   .     S
O1439  Zn1443  1.982   .     S
O1440  Zn1444  1.982   .     S
O1441  Zn1444  1.981   .     S
O1442  Zn1443  1.981   .     S
C1445  C1448   1.453   .     S
C1445  O1511   1.299   .     A
C1445  O1513   1.297   .     A
C1446  C1448   1.421   .     A
C1446  N1509   1.427   .     S
C1446  C1921   1.392   1_545 S
C1447  C1465   1.401   .     A
C1447  C1466   1.406   .     A
C1447  C1456   1.444   .     S
C1448  C1464   1.420   .     A
C1449  N1503   1.390   .     A
C1449  N1510   1.435   .     S
C1450  N1499   1.376   .     A
C1450  N1500   1.429   .     S
C1450  C84     1.423   1_556 S
C1451  N1499   1.363   .     A
C1451  N1501   1.430   .     S
C1451  C81     1.441   1_556 S
C1452  N1502   1.428   .     S
C1452  N1503   1.375   .     A
C1453  H1495   1.109   .     S
C1453  H1496   1.110   .     S
C1453  N1506   1.446   .     S
C1453  H1497   1.110   .     S
C1454  N1507   1.445   .     S
C1454  H1470   1.109   .     S
C1454  H1468   1.109   .     S
C1454  H1469   1.107   .     S
C1455  H1474   1.110   .     S
C1455  H1473   1.112   .     S
C1455  H1472   1.111   .     S
C1455  N1508   1.447   .     S
C1456  O1512   1.293   .     A
C1456  O1514   1.300   .     A
C1457  N1509   1.451   .     S
C1457  H1477   1.110   .     S
C1457  H1479   1.111   .     S
C1457  H1476   1.108   .     S
C1458  H1481   1.112   .     S
C1458  N1510   1.451   .     S
C1458  H1482   1.107   .     S
C1458  H1483   1.109   .     S
C1459  N1500   1.450   .     S
C1459  H1487   1.110   .     S
C1459  H1485   1.107   .     S
C1459  H1486   1.111   .     S
C1460  O1515   1.282   .     A
C1460  C1462   1.402   .     S
C1460  O1517   1.287   .     A
C1461  O1518   1.292   .     A
C1461  O1516   1.278   .     A
C1461  C1463   1.408   .     S
C1463  C1538   1.344   .     S
C1463  N1581   1.442   .     S
C1464  N1506   1.428   .     S
C1464  C1922   1.386   1_545 S
C1465  N1507   1.428   .     S
C1465  C1674   1.392   .     S
C1466  N1508   1.429   .     S
C1466  C1692   1.386   .     S
H1467  N1504   1.045   .     S
H1471  N1508   1.028   .     S
H1475  N1509   1.030   .     S
H1480  N1510   1.015   .     S
H1484  N1500   1.021   .     S
H1488  N1501   1.041   .     S
H1489  N1505   1.043   .     S
H1490  N1501   1.045   .     S
H1491  N1502   1.036   .     S
H1492  N1502   1.039   .     S
H1493  N1581   1.046   .     S
H1494  N1506   1.031   .     S
H1498  N1507   1.031   .     S
N1499  Zn1519  2.029   .     S
N1503  Zn1520  2.029   .     S
N1504  H1554   1.046   .     S
N1504  C1538   1.441   .     S
O1511  Zn1519  2.018   .     S
O1512  Zn1520  2.018   .     S
O1513  Zn1520  2.009   .     S
O1514  Zn1519  2.009   .     S
O1515  Zn1519  1.982   .     S
O1516  Zn1520  1.982   .     S
O1517  Zn1520  1.981   .     S
O1518  Zn1519  1.981   .     S
C1521  C1524   1.453   .     S
C1521  O1587   1.299   .     A
C1521  O1589   1.297   .     A
C1522  C1524   1.421   .     A
C1522  N1585   1.427   .     S
C1522  C1997   1.392   1_545 S
C1523  C1541   1.401   .     A
C1523  C1542   1.406   .     A
C1523  C1532   1.444   .     S
C1524  C1540   1.420   .     A
C1525  N1579   1.390   .     A
C1525  N1586   1.435   .     S
C1526  N1575   1.376   .     A
C1526  N1576   1.429   .     S
C1526  C160    1.423   1_556 S
C1527  N1575   1.363   .     A
C1527  N1577   1.430   .     S
C1527  C157    1.441   1_556 S
C1528  N1578   1.428   .     S
C1528  N1579   1.375   .     A
C1529  H1571   1.109   .     S
C1529  H1572   1.110   .     S
C1529  N1582   1.446   .     S
C1529  H1573   1.110   .     S
C1530  N1583   1.445   .     S
C1530  H1546   1.109   .     S
C1530  H1544   1.109   .     S
C1530  H1545   1.107   .     S
C1531  H1550   1.110   .     S
C1531  H1549   1.112   .     S
C1531  H1548   1.111   .     S
C1531  N1584   1.447   .     S
C1532  O1588   1.293   .     A
C1532  O1590   1.300   .     A
C1533  N1585   1.451   .     S
C1533  H1553   1.110   .     S
C1533  H1555   1.111   .     S
C1533  H1552   1.108   .     S
C1534  H1557   1.112   .     S
C1534  N1586   1.451   .     S
C1534  H1558   1.107   .     S
C1534  H1559   1.109   .     S
C1535  N1576   1.450   .     S
C1535  H1563   1.110   .     S
C1535  H1561   1.107   .     S
C1535  H1562   1.111   .     S
C1536  O1591   1.282   .     A
C1536  C1538   1.402   .     S
C1536  O1593   1.287   .     A
C1537  O1594   1.292   .     A
C1537  O1592   1.278   .     A
C1537  C1539   1.408   .     S
C1539  C1386   1.344   1_655 S
C1539  N1429   1.442   1_655 S
C1540  N1582   1.428   .     S
C1540  C1998   1.386   1_545 S
C1541  N1583   1.428   .     S
C1541  C1750   1.392   .     S
C1542  N1584   1.429   .     S
C1542  C1768   1.386   .     S
H1543  N1580   1.045   .     S
H1547  N1584   1.028   .     S
H1551  N1585   1.030   .     S
H1556  N1586   1.015   .     S
H1560  N1576   1.021   .     S
H1564  N1577   1.041   .     S
H1565  N1581   1.043   .     S
H1566  N1577   1.045   .     S
H1567  N1578   1.036   .     S
H1568  N1578   1.039   .     S
H1569  N1429   1.046   1_655 S
H1570  N1582   1.031   .     S
H1574  N1583   1.031   .     S
N1575  Zn1595  2.029   .     S
N1579  Zn1596  2.029   .     S
N1580  H1402   1.046   1_655 S
N1580  C1386   1.441   1_655 S
O1587  Zn1595  2.018   .     S
O1588  Zn1596  2.018   .     S
O1589  Zn1596  2.009   .     S
O1590  Zn1595  2.009   .     S
O1591  Zn1595  1.982   .     S
O1592  Zn1596  1.982   .     S
O1593  Zn1596  1.981   .     S
O1594  Zn1595  1.981   .     S
C1597  C1600   1.453   .     S
C1597  O1663   1.299   .     A
C1597  O1665   1.297   .     A
C1598  C1600   1.421   .     A
C1598  N1661   1.427   .     S
C1599  C1617   1.401   .     A
C1599  C1618   1.406   .     A
C1599  C1608   1.444   .     S
C1600  C1616   1.420   .     A
C1601  N1655   1.390   .     A
C1601  N1662   1.435   .     S
C1602  N1651   1.376   .     A
C1602  N1652   1.429   .     S
C1602  C236    1.423   1_556 S
C1603  N1651   1.363   .     A
C1603  N1653   1.430   .     S
C1603  C233    1.441   1_556 S
C1604  N1654   1.428   .     S
C1604  N1655   1.375   .     A
C1605  H1647   1.109   .     S
C1605  H1648   1.110   .     S
C1605  N1658   1.446   .     S
C1605  H1649   1.110   .     S
C1606  N1659   1.445   .     S
C1606  H1622   1.109   .     S
C1606  H1620   1.109   .     S
C1606  H1621   1.107   .     S
C1607  H1626   1.110   .     S
C1607  H1625   1.112   .     S
C1607  H1624   1.111   .     S
C1607  N1660   1.447   .     S
C1608  O1664   1.293   .     A
C1608  O1666   1.300   .     A
C1609  N1661   1.451   .     S
C1609  H1629   1.110   .     S
C1609  H1631   1.111   .     S
C1609  H1628   1.108   .     S
C1610  H1633   1.112   .     S
C1610  N1662   1.451   .     S
C1610  H1634   1.107   .     S
C1610  H1635   1.109   .     S
C1611  N1652   1.450   .     S
C1611  H1639   1.110   .     S
C1611  H1637   1.107   .     S
C1611  H1638   1.111   .     S
C1612  O1667   1.282   .     A
C1612  C1614   1.402   .     S
C1612  O1669   1.287   .     A
C1613  O1670   1.292   .     A
C1613  O1668   1.278   .     A
C1613  C1615   1.408   .     S
C1614  C1767   1.344   1_455 S
C1614  N1808   1.441   1_455 S
C1615  C1690   1.344   .     S
C1615  N1733   1.442   .     S
C1616  N1658   1.428   .     S
C1617  N1659   1.428   .     S
C1617  C1826   1.392   .     S
C1618  N1660   1.429   .     S
C1618  C1844   1.386   .     S
H1619  N1656   1.045   .     S
H1623  N1660   1.028   .     S
H1627  N1661   1.030   .     S
H1630  N1808   1.046   1_455 S
H1632  N1662   1.015   .     S
H1636  N1652   1.021   .     S
H1640  N1653   1.041   .     S
H1641  N1657   1.043   .     S
H1642  N1653   1.045   .     S
H1643  N1654   1.036   .     S
H1644  N1654   1.039   .     S
H1645  N1733   1.046   .     S
H1646  N1658   1.031   .     S
H1650  N1659   1.031   .     S
N1651  Zn1671  2.029   .     S
N1655  Zn1672  2.029   .     S
N1656  H1706   1.046   .     S
N1656  C1690   1.441   .     S
N1657  H1797   1.046   1_455 S
N1657  C1767   1.442   1_455 S
O1663  Zn1671  2.018   .     S
O1664  Zn1672  2.018   .     S
O1665  Zn1672  2.009   .     S
O1666  Zn1671  2.009   .     S
O1667  Zn1671  1.982   .     S
O1668  Zn1672  1.982   .     S
O1669  Zn1672  1.981   .     S
O1670  Zn1671  1.981   .     S
C1673  C1676   1.453   .     S
C1673  O1739   1.299   .     A
C1673  O1741   1.297   .     A
C1674  C1676   1.421   .     A
C1674  N1737   1.427   .     S
C1675  C1693   1.401   .     A
C1675  C1694   1.406   .     A
C1675  C1684   1.444   .     S
C1676  C1692   1.420   .     A
C1677  N1731   1.390   .     A
C1677  N1738   1.435   .     S
C1678  N1727   1.376   .     A
C1678  N1728   1.429   .     S
C1678  C312    1.423   1_556 S
C1679  N1727   1.363   .     A
C1679  N1729   1.430   .     S
C1679  C309    1.441   1_556 S
C1680  N1730   1.428   .     S
C1680  N1731   1.375   .     A
C1681  H1723   1.109   .     S
C1681  H1724   1.110   .     S
C1681  N1734   1.446   .     S
C1681  H1725   1.110   .     S
C1682  N1735   1.445   .     S
C1682  H1698   1.109   .     S
C1682  H1696   1.109   .     S
C1682  H1697   1.107   .     S
C1683  H1702   1.110   .     S
C1683  H1701   1.112   .     S
C1683  H1700   1.111   .     S
C1683  N1736   1.447   .     S
C1684  O1740   1.293   .     A
C1684  O1742   1.300   .     A
C1685  N1737   1.451   .     S
C1685  H1705   1.110   .     S
C1685  H1707   1.111   .     S
C1685  H1704   1.108   .     S
C1686  H1709   1.112   .     S
C1686  N1738   1.451   .     S
C1686  H1710   1.107   .     S
C1686  H1711   1.109   .     S
C1687  N1728   1.450   .     S
C1687  H1715   1.110   .     S
C1687  H1713   1.107   .     S
C1687  H1714   1.111   .     S
C1688  O1743   1.282   .     A
C1688  C1690   1.402   .     S
C1688  O1745   1.287   .     A
C1689  O1746   1.292   .     A
C1689  O1744   1.278   .     A
C1689  C1691   1.408   .     S
C1691  C1766   1.344   .     S
C1691  N1809   1.442   .     S
C1692  N1734   1.428   .     S
C1693  N1735   1.428   .     S
C1693  C1902   1.392   .     S
C1694  N1736   1.429   .     S
C1694  C1920   1.386   .     S
H1695  N1732   1.045   .     S
H1699  N1736   1.028   .     S
H1703  N1737   1.030   .     S
H1708  N1738   1.015   .     S
H1712  N1728   1.021   .     S
H1716  N1729   1.041   .     S
H1717  N1733   1.043   .     S
H1718  N1729   1.045   .     S
H1719  N1730   1.036   .     S
H1720  N1730   1.039   .     S
H1721  N1809   1.046   .     S
H1722  N1734   1.031   .     S
H1726  N1735   1.031   .     S
N1727  Zn1747  2.029   .     S
N1731  Zn1748  2.029   .     S
N1732  H1782   1.046   .     S
N1732  C1766   1.441   .     S
O1739  Zn1747  2.018   .     S
O1740  Zn1748  2.018   .     S
O1741  Zn1748  2.009   .     S
O1742  Zn1747  2.009   .     S
O1743  Zn1747  1.982   .     S
O1744  Zn1748  1.982   .     S
O1745  Zn1748  1.981   .     S
O1746  Zn1747  1.981   .     S
C1749  C1752   1.453   .     S
C1749  O1815   1.299   .     A
C1749  O1817   1.297   .     A
C1750  C1752   1.421   .     A
C1750  N1813   1.427   .     S
C1751  C1769   1.401   .     A
C1751  C1770   1.406   .     A
C1751  C1760   1.444   .     S
C1752  C1768   1.420   .     A
C1753  N1807   1.390   .     A
C1753  N1814   1.435   .     S
C1754  N1803   1.376   .     A
C1754  N1804   1.429   .     S
C1754  C388    1.423   1_556 S
C1755  N1803   1.363   .     A
C1755  N1805   1.430   .     S
C1755  C385    1.441   1_556 S
C1756  N1806   1.428   .     S
C1756  N1807   1.375   .     A
C1757  H1799   1.109   .     S
C1757  H1800   1.110   .     S
C1757  N1810   1.446   .     S
C1757  H1801   1.110   .     S
C1758  N1811   1.445   .     S
C1758  H1774   1.109   .     S
C1758  H1772   1.109   .     S
C1758  H1773   1.107   .     S
C1759  H1778   1.110   .     S
C1759  H1777   1.112   .     S
C1759  H1776   1.111   .     S
C1759  N1812   1.447   .     S
C1760  O1816   1.293   .     A
C1760  O1818   1.300   .     A
C1761  N1813   1.451   .     S
C1761  H1781   1.110   .     S
C1761  H1783   1.111   .     S
C1761  H1780   1.108   .     S
C1762  H1785   1.112   .     S
C1762  N1814   1.451   .     S
C1762  H1786   1.107   .     S
C1762  H1787   1.109   .     S
C1763  N1804   1.450   .     S
C1763  H1791   1.110   .     S
C1763  H1789   1.107   .     S
C1763  H1790   1.111   .     S
C1764  O1819   1.282   .     A
C1764  C1766   1.402   .     S
C1764  O1821   1.287   .     A
C1765  O1822   1.292   .     A
C1765  O1820   1.278   .     A
C1765  C1767   1.408   .     S
C1767  C1614   1.344   1_655 S
C1767  N1657   1.442   1_655 S
C1768  N1810   1.428   .     S
C1769  N1811   1.428   .     S
C1769  C1978   1.392   .     S
C1770  N1812   1.429   .     S
C1770  C1996   1.386   .     S
H1771  N1808   1.045   .     S
H1775  N1812   1.028   .     S
H1779  N1813   1.030   .     S
H1784  N1814   1.015   .     S
H1788  N1804   1.021   .     S
H1792  N1805   1.041   .     S
H1793  N1809   1.043   .     S
H1794  N1805   1.045   .     S
H1795  N1806   1.036   .     S
H1796  N1806   1.039   .     S
H1797  N1657   1.046   1_655 S
H1798  N1810   1.031   .     S
H1802  N1811   1.031   .     S
N1803  Zn1823  2.029   .     S
N1807  Zn1824  2.029   .     S
N1808  H1630   1.046   1_655 S
N1808  C1614   1.441   1_655 S
O1815  Zn1823  2.018   .     S
O1816  Zn1824  2.018   .     S
O1817  Zn1824  2.009   .     S
O1818  Zn1823  2.009   .     S
O1819  Zn1823  1.982   .     S
O1820  Zn1824  1.982   .     S
O1821  Zn1824  1.981   .     S
O1822  Zn1823  1.981   .     S
C1825  C1828   1.453   .     S
C1825  O1891   1.299   .     A
C1825  O1893   1.297   .     A
C1826  C1828   1.421   .     A
C1826  N1889   1.427   .     S
C1827  C1845   1.401   .     A
C1827  C1846   1.406   .     A
C1827  C1836   1.444   .     S
C1828  C1844   1.420   .     A
C1829  N1883   1.390   .     A
C1829  N1890   1.435   .     S
C1830  N1879   1.376   .     A
C1830  N1880   1.429   .     S
C1830  C464    1.423   1_556 S
C1831  N1879   1.363   .     A
C1831  N1881   1.430   .     S
C1831  C461    1.441   1_556 S
C1832  N1882   1.428   .     S
C1832  N1883   1.375   .     A
C1833  H1875   1.109   .     S
C1833  H1876   1.110   .     S
C1833  N1886   1.446   .     S
C1833  H1877   1.110   .     S
C1834  N1887   1.445   .     S
C1834  H1850   1.109   .     S
C1834  H1848   1.109   .     S
C1834  H1849   1.107   .     S
C1835  H1854   1.110   .     S
C1835  H1853   1.112   .     S
C1835  H1852   1.111   .     S
C1835  N1888   1.447   .     S
C1836  O1892   1.293   .     A
C1836  O1894   1.300   .     A
C1837  N1889   1.451   .     S
C1837  H1857   1.110   .     S
C1837  H1859   1.111   .     S
C1837  H1856   1.108   .     S
C1838  H1861   1.112   .     S
C1838  N1890   1.451   .     S
C1838  H1862   1.107   .     S
C1838  H1863   1.109   .     S
C1839  N1880   1.450   .     S
C1839  H1867   1.110   .     S
C1839  H1865   1.107   .     S
C1839  H1866   1.111   .     S
C1840  O1895   1.282   .     A
C1840  C1842   1.402   .     S
C1840  O1897   1.287   .     A
C1841  O1898   1.292   .     A
C1841  O1896   1.278   .     A
C1841  C1843   1.408   .     S
C1842  C1995   1.344   1_455 S
C1842  N2036   1.441   1_455 S
C1843  C1918   1.344   .     S
C1843  N1961   1.442   .     S
C1844  N1886   1.428   .     S
C1845  N1887   1.428   .     S
C1845  C1370   1.392   1_565 S
C1846  N1888   1.429   .     S
C1846  C1388   1.386   1_565 S
H1847  N1884   1.045   .     S
H1851  N1888   1.028   .     S
H1855  N1889   1.030   .     S
H1858  N2036   1.046   1_455 S
H1860  N1890   1.015   .     S
H1864  N1880   1.021   .     S
H1868  N1881   1.041   .     S
H1869  N1885   1.043   .     S
H1870  N1881   1.045   .     S
H1871  N1882   1.036   .     S
H1872  N1882   1.039   .     S
H1873  N1961   1.046   .     S
H1874  N1886   1.031   .     S
H1878  N1887   1.031   .     S
N1879  Zn1899  2.029   .     S
N1883  Zn1900  2.029   .     S
N1884  H1934   1.046   .     S
N1884  C1918   1.441   .     S
N1885  H2025   1.046   1_455 S
N1885  C1995   1.442   1_455 S
O1891  Zn1899  2.018   .     S
O1892  Zn1900  2.018   .     S
O1893  Zn1900  2.009   .     S
O1894  Zn1899  2.009   .     S
O1895  Zn1899  1.982   .     S
O1896  Zn1900  1.982   .     S
O1897  Zn1900  1.981   .     S
O1898  Zn1899  1.981   .     S
C1901  C1904   1.453   .     S
C1901  O1967   1.299   .     A
C1901  O1969   1.297   .     A
C1902  C1904   1.421   .     A
C1902  N1965   1.427   .     S
C1903  C1921   1.401   .     A
C1903  C1922   1.406   .     A
C1903  C1912   1.444   .     S
C1904  C1920   1.420   .     A
C1905  N1959   1.390   .     A
C1905  N1966   1.435   .     S
C1906  N1955   1.376   .     A
C1906  N1956   1.429   .     S
C1906  C540    1.423   1_556 S
C1907  N1955   1.363   .     A
C1907  N1957   1.430   .     S
C1907  C537    1.441   1_556 S
C1908  N1958   1.428   .     S
C1908  N1959   1.375   .     A
C1909  H1951   1.109   .     S
C1909  H1952   1.110   .     S
C1909  N1962   1.446   .     S
C1909  H1953   1.110   .     S
C1910  N1963   1.445   .     S
C1910  H1926   1.109   .     S
C1910  H1924   1.109   .     S
C1910  H1925   1.107   .     S
C1911  H1930   1.110   .     S
C1911  H1929   1.112   .     S
C1911  H1928   1.111   .     S
C1911  N1964   1.447   .     S
C1912  O1968   1.293   .     A
C1912  O1970   1.300   .     A
C1913  N1965   1.451   .     S
C1913  H1933   1.110   .     S
C1913  H1935   1.111   .     S
C1913  H1932   1.108   .     S
C1914  H1937   1.112   .     S
C1914  N1966   1.451   .     S
C1914  H1938   1.107   .     S
C1914  H1939   1.109   .     S
C1915  N1956   1.450   .     S
C1915  H1943   1.110   .     S
C1915  H1941   1.107   .     S
C1915  H1942   1.111   .     S
C1916  O1971   1.282   .     A
C1916  C1918   1.402   .     S
C1916  O1973   1.287   .     A
C1917  O1974   1.292   .     A
C1917  O1972   1.278   .     A
C1917  C1919   1.408   .     S
C1919  C1994   1.344   .     S
C1919  N2037   1.442   .     S
C1920  N1962   1.428   .     S
C1921  N1963   1.428   .     S
C1921  C1446   1.392   1_565 S
C1922  N1964   1.429   .     S
C1922  C1464   1.386   1_565 S
H1923  N1960   1.045   .     S
H1927  N1964   1.028   .     S
H1931  N1965   1.030   .     S
H1936  N1966   1.015   .     S
H1940  N1956   1.021   .     S
H1944  N1957   1.041   .     S
H1945  N1961   1.043   .     S
H1946  N1957   1.045   .     S
H1947  N1958   1.036   .     S
H1948  N1958   1.039   .     S
H1949  N2037   1.046   .     S
H1950  N1962   1.031   .     S
H1954  N1963   1.031   .     S
N1955  Zn1975  2.029   .     S
N1959  Zn1976  2.029   .     S
N1960  H2010   1.046   .     S
N1960  C1994   1.441   .     S
O1967  Zn1975  2.018   .     S
O1968  Zn1976  2.018   .     S
O1969  Zn1976  2.009   .     S
O1970  Zn1975  2.009   .     S
O1971  Zn1975  1.982   .     S
O1972  Zn1976  1.982   .     S
O1973  Zn1976  1.981   .     S
O1974  Zn1975  1.981   .     S
C1977  C1980   1.453   .     S
C1977  O2043   1.299   .     A
C1977  O2045   1.297   .     A
C1978  C1980   1.421   .     A
C1978  N2041   1.427   .     S
C1979  C1997   1.401   .     A
C1979  C1998   1.406   .     A
C1979  C1988   1.444   .     S
C1980  C1996   1.420   .     A
C1981  N2035   1.390   .     A
C1981  N2042   1.435   .     S
C1982  N2031   1.376   .     A
C1982  N2032   1.429   .     S
C1982  C616    1.423   1_556 S
C1983  N2031   1.363   .     A
C1983  N2033   1.430   .     S
C1983  C613    1.441   1_556 S
C1984  N2034   1.428   .     S
C1984  N2035   1.375   .     A
C1985  H2027   1.109   .     S
C1985  H2028   1.110   .     S
C1985  N2038   1.446   .     S
C1985  H2029   1.110   .     S
C1986  N2039   1.445   .     S
C1986  H2002   1.109   .     S
C1986  H2000   1.109   .     S
C1986  H2001   1.107   .     S
C1987  H2006   1.110   .     S
C1987  H2005   1.112   .     S
C1987  H2004   1.111   .     S
C1987  N2040   1.447   .     S
C1988  O2044   1.293   .     A
C1988  O2046   1.300   .     A
C1989  N2041   1.451   .     S
C1989  H2009   1.110   .     S
C1989  H2011   1.111   .     S
C1989  H2008   1.108   .     S
C1990  H2013   1.112   .     S
C1990  N2042   1.451   .     S
C1990  H2014   1.107   .     S
C1990  H2015   1.109   .     S
C1991  N2032   1.450   .     S
C1991  H2019   1.110   .     S
C1991  H2017   1.107   .     S
C1991  H2018   1.111   .     S
C1992  O2047   1.282   .     A
C1992  C1994   1.402   .     S
C1992  O2049   1.287   .     A
C1993  O2050   1.292   .     A
C1993  O2048   1.278   .     A
C1993  C1995   1.408   .     S
C1995  C1842   1.344   1_655 S
C1995  N1885   1.442   1_655 S
C1996  N2038   1.428   .     S
C1997  N2039   1.428   .     S
C1997  C1522   1.392   1_565 S
C1998  N2040   1.429   .     S
C1998  C1540   1.386   1_565 S
H1999  N2036   1.045   .     S
H2003  N2040   1.028   .     S
H2007  N2041   1.030   .     S
H2012  N2042   1.015   .     S
H2016  N2032   1.021   .     S
H2020  N2033   1.041   .     S
H2021  N2037   1.043   .     S
H2022  N2033   1.045   .     S
H2023  N2034   1.036   .     S
H2024  N2034   1.039   .     S
H2025  N1885   1.046   1_655 S
H2026  N2038   1.031   .     S
H2030  N2039   1.031   .     S
N2031  Zn2051  2.029   .     S
N2035  Zn2052  2.029   .     S
N2036  H1858   1.046   1_655 S
N2036  C1842   1.441   1_655 S
O2043  Zn2051  2.018   .     S
O2044  Zn2052  2.018   .     S
O2045  Zn2052  2.009   .     S
O2046  Zn2051  2.009   .     S
O2047  Zn2051  1.982   .     S
O2048  Zn2052  1.982   .     S
O2049  Zn2052  1.981   .     S
O2050  Zn2051  1.981   .     S
