data_str_m3_o1_o18_pcu_sym.123
_audit_creation_date              2020-01-03
_audit_creation_method            'Materials Studio'
_symmetry_space_group_name_H-M    'P1'
_symmetry_Int_Tables_number       1
_symmetry_cell_setting            triclinic
loop_
_symmetry_equiv_pos_as_xyz
  x,y,z
_cell_length_a                    29.6024
_cell_length_b                    31.9723
_cell_length_c                    30.6182
_cell_angle_alpha                 89.6052
_cell_angle_beta                  68.8705
_cell_angle_gamma                 90.3315
loop_
_atom_site_label
_atom_site_type_symbol
_atom_site_fract_x
_atom_site_fract_y
_atom_site_fract_z
_atom_site_U_iso_or_equiv
_atom_site_adp_type
_atom_site_occupancy
C1     C     0.16753   0.24651   0.24810   0.00000  Uiso   1.00
C2     C     0.16594   0.08672   0.25145   0.00000  Uiso   1.00
C3     C     0.12884   0.10179   0.04052   0.00000  Uiso   1.00
C4     C     0.23456   0.14286   0.44206   0.00000  Uiso   1.00
C5     C     0.09427   0.09776   0.01901   0.00000  Uiso   1.00
C6     C     0.26585   0.15584   0.46455   0.00000  Uiso   1.00
C7     C     0.17743   0.31011   0.28346   0.00000  Uiso   1.00
C8     C     0.15580   0.02288   0.21579   0.00000  Uiso   1.00
C9     C     0.17480   0.01968   0.28748   0.00000  Uiso   1.00
C10    C     0.15781   0.31317   0.21221   0.00000  Uiso   1.00
C11    C     0.16494   0.04245   0.25241   0.00000  Uiso   1.00
C12    C     0.16852   0.29063   0.24685   0.00000  Uiso   1.00
C13    C     0.31752   0.13606   0.22763   0.00000  Uiso   1.00
C14    C     0.01604   0.19760   0.27183   0.00000  Uiso   1.00
C15    C     0.03204   0.13603   0.22768   0.00000  Uiso   1.00
C16    C     0.30138   0.19746   0.27213   0.00000  Uiso   1.00
C17    C     0.13668   0.16601   0.33825   0.00000  Uiso   1.00
C18    C     0.19673   0.16630   0.16189   0.00000  Uiso   1.00
C19    C     0.11979   0.15573   0.38828   0.00000  Uiso   1.00
C20    C     0.21558   0.16309   0.11100   0.00000  Uiso   1.00
C21    C     0.06703   0.11508   0.45423   0.00000  Uiso   1.00
C22    C     0.28047   0.17177   0.03621   0.00000  Uiso   1.00
C23    C     0.07667   0.13337   0.41017   0.00000  Uiso   1.00
C24    C     0.26350   0.17408   0.08476   0.00000  Uiso   1.00
C25    C     0.15307   0.15944   0.41067   0.00000  Uiso   1.00
C26    C     0.18533   0.14791   0.08870   0.00000  Uiso   1.00
C27    C     0.14738   0.13638   0.45126   0.00000  Uiso   1.00
C28    C     0.20269   0.14166   0.04027   0.00000  Uiso   1.00
C29    C     0.10227   0.11663   0.47536   0.00000  Uiso   1.00
C30    C     0.24996   0.15657   0.01343   0.00000  Uiso   1.00
C31    C     0.18493   0.13480   0.46954   0.00000  Uiso   1.00
C32    C     0.17213   0.12558   0.01757   0.00000  Uiso   1.00
H33    H     0.14765   0.14216   0.10945   0.00000  Uiso   1.00
H34    H     0.18517   0.17861   0.39454   0.00000  Uiso   1.00
H35    H     0.28739   0.18578   0.10171   0.00000  Uiso   1.00
H36    H     0.05153   0.12844   0.39231   0.00000  Uiso   1.00
H37    H     0.18411   0.29130   0.31014   0.00000  Uiso   1.00
H38    H     0.14881   0.04150   0.18916   0.00000  Uiso   1.00
H39    H     0.30596   0.11157   0.20969   0.00000  Uiso   1.00
H40    H     0.02765   0.22212   0.28969   0.00000  Uiso   1.00
N41    N     0.04759   0.16668   0.25001   0.00000  Uiso   1.00
N42    N     0.28574   0.16666   0.24999   0.00000  Uiso   1.00
O43    O     0.12846   0.22775   0.25001   0.00000  Uiso   1.00
O44    O     0.20488   0.10558   0.25000   0.00000  Uiso   1.00
O45    O     0.20490   0.22774   0.25000   0.00000  Uiso   1.00
O46    O     0.12843   0.10559   0.25000   0.00000  Uiso   1.00
O47    O     0.10661   0.16667   0.31613   0.00000  Uiso   1.00
O48    O     0.22672   0.16666   0.18388   0.00000  Uiso   1.00
O49    O     0.18305   0.16666   0.31612   0.00000  Uiso   1.00
O50    O     0.15028   0.16667   0.18388   0.00000  Uiso   1.00
Zn51   Zn    0.11562   0.16667   0.25000   0.00000  Uiso   1.00
Zn52   Zn    0.21771   0.16666   0.25000   0.00000  Uiso   1.00
F53    F     0.05315   0.07502   0.04042   0.00000  Uiso   1.00
F54    F     0.31137   0.16901   0.43876   0.00000  Uiso   1.00
F55    F     0.02429   0.09444   0.47484   0.00000  Uiso   1.00
F56    F     0.32645   0.18497   0.01191   0.00000  Uiso   1.00
C57    C     0.12213   0.07545   0.08270   0.00000  Uiso   1.00
O58    O     0.15724   0.06002   0.08860   0.00000  Uiso   1.00
O59    O     0.07558   0.06741   0.11508   0.00000  Uiso   1.00
H60    H     0.07564   0.04838   0.14165   0.00000  Uiso   1.00
C61    C     0.25626   0.13051   0.39182   0.00000  Uiso   1.00
O62    O     0.23476   0.10614   0.37548   0.00000  Uiso   1.00
O63    O     0.30270   0.14413   0.36392   0.00000  Uiso   1.00
H64    H     0.31495   0.12974   0.33248   0.00000  Uiso   1.00
C65    C     0.17899   0.03862   0.33010   0.00000  Uiso   1.00
O66    O     0.16123   0.07265   0.34371   0.00000  Uiso   1.00
O67    O     0.20113   0.01627   0.35627   0.00000  Uiso   1.00
H68    H     0.19894   0.03092   0.38621   0.00000  Uiso   1.00
C69    C     0.15056   0.29329   0.17140   0.00000  Uiso   1.00
O70    O     0.17034   0.26033   0.15581   0.00000  Uiso   1.00
O71    O     0.12197   0.31304   0.14984   0.00000  Uiso   1.00
H72    H     0.12013   0.29684   0.12218   0.00000  Uiso   1.00
F73    F     0.06271   0.10529   0.20531   0.00000  Uiso   1.00
F74    F     0.27059   0.22796   0.29515   0.00000  Uiso   1.00
C75    C     0.50086   0.24651   0.24810   0.00000  Uiso   1.00
C76    C     0.49927   0.08672   0.25145   0.00000  Uiso   1.00
C77    C     0.46218   0.10179   0.04052   0.00000  Uiso   1.00
C78    C     0.56790   0.14286   0.44206   0.00000  Uiso   1.00
C79    C     0.42761   0.09776   0.01901   0.00000  Uiso   1.00
C80    C     0.59918   0.15584   0.46455   0.00000  Uiso   1.00
C81    C     0.51077   0.31011   0.28346   0.00000  Uiso   1.00
C82    C     0.48914   0.02288   0.21579   0.00000  Uiso   1.00
C83    C     0.50813   0.01968   0.28748   0.00000  Uiso   1.00
C84    C     0.49114   0.31317   0.21221   0.00000  Uiso   1.00
C85    C     0.49827   0.04245   0.25241   0.00000  Uiso   1.00
C86    C     0.50186   0.29063   0.24685   0.00000  Uiso   1.00
C87    C     0.65085   0.13606   0.22763   0.00000  Uiso   1.00
C88    C     0.34938   0.19760   0.27183   0.00000  Uiso   1.00
C89    C     0.36538   0.13603   0.22768   0.00000  Uiso   1.00
C90    C     0.63471   0.19746   0.27213   0.00000  Uiso   1.00
C91    C     0.47001   0.16601   0.33825   0.00000  Uiso   1.00
C92    C     0.53006   0.16630   0.16189   0.00000  Uiso   1.00
C93    C     0.45313   0.15573   0.38828   0.00000  Uiso   1.00
C94    C     0.54891   0.16309   0.11100   0.00000  Uiso   1.00
C95    C     0.40037   0.11508   0.45423   0.00000  Uiso   1.00
C96    C     0.61380   0.17177   0.03621   0.00000  Uiso   1.00
C97    C     0.41000   0.13337   0.41017   0.00000  Uiso   1.00
C98    C     0.59684   0.17408   0.08476   0.00000  Uiso   1.00
C99    C     0.48641   0.15944   0.41067   0.00000  Uiso   1.00
C100   C     0.51866   0.14791   0.08870   0.00000  Uiso   1.00
C101   C     0.48071   0.13638   0.45126   0.00000  Uiso   1.00
C102   C     0.53602   0.14166   0.04027   0.00000  Uiso   1.00
C103   C     0.43561   0.11663   0.47536   0.00000  Uiso   1.00
C104   C     0.58329   0.15657   0.01343   0.00000  Uiso   1.00
C105   C     0.51826   0.13480   0.46954   0.00000  Uiso   1.00
C106   C     0.50546   0.12558   0.01757   0.00000  Uiso   1.00
H107   H     0.48098   0.14216   0.10945   0.00000  Uiso   1.00
H108   H     0.51850   0.17861   0.39454   0.00000  Uiso   1.00
H109   H     0.62073   0.18578   0.10171   0.00000  Uiso   1.00
H110   H     0.38486   0.12844   0.39231   0.00000  Uiso   1.00
H111   H     0.51744   0.29130   0.31014   0.00000  Uiso   1.00
H112   H     0.48214   0.04150   0.18916   0.00000  Uiso   1.00
H113   H     0.63930   0.11157   0.20969   0.00000  Uiso   1.00
H114   H     0.36099   0.22212   0.28969   0.00000  Uiso   1.00
N115   N     0.38093   0.16668   0.25001   0.00000  Uiso   1.00
N116   N     0.61907   0.16666   0.24999   0.00000  Uiso   1.00
O117   O     0.46179   0.22775   0.25001   0.00000  Uiso   1.00
O118   O     0.53821   0.10558   0.25000   0.00000  Uiso   1.00
O119   O     0.53823   0.22774   0.25000   0.00000  Uiso   1.00
O120   O     0.46177   0.10559   0.25000   0.00000  Uiso   1.00
O121   O     0.43994   0.16667   0.31613   0.00000  Uiso   1.00
O122   O     0.56006   0.16666   0.18388   0.00000  Uiso   1.00
O123   O     0.51639   0.16666   0.31612   0.00000  Uiso   1.00
O124   O     0.48361   0.16667   0.18388   0.00000  Uiso   1.00
Zn125  Zn    0.44896   0.16667   0.25000   0.00000  Uiso   1.00
Zn126  Zn    0.55104   0.16666   0.25000   0.00000  Uiso   1.00
F127   F     0.38648   0.07502   0.04042   0.00000  Uiso   1.00
F128   F     0.64470   0.16901   0.43876   0.00000  Uiso   1.00
F129   F     0.35763   0.09444   0.47484   0.00000  Uiso   1.00
F130   F     0.65979   0.18497   0.01191   0.00000  Uiso   1.00
C131   C     0.45546   0.07545   0.08270   0.00000  Uiso   1.00
O132   O     0.49058   0.06002   0.08860   0.00000  Uiso   1.00
O133   O     0.40891   0.06741   0.11508   0.00000  Uiso   1.00
H134   H     0.40897   0.04838   0.14165   0.00000  Uiso   1.00
C135   C     0.58959   0.13051   0.39182   0.00000  Uiso   1.00
O136   O     0.56809   0.10614   0.37548   0.00000  Uiso   1.00
O137   O     0.63604   0.14413   0.36392   0.00000  Uiso   1.00
H138   H     0.64828   0.12974   0.33248   0.00000  Uiso   1.00
C139   C     0.51232   0.03862   0.33010   0.00000  Uiso   1.00
O140   O     0.49456   0.07265   0.34371   0.00000  Uiso   1.00
O141   O     0.53447   0.01627   0.35627   0.00000  Uiso   1.00
H142   H     0.53228   0.03092   0.38621   0.00000  Uiso   1.00
C143   C     0.48389   0.29329   0.17140   0.00000  Uiso   1.00
O144   O     0.50367   0.26033   0.15581   0.00000  Uiso   1.00
O145   O     0.45531   0.31304   0.14984   0.00000  Uiso   1.00
H146   H     0.45346   0.29684   0.12218   0.00000  Uiso   1.00
F147   F     0.39604   0.10529   0.20531   0.00000  Uiso   1.00
F148   F     0.60392   0.22796   0.29515   0.00000  Uiso   1.00
C149   C     0.83420   0.24651   0.24810   0.00000  Uiso   1.00
C150   C     0.83261   0.08672   0.25145   0.00000  Uiso   1.00
C151   C     0.79551   0.10179   0.04052   0.00000  Uiso   1.00
C152   C     0.90123   0.14286   0.44206   0.00000  Uiso   1.00
C153   C     0.76094   0.09776   0.01901   0.00000  Uiso   1.00
C154   C     0.93251   0.15584   0.46455   0.00000  Uiso   1.00
C155   C     0.84410   0.31011   0.28346   0.00000  Uiso   1.00
C156   C     0.82247   0.02288   0.21579   0.00000  Uiso   1.00
C157   C     0.84147   0.01968   0.28748   0.00000  Uiso   1.00
C158   C     0.82447   0.31317   0.21221   0.00000  Uiso   1.00
C159   C     0.83161   0.04245   0.25241   0.00000  Uiso   1.00
C160   C     0.83519   0.29063   0.24685   0.00000  Uiso   1.00
C161   C     0.98419   0.13606   0.22763   0.00000  Uiso   1.00
C162   C     0.68271   0.19760   0.27183   0.00000  Uiso   1.00
C163   C     0.69871   0.13603   0.22768   0.00000  Uiso   1.00
C164   C     0.96804   0.19746   0.27213   0.00000  Uiso   1.00
C165   C     0.80334   0.16601   0.33825   0.00000  Uiso   1.00
C166   C     0.86339   0.16630   0.16189   0.00000  Uiso   1.00
C167   C     0.78646   0.15573   0.38828   0.00000  Uiso   1.00
C168   C     0.88225   0.16309   0.11100   0.00000  Uiso   1.00
C169   C     0.73370   0.11508   0.45423   0.00000  Uiso   1.00
C170   C     0.94714   0.17177   0.03621   0.00000  Uiso   1.00
C171   C     0.74334   0.13337   0.41017   0.00000  Uiso   1.00
C172   C     0.93017   0.17408   0.08476   0.00000  Uiso   1.00
C173   C     0.81974   0.15944   0.41067   0.00000  Uiso   1.00
C174   C     0.85199   0.14791   0.08870   0.00000  Uiso   1.00
C175   C     0.81405   0.13638   0.45126   0.00000  Uiso   1.00
C176   C     0.86935   0.14166   0.04027   0.00000  Uiso   1.00
C177   C     0.76894   0.11663   0.47536   0.00000  Uiso   1.00
C178   C     0.91663   0.15657   0.01343   0.00000  Uiso   1.00
C179   C     0.85159   0.13480   0.46954   0.00000  Uiso   1.00
C180   C     0.83880   0.12558   0.01757   0.00000  Uiso   1.00
H181   H     0.81431   0.14216   0.10945   0.00000  Uiso   1.00
H182   H     0.85183   0.17861   0.39454   0.00000  Uiso   1.00
H183   H     0.95406   0.18578   0.10171   0.00000  Uiso   1.00
H184   H     0.71820   0.12844   0.39231   0.00000  Uiso   1.00
H185   H     0.85077   0.29130   0.31014   0.00000  Uiso   1.00
H186   H     0.81548   0.04150   0.18916   0.00000  Uiso   1.00
H187   H     0.97263   0.11157   0.20969   0.00000  Uiso   1.00
H188   H     0.69432   0.22212   0.28969   0.00000  Uiso   1.00
N189   N     0.71426   0.16668   0.25001   0.00000  Uiso   1.00
N190   N     0.95241   0.16666   0.24999   0.00000  Uiso   1.00
O191   O     0.79512   0.22775   0.25001   0.00000  Uiso   1.00
O192   O     0.87154   0.10558   0.25000   0.00000  Uiso   1.00
O193   O     0.87157   0.22774   0.25000   0.00000  Uiso   1.00
O194   O     0.79510   0.10559   0.25000   0.00000  Uiso   1.00
O195   O     0.77328   0.16667   0.31613   0.00000  Uiso   1.00
O196   O     0.89339   0.16666   0.18388   0.00000  Uiso   1.00
O197   O     0.84972   0.16666   0.31612   0.00000  Uiso   1.00
O198   O     0.81695   0.16667   0.18388   0.00000  Uiso   1.00
Zn199  Zn    0.78229   0.16667   0.25000   0.00000  Uiso   1.00
Zn200  Zn    0.88438   0.16666   0.25000   0.00000  Uiso   1.00
F201   F     0.71981   0.07502   0.04042   0.00000  Uiso   1.00
F202   F     0.97804   0.16901   0.43876   0.00000  Uiso   1.00
F203   F     0.69096   0.09444   0.47484   0.00000  Uiso   1.00
F204   F     0.99312   0.18497   0.01191   0.00000  Uiso   1.00
C205   C     0.78880   0.07545   0.08270   0.00000  Uiso   1.00
O206   O     0.82391   0.06002   0.08860   0.00000  Uiso   1.00
O207   O     0.74224   0.06741   0.11508   0.00000  Uiso   1.00
H208   H     0.74231   0.04838   0.14165   0.00000  Uiso   1.00
C209   C     0.92293   0.13051   0.39182   0.00000  Uiso   1.00
O210   O     0.90143   0.10614   0.37548   0.00000  Uiso   1.00
O211   O     0.96937   0.14413   0.36392   0.00000  Uiso   1.00
H212   H     0.98161   0.12974   0.33248   0.00000  Uiso   1.00
C213   C     0.84565   0.03862   0.33010   0.00000  Uiso   1.00
O214   O     0.82790   0.07265   0.34371   0.00000  Uiso   1.00
O215   O     0.86780   0.01627   0.35627   0.00000  Uiso   1.00
H216   H     0.86561   0.03092   0.38621   0.00000  Uiso   1.00
C217   C     0.81722   0.29329   0.17140   0.00000  Uiso   1.00
O218   O     0.83701   0.26033   0.15581   0.00000  Uiso   1.00
O219   O     0.78864   0.31304   0.14984   0.00000  Uiso   1.00
H220   H     0.78679   0.29684   0.12218   0.00000  Uiso   1.00
F221   F     0.72937   0.10529   0.20531   0.00000  Uiso   1.00
F222   F     0.93725   0.22796   0.29515   0.00000  Uiso   1.00
C223   C     0.16753   0.57984   0.24810   0.00000  Uiso   1.00
C224   C     0.16594   0.42005   0.25145   0.00000  Uiso   1.00
C225   C     0.12884   0.43512   0.04052   0.00000  Uiso   1.00
C226   C     0.23456   0.47619   0.44206   0.00000  Uiso   1.00
C227   C     0.09427   0.43110   0.01901   0.00000  Uiso   1.00
C228   C     0.26585   0.48917   0.46455   0.00000  Uiso   1.00
C229   C     0.17743   0.64344   0.28346   0.00000  Uiso   1.00
C230   C     0.15580   0.35621   0.21579   0.00000  Uiso   1.00
C231   C     0.17480   0.35301   0.28748   0.00000  Uiso   1.00
C232   C     0.15781   0.64650   0.21221   0.00000  Uiso   1.00
C233   C     0.16494   0.37578   0.25241   0.00000  Uiso   1.00
C234   C     0.16852   0.62396   0.24685   0.00000  Uiso   1.00
C235   C     0.31752   0.46939   0.22763   0.00000  Uiso   1.00
C236   C     0.01604   0.53093   0.27183   0.00000  Uiso   1.00
C237   C     0.03204   0.46937   0.22768   0.00000  Uiso   1.00
C238   C     0.30138   0.53079   0.27213   0.00000  Uiso   1.00
C239   C     0.13668   0.49934   0.33825   0.00000  Uiso   1.00
C240   C     0.19673   0.49963   0.16189   0.00000  Uiso   1.00
C241   C     0.11979   0.48906   0.38828   0.00000  Uiso   1.00
C242   C     0.21558   0.49642   0.11100   0.00000  Uiso   1.00
C243   C     0.06703   0.44842   0.45423   0.00000  Uiso   1.00
C244   C     0.28047   0.50510   0.03621   0.00000  Uiso   1.00
C245   C     0.07667   0.46670   0.41017   0.00000  Uiso   1.00
C246   C     0.26350   0.50742   0.08476   0.00000  Uiso   1.00
C247   C     0.15307   0.49278   0.41067   0.00000  Uiso   1.00
C248   C     0.18533   0.48124   0.08870   0.00000  Uiso   1.00
C249   C     0.14738   0.46972   0.45126   0.00000  Uiso   1.00
C250   C     0.20269   0.47500   0.04027   0.00000  Uiso   1.00
C251   C     0.10227   0.44996   0.47536   0.00000  Uiso   1.00
C252   C     0.24996   0.48991   0.01343   0.00000  Uiso   1.00
C253   C     0.18493   0.46814   0.46954   0.00000  Uiso   1.00
C254   C     0.17213   0.45891   0.01757   0.00000  Uiso   1.00
H255   H     0.14765   0.47549   0.10945   0.00000  Uiso   1.00
H256   H     0.18517   0.51194   0.39454   0.00000  Uiso   1.00
H257   H     0.28739   0.51912   0.10171   0.00000  Uiso   1.00
H258   H     0.05153   0.46177   0.39231   0.00000  Uiso   1.00
H259   H     0.18411   0.62464   0.31014   0.00000  Uiso   1.00
H260   H     0.14881   0.37483   0.18916   0.00000  Uiso   1.00
H261   H     0.30596   0.44490   0.20969   0.00000  Uiso   1.00
H262   H     0.02765   0.55546   0.28969   0.00000  Uiso   1.00
N263   N     0.04759   0.50001   0.25001   0.00000  Uiso   1.00
N264   N     0.28574   0.49999   0.24999   0.00000  Uiso   1.00
O265   O     0.12846   0.56108   0.25001   0.00000  Uiso   1.00
O266   O     0.20488   0.43892   0.25000   0.00000  Uiso   1.00
O267   O     0.20490   0.56107   0.25000   0.00000  Uiso   1.00
O268   O     0.12843   0.43893   0.25000   0.00000  Uiso   1.00
O269   O     0.10661   0.50001   0.31613   0.00000  Uiso   1.00
O270   O     0.22672   0.49999   0.18388   0.00000  Uiso   1.00
O271   O     0.18305   0.50000   0.31612   0.00000  Uiso   1.00
O272   O     0.15028   0.50000   0.18388   0.00000  Uiso   1.00
Zn273  Zn    0.11562   0.50001   0.25000   0.00000  Uiso   1.00
Zn274  Zn    0.21771   0.49999   0.25000   0.00000  Uiso   1.00
F275   F     0.05315   0.40835   0.04042   0.00000  Uiso   1.00
F276   F     0.31137   0.50235   0.43876   0.00000  Uiso   1.00
F277   F     0.02429   0.42778   0.47484   0.00000  Uiso   1.00
F278   F     0.32645   0.51831   0.01191   0.00000  Uiso   1.00
C279   C     0.12213   0.40879   0.08270   0.00000  Uiso   1.00
O280   O     0.15724   0.39335   0.08860   0.00000  Uiso   1.00
O281   O     0.07558   0.40074   0.11508   0.00000  Uiso   1.00
H282   H     0.07564   0.38171   0.14165   0.00000  Uiso   1.00
C283   C     0.25626   0.46385   0.39182   0.00000  Uiso   1.00
O284   O     0.23476   0.43948   0.37548   0.00000  Uiso   1.00
O285   O     0.30270   0.47746   0.36392   0.00000  Uiso   1.00
H286   H     0.31495   0.46307   0.33248   0.00000  Uiso   1.00
C287   C     0.17899   0.37195   0.33010   0.00000  Uiso   1.00
O288   O     0.16123   0.40598   0.34371   0.00000  Uiso   1.00
O289   O     0.20113   0.34960   0.35627   0.00000  Uiso   1.00
H290   H     0.19894   0.36426   0.38621   0.00000  Uiso   1.00
C291   C     0.15056   0.62662   0.17140   0.00000  Uiso   1.00
O292   O     0.17034   0.59366   0.15581   0.00000  Uiso   1.00
O293   O     0.12197   0.64637   0.14984   0.00000  Uiso   1.00
H294   H     0.12013   0.63017   0.12218   0.00000  Uiso   1.00
F295   F     0.06271   0.43862   0.20531   0.00000  Uiso   1.00
F296   F     0.27059   0.56129   0.29515   0.00000  Uiso   1.00
C297   C     0.50086   0.57984   0.24810   0.00000  Uiso   1.00
C298   C     0.49927   0.42005   0.25145   0.00000  Uiso   1.00
C299   C     0.46218   0.43512   0.04052   0.00000  Uiso   1.00
C300   C     0.56790   0.47619   0.44206   0.00000  Uiso   1.00
C301   C     0.42761   0.43110   0.01901   0.00000  Uiso   1.00
C302   C     0.59918   0.48917   0.46455   0.00000  Uiso   1.00
C303   C     0.51077   0.64344   0.28346   0.00000  Uiso   1.00
C304   C     0.48914   0.35621   0.21579   0.00000  Uiso   1.00
C305   C     0.50813   0.35301   0.28748   0.00000  Uiso   1.00
C306   C     0.49114   0.64650   0.21221   0.00000  Uiso   1.00
C307   C     0.49827   0.37578   0.25241   0.00000  Uiso   1.00
C308   C     0.50186   0.62396   0.24685   0.00000  Uiso   1.00
C309   C     0.65085   0.46939   0.22763   0.00000  Uiso   1.00
C310   C     0.34938   0.53093   0.27183   0.00000  Uiso   1.00
C311   C     0.36538   0.46937   0.22768   0.00000  Uiso   1.00
C312   C     0.63471   0.53079   0.27213   0.00000  Uiso   1.00
C313   C     0.47001   0.49934   0.33825   0.00000  Uiso   1.00
C314   C     0.53006   0.49963   0.16189   0.00000  Uiso   1.00
C315   C     0.45313   0.48906   0.38828   0.00000  Uiso   1.00
C316   C     0.54891   0.49642   0.11100   0.00000  Uiso   1.00
C317   C     0.40037   0.44842   0.45423   0.00000  Uiso   1.00
C318   C     0.61380   0.50510   0.03621   0.00000  Uiso   1.00
C319   C     0.41000   0.46670   0.41017   0.00000  Uiso   1.00
C320   C     0.59684   0.50742   0.08476   0.00000  Uiso   1.00
C321   C     0.48641   0.49278   0.41067   0.00000  Uiso   1.00
C322   C     0.51866   0.48124   0.08870   0.00000  Uiso   1.00
C323   C     0.48071   0.46972   0.45126   0.00000  Uiso   1.00
C324   C     0.53602   0.47500   0.04027   0.00000  Uiso   1.00
C325   C     0.43561   0.44996   0.47536   0.00000  Uiso   1.00
C326   C     0.58329   0.48991   0.01343   0.00000  Uiso   1.00
C327   C     0.51826   0.46814   0.46954   0.00000  Uiso   1.00
C328   C     0.50546   0.45891   0.01757   0.00000  Uiso   1.00
H329   H     0.48098   0.47549   0.10945   0.00000  Uiso   1.00
H330   H     0.51850   0.51194   0.39454   0.00000  Uiso   1.00
H331   H     0.62073   0.51912   0.10171   0.00000  Uiso   1.00
H332   H     0.38486   0.46177   0.39231   0.00000  Uiso   1.00
H333   H     0.51744   0.62464   0.31014   0.00000  Uiso   1.00
H334   H     0.48214   0.37483   0.18916   0.00000  Uiso   1.00
H335   H     0.63930   0.44490   0.20969   0.00000  Uiso   1.00
H336   H     0.36099   0.55546   0.28969   0.00000  Uiso   1.00
N337   N     0.38093   0.50001   0.25001   0.00000  Uiso   1.00
N338   N     0.61907   0.49999   0.24999   0.00000  Uiso   1.00
O339   O     0.46179   0.56108   0.25001   0.00000  Uiso   1.00
O340   O     0.53821   0.43892   0.25000   0.00000  Uiso   1.00
O341   O     0.53823   0.56107   0.25000   0.00000  Uiso   1.00
O342   O     0.46177   0.43893   0.25000   0.00000  Uiso   1.00
O343   O     0.43994   0.50001   0.31613   0.00000  Uiso   1.00
O344   O     0.56006   0.49999   0.18388   0.00000  Uiso   1.00
O345   O     0.51639   0.50000   0.31612   0.00000  Uiso   1.00
O346   O     0.48361   0.50000   0.18388   0.00000  Uiso   1.00
Zn347  Zn    0.44896   0.50001   0.25000   0.00000  Uiso   1.00
Zn348  Zn    0.55104   0.49999   0.25000   0.00000  Uiso   1.00
F349   F     0.38648   0.40835   0.04042   0.00000  Uiso   1.00
F350   F     0.64470   0.50235   0.43876   0.00000  Uiso   1.00
F351   F     0.35763   0.42778   0.47484   0.00000  Uiso   1.00
F352   F     0.65979   0.51831   0.01191   0.00000  Uiso   1.00
C353   C     0.45546   0.40879   0.08270   0.00000  Uiso   1.00
O354   O     0.49058   0.39335   0.08860   0.00000  Uiso   1.00
O355   O     0.40891   0.40074   0.11508   0.00000  Uiso   1.00
H356   H     0.40897   0.38171   0.14165   0.00000  Uiso   1.00
C357   C     0.58959   0.46385   0.39182   0.00000  Uiso   1.00
O358   O     0.56809   0.43948   0.37548   0.00000  Uiso   1.00
O359   O     0.63604   0.47746   0.36392   0.00000  Uiso   1.00
H360   H     0.64828   0.46307   0.33248   0.00000  Uiso   1.00
C361   C     0.51232   0.37195   0.33010   0.00000  Uiso   1.00
O362   O     0.49456   0.40598   0.34371   0.00000  Uiso   1.00
O363   O     0.53447   0.34960   0.35627   0.00000  Uiso   1.00
H364   H     0.53228   0.36426   0.38621   0.00000  Uiso   1.00
C365   C     0.48389   0.62662   0.17140   0.00000  Uiso   1.00
O366   O     0.50367   0.59366   0.15581   0.00000  Uiso   1.00
O367   O     0.45531   0.64637   0.14984   0.00000  Uiso   1.00
H368   H     0.45346   0.63017   0.12218   0.00000  Uiso   1.00
F369   F     0.39604   0.43862   0.20531   0.00000  Uiso   1.00
F370   F     0.60392   0.56129   0.29515   0.00000  Uiso   1.00
C371   C     0.83420   0.57984   0.24810   0.00000  Uiso   1.00
C372   C     0.83261   0.42005   0.25145   0.00000  Uiso   1.00
C373   C     0.79551   0.43512   0.04052   0.00000  Uiso   1.00
C374   C     0.90123   0.47619   0.44206   0.00000  Uiso   1.00
C375   C     0.76094   0.43110   0.01901   0.00000  Uiso   1.00
C376   C     0.93251   0.48917   0.46455   0.00000  Uiso   1.00
C377   C     0.84410   0.64344   0.28346   0.00000  Uiso   1.00
C378   C     0.82247   0.35621   0.21579   0.00000  Uiso   1.00
C379   C     0.84147   0.35301   0.28748   0.00000  Uiso   1.00
C380   C     0.82447   0.64650   0.21221   0.00000  Uiso   1.00
C381   C     0.83161   0.37578   0.25241   0.00000  Uiso   1.00
C382   C     0.83519   0.62396   0.24685   0.00000  Uiso   1.00
C383   C     0.98419   0.46939   0.22763   0.00000  Uiso   1.00
C384   C     0.68271   0.53093   0.27183   0.00000  Uiso   1.00
C385   C     0.69871   0.46937   0.22768   0.00000  Uiso   1.00
C386   C     0.96804   0.53079   0.27213   0.00000  Uiso   1.00
C387   C     0.80334   0.49934   0.33825   0.00000  Uiso   1.00
C388   C     0.86339   0.49963   0.16189   0.00000  Uiso   1.00
C389   C     0.78646   0.48906   0.38828   0.00000  Uiso   1.00
C390   C     0.88225   0.49642   0.11100   0.00000  Uiso   1.00
C391   C     0.73370   0.44842   0.45423   0.00000  Uiso   1.00
C392   C     0.94714   0.50510   0.03621   0.00000  Uiso   1.00
C393   C     0.74334   0.46670   0.41017   0.00000  Uiso   1.00
C394   C     0.93017   0.50742   0.08476   0.00000  Uiso   1.00
C395   C     0.81974   0.49278   0.41067   0.00000  Uiso   1.00
C396   C     0.85199   0.48124   0.08870   0.00000  Uiso   1.00
C397   C     0.81405   0.46972   0.45126   0.00000  Uiso   1.00
C398   C     0.86935   0.47500   0.04027   0.00000  Uiso   1.00
C399   C     0.76894   0.44996   0.47536   0.00000  Uiso   1.00
C400   C     0.91663   0.48991   0.01343   0.00000  Uiso   1.00
C401   C     0.85159   0.46814   0.46954   0.00000  Uiso   1.00
C402   C     0.83880   0.45891   0.01757   0.00000  Uiso   1.00
H403   H     0.81431   0.47549   0.10945   0.00000  Uiso   1.00
H404   H     0.85183   0.51194   0.39454   0.00000  Uiso   1.00
H405   H     0.95406   0.51912   0.10171   0.00000  Uiso   1.00
H406   H     0.71820   0.46177   0.39231   0.00000  Uiso   1.00
H407   H     0.85077   0.62464   0.31014   0.00000  Uiso   1.00
H408   H     0.81548   0.37483   0.18916   0.00000  Uiso   1.00
H409   H     0.97263   0.44490   0.20969   0.00000  Uiso   1.00
H410   H     0.69432   0.55546   0.28969   0.00000  Uiso   1.00
N411   N     0.71426   0.50001   0.25001   0.00000  Uiso   1.00
N412   N     0.95241   0.49999   0.24999   0.00000  Uiso   1.00
O413   O     0.79512   0.56108   0.25001   0.00000  Uiso   1.00
O414   O     0.87154   0.43892   0.25000   0.00000  Uiso   1.00
O415   O     0.87157   0.56107   0.25000   0.00000  Uiso   1.00
O416   O     0.79510   0.43893   0.25000   0.00000  Uiso   1.00
O417   O     0.77328   0.50001   0.31613   0.00000  Uiso   1.00
O418   O     0.89339   0.49999   0.18388   0.00000  Uiso   1.00
O419   O     0.84972   0.50000   0.31612   0.00000  Uiso   1.00
O420   O     0.81695   0.50000   0.18388   0.00000  Uiso   1.00
Zn421  Zn    0.78229   0.50001   0.25000   0.00000  Uiso   1.00
Zn422  Zn    0.88438   0.49999   0.25000   0.00000  Uiso   1.00
F423   F     0.71981   0.40835   0.04042   0.00000  Uiso   1.00
F424   F     0.97804   0.50235   0.43876   0.00000  Uiso   1.00
F425   F     0.69096   0.42778   0.47484   0.00000  Uiso   1.00
F426   F     0.99312   0.51831   0.01191   0.00000  Uiso   1.00
C427   C     0.78880   0.40879   0.08270   0.00000  Uiso   1.00
O428   O     0.82391   0.39335   0.08860   0.00000  Uiso   1.00
O429   O     0.74224   0.40074   0.11508   0.00000  Uiso   1.00
H430   H     0.74231   0.38171   0.14165   0.00000  Uiso   1.00
C431   C     0.92293   0.46385   0.39182   0.00000  Uiso   1.00
O432   O     0.90143   0.43948   0.37548   0.00000  Uiso   1.00
O433   O     0.96937   0.47746   0.36392   0.00000  Uiso   1.00
H434   H     0.98161   0.46307   0.33248   0.00000  Uiso   1.00
C435   C     0.84565   0.37195   0.33010   0.00000  Uiso   1.00
O436   O     0.82790   0.40598   0.34371   0.00000  Uiso   1.00
O437   O     0.86780   0.34960   0.35627   0.00000  Uiso   1.00
H438   H     0.86561   0.36426   0.38621   0.00000  Uiso   1.00
C439   C     0.81722   0.62662   0.17140   0.00000  Uiso   1.00
O440   O     0.83701   0.59366   0.15581   0.00000  Uiso   1.00
O441   O     0.78864   0.64637   0.14984   0.00000  Uiso   1.00
H442   H     0.78679   0.63017   0.12218   0.00000  Uiso   1.00
F443   F     0.72937   0.43862   0.20531   0.00000  Uiso   1.00
F444   F     0.93725   0.56129   0.29515   0.00000  Uiso   1.00
C445   C     0.16753   0.91318   0.24810   0.00000  Uiso   1.00
C446   C     0.16594   0.75338   0.25145   0.00000  Uiso   1.00
C447   C     0.12884   0.76845   0.04052   0.00000  Uiso   1.00
C448   C     0.23456   0.80953   0.44206   0.00000  Uiso   1.00
C449   C     0.09427   0.76443   0.01901   0.00000  Uiso   1.00
C450   C     0.26585   0.82250   0.46455   0.00000  Uiso   1.00
C451   C     0.17743   0.97677   0.28346   0.00000  Uiso   1.00
C452   C     0.15580   0.68954   0.21579   0.00000  Uiso   1.00
C453   C     0.17480   0.68635   0.28748   0.00000  Uiso   1.00
C454   C     0.15781   0.97983   0.21221   0.00000  Uiso   1.00
C455   C     0.16494   0.70912   0.25241   0.00000  Uiso   1.00
C456   C     0.16852   0.95730   0.24685   0.00000  Uiso   1.00
C457   C     0.31752   0.80273   0.22763   0.00000  Uiso   1.00
C458   C     0.01604   0.86427   0.27183   0.00000  Uiso   1.00
C459   C     0.03204   0.80270   0.22768   0.00000  Uiso   1.00
C460   C     0.30138   0.86413   0.27213   0.00000  Uiso   1.00
C461   C     0.13668   0.83267   0.33825   0.00000  Uiso   1.00
C462   C     0.19673   0.83296   0.16189   0.00000  Uiso   1.00
C463   C     0.11979   0.82239   0.38828   0.00000  Uiso   1.00
C464   C     0.21558   0.82975   0.11100   0.00000  Uiso   1.00
C465   C     0.06703   0.78175   0.45423   0.00000  Uiso   1.00
C466   C     0.28047   0.83844   0.03621   0.00000  Uiso   1.00
C467   C     0.07667   0.80003   0.41017   0.00000  Uiso   1.00
C468   C     0.26350   0.84075   0.08476   0.00000  Uiso   1.00
C469   C     0.15307   0.82611   0.41067   0.00000  Uiso   1.00
C470   C     0.18533   0.81457   0.08870   0.00000  Uiso   1.00
C471   C     0.14738   0.80305   0.45126   0.00000  Uiso   1.00
C472   C     0.20269   0.80833   0.04027   0.00000  Uiso   1.00
C473   C     0.10227   0.78330   0.47536   0.00000  Uiso   1.00
C474   C     0.24996   0.82324   0.01343   0.00000  Uiso   1.00
C475   C     0.18493   0.80147   0.46954   0.00000  Uiso   1.00
C476   C     0.17213   0.79225   0.01757   0.00000  Uiso   1.00
H477   H     0.14765   0.80882   0.10945   0.00000  Uiso   1.00
H478   H     0.18517   0.84527   0.39454   0.00000  Uiso   1.00
H479   H     0.28739   0.85245   0.10171   0.00000  Uiso   1.00
H480   H     0.05153   0.79511   0.39231   0.00000  Uiso   1.00
H481   H     0.18411   0.95797   0.31014   0.00000  Uiso   1.00
H482   H     0.14881   0.70817   0.18916   0.00000  Uiso   1.00
H483   H     0.30596   0.77824   0.20969   0.00000  Uiso   1.00
H484   H     0.02765   0.88879   0.28969   0.00000  Uiso   1.00
N485   N     0.04759   0.83334   0.25001   0.00000  Uiso   1.00
N486   N     0.28574   0.83332   0.24999   0.00000  Uiso   1.00
O487   O     0.12846   0.89442   0.25001   0.00000  Uiso   1.00
O488   O     0.20488   0.77225   0.25000   0.00000  Uiso   1.00
O489   O     0.20490   0.89441   0.25000   0.00000  Uiso   1.00
O490   O     0.12843   0.77226   0.25000   0.00000  Uiso   1.00
O491   O     0.10661   0.83334   0.31613   0.00000  Uiso   1.00
O492   O     0.22672   0.83333   0.18388   0.00000  Uiso   1.00
O493   O     0.18305   0.83333   0.31612   0.00000  Uiso   1.00
O494   O     0.15028   0.83334   0.18388   0.00000  Uiso   1.00
Zn495  Zn    0.11562   0.83334   0.25000   0.00000  Uiso   1.00
Zn496  Zn    0.21771   0.83333   0.25000   0.00000  Uiso   1.00
F497   F     0.05315   0.74168   0.04042   0.00000  Uiso   1.00
F498   F     0.31137   0.83568   0.43876   0.00000  Uiso   1.00
F499   F     0.02429   0.76111   0.47484   0.00000  Uiso   1.00
F500   F     0.32645   0.85164   0.01191   0.00000  Uiso   1.00
C501   C     0.12213   0.74212   0.08270   0.00000  Uiso   1.00
O502   O     0.15724   0.72668   0.08860   0.00000  Uiso   1.00
O503   O     0.07558   0.73407   0.11508   0.00000  Uiso   1.00
H504   H     0.07564   0.71504   0.14165   0.00000  Uiso   1.00
C505   C     0.25626   0.79718   0.39182   0.00000  Uiso   1.00
O506   O     0.23476   0.77281   0.37548   0.00000  Uiso   1.00
O507   O     0.30270   0.81080   0.36392   0.00000  Uiso   1.00
H508   H     0.31495   0.79640   0.33248   0.00000  Uiso   1.00
C509   C     0.17899   0.70529   0.33010   0.00000  Uiso   1.00
O510   O     0.16123   0.73932   0.34371   0.00000  Uiso   1.00
O511   O     0.20113   0.68294   0.35627   0.00000  Uiso   1.00
H512   H     0.19894   0.69759   0.38621   0.00000  Uiso   1.00
C513   C     0.15056   0.95996   0.17140   0.00000  Uiso   1.00
O514   O     0.17034   0.92700   0.15581   0.00000  Uiso   1.00
O515   O     0.12197   0.97971   0.14984   0.00000  Uiso   1.00
H516   H     0.12013   0.96350   0.12218   0.00000  Uiso   1.00
F517   F     0.06271   0.77195   0.20531   0.00000  Uiso   1.00
F518   F     0.27059   0.89463   0.29515   0.00000  Uiso   1.00
C519   C     0.50086   0.91318   0.24810   0.00000  Uiso   1.00
C520   C     0.49927   0.75338   0.25145   0.00000  Uiso   1.00
C521   C     0.46218   0.76845   0.04052   0.00000  Uiso   1.00
C522   C     0.56790   0.80953   0.44206   0.00000  Uiso   1.00
C523   C     0.42761   0.76443   0.01901   0.00000  Uiso   1.00
C524   C     0.59918   0.82250   0.46455   0.00000  Uiso   1.00
C525   C     0.51077   0.97677   0.28346   0.00000  Uiso   1.00
C526   C     0.48914   0.68954   0.21579   0.00000  Uiso   1.00
C527   C     0.50813   0.68635   0.28748   0.00000  Uiso   1.00
C528   C     0.49114   0.97983   0.21221   0.00000  Uiso   1.00
C529   C     0.49827   0.70912   0.25241   0.00000  Uiso   1.00
C530   C     0.50186   0.95730   0.24685   0.00000  Uiso   1.00
C531   C     0.65085   0.80273   0.22763   0.00000  Uiso   1.00
C532   C     0.34938   0.86427   0.27183   0.00000  Uiso   1.00
C533   C     0.36538   0.80270   0.22768   0.00000  Uiso   1.00
C534   C     0.63471   0.86413   0.27213   0.00000  Uiso   1.00
C535   C     0.47001   0.83267   0.33825   0.00000  Uiso   1.00
C536   C     0.53006   0.83296   0.16189   0.00000  Uiso   1.00
C537   C     0.45313   0.82239   0.38828   0.00000  Uiso   1.00
C538   C     0.54891   0.82975   0.11100   0.00000  Uiso   1.00
C539   C     0.40037   0.78175   0.45423   0.00000  Uiso   1.00
C540   C     0.61380   0.83844   0.03621   0.00000  Uiso   1.00
C541   C     0.41000   0.80003   0.41017   0.00000  Uiso   1.00
C542   C     0.59684   0.84075   0.08476   0.00000  Uiso   1.00
C543   C     0.48641   0.82611   0.41067   0.00000  Uiso   1.00
C544   C     0.51866   0.81457   0.08870   0.00000  Uiso   1.00
C545   C     0.48071   0.80305   0.45126   0.00000  Uiso   1.00
C546   C     0.53602   0.80833   0.04027   0.00000  Uiso   1.00
C547   C     0.43561   0.78330   0.47536   0.00000  Uiso   1.00
C548   C     0.58329   0.82324   0.01343   0.00000  Uiso   1.00
C549   C     0.51826   0.80147   0.46954   0.00000  Uiso   1.00
C550   C     0.50546   0.79225   0.01757   0.00000  Uiso   1.00
H551   H     0.48098   0.80882   0.10945   0.00000  Uiso   1.00
H552   H     0.51850   0.84527   0.39454   0.00000  Uiso   1.00
H553   H     0.62073   0.85245   0.10171   0.00000  Uiso   1.00
H554   H     0.38486   0.79511   0.39231   0.00000  Uiso   1.00
H555   H     0.51744   0.95797   0.31014   0.00000  Uiso   1.00
H556   H     0.48214   0.70817   0.18916   0.00000  Uiso   1.00
H557   H     0.63930   0.77824   0.20969   0.00000  Uiso   1.00
H558   H     0.36099   0.88879   0.28969   0.00000  Uiso   1.00
N559   N     0.38093   0.83334   0.25001   0.00000  Uiso   1.00
N560   N     0.61907   0.83332   0.24999   0.00000  Uiso   1.00
O561   O     0.46179   0.89442   0.25001   0.00000  Uiso   1.00
O562   O     0.53821   0.77225   0.25000   0.00000  Uiso   1.00
O563   O     0.53823   0.89441   0.25000   0.00000  Uiso   1.00
O564   O     0.46177   0.77226   0.25000   0.00000  Uiso   1.00
O565   O     0.43994   0.83334   0.31613   0.00000  Uiso   1.00
O566   O     0.56006   0.83333   0.18388   0.00000  Uiso   1.00
O567   O     0.51639   0.83333   0.31612   0.00000  Uiso   1.00
O568   O     0.48361   0.83334   0.18388   0.00000  Uiso   1.00
Zn569  Zn    0.44896   0.83334   0.25000   0.00000  Uiso   1.00
Zn570  Zn    0.55104   0.83333   0.25000   0.00000  Uiso   1.00
F571   F     0.38648   0.74168   0.04042   0.00000  Uiso   1.00
F572   F     0.64470   0.83568   0.43876   0.00000  Uiso   1.00
F573   F     0.35763   0.76111   0.47484   0.00000  Uiso   1.00
F574   F     0.65979   0.85164   0.01191   0.00000  Uiso   1.00
C575   C     0.45546   0.74212   0.08270   0.00000  Uiso   1.00
O576   O     0.49058   0.72668   0.08860   0.00000  Uiso   1.00
O577   O     0.40891   0.73407   0.11508   0.00000  Uiso   1.00
H578   H     0.40897   0.71504   0.14165   0.00000  Uiso   1.00
C579   C     0.58959   0.79718   0.39182   0.00000  Uiso   1.00
O580   O     0.56809   0.77281   0.37548   0.00000  Uiso   1.00
O581   O     0.63604   0.81080   0.36392   0.00000  Uiso   1.00
H582   H     0.64828   0.79640   0.33248   0.00000  Uiso   1.00
C583   C     0.51232   0.70529   0.33010   0.00000  Uiso   1.00
O584   O     0.49456   0.73932   0.34371   0.00000  Uiso   1.00
O585   O     0.53447   0.68294   0.35627   0.00000  Uiso   1.00
H586   H     0.53228   0.69759   0.38621   0.00000  Uiso   1.00
C587   C     0.48389   0.95996   0.17140   0.00000  Uiso   1.00
O588   O     0.50367   0.92700   0.15581   0.00000  Uiso   1.00
O589   O     0.45531   0.97971   0.14984   0.00000  Uiso   1.00
H590   H     0.45346   0.96350   0.12218   0.00000  Uiso   1.00
F591   F     0.39604   0.77195   0.20531   0.00000  Uiso   1.00
F592   F     0.60392   0.89463   0.29515   0.00000  Uiso   1.00
C593   C     0.83420   0.91318   0.24810   0.00000  Uiso   1.00
C594   C     0.83261   0.75338   0.25145   0.00000  Uiso   1.00
C595   C     0.79551   0.76845   0.04052   0.00000  Uiso   1.00
C596   C     0.90123   0.80953   0.44206   0.00000  Uiso   1.00
C597   C     0.76094   0.76443   0.01901   0.00000  Uiso   1.00
C598   C     0.93251   0.82250   0.46455   0.00000  Uiso   1.00
C599   C     0.84410   0.97677   0.28346   0.00000  Uiso   1.00
C600   C     0.82247   0.68954   0.21579   0.00000  Uiso   1.00
C601   C     0.84147   0.68635   0.28748   0.00000  Uiso   1.00
C602   C     0.82447   0.97983   0.21221   0.00000  Uiso   1.00
C603   C     0.83161   0.70912   0.25241   0.00000  Uiso   1.00
C604   C     0.83519   0.95730   0.24685   0.00000  Uiso   1.00
C605   C     0.98419   0.80273   0.22763   0.00000  Uiso   1.00
C606   C     0.68271   0.86427   0.27183   0.00000  Uiso   1.00
C607   C     0.69871   0.80270   0.22768   0.00000  Uiso   1.00
C608   C     0.96804   0.86413   0.27213   0.00000  Uiso   1.00
C609   C     0.80334   0.83267   0.33825   0.00000  Uiso   1.00
C610   C     0.86339   0.83296   0.16189   0.00000  Uiso   1.00
C611   C     0.78646   0.82239   0.38828   0.00000  Uiso   1.00
C612   C     0.88225   0.82975   0.11100   0.00000  Uiso   1.00
C613   C     0.73370   0.78175   0.45423   0.00000  Uiso   1.00
C614   C     0.94714   0.83844   0.03621   0.00000  Uiso   1.00
C615   C     0.74334   0.80003   0.41017   0.00000  Uiso   1.00
C616   C     0.93017   0.84075   0.08476   0.00000  Uiso   1.00
C617   C     0.81974   0.82611   0.41067   0.00000  Uiso   1.00
C618   C     0.85199   0.81457   0.08870   0.00000  Uiso   1.00
C619   C     0.81405   0.80305   0.45126   0.00000  Uiso   1.00
C620   C     0.86935   0.80833   0.04027   0.00000  Uiso   1.00
C621   C     0.76894   0.78330   0.47536   0.00000  Uiso   1.00
C622   C     0.91663   0.82324   0.01343   0.00000  Uiso   1.00
C623   C     0.85159   0.80147   0.46954   0.00000  Uiso   1.00
C624   C     0.83880   0.79225   0.01757   0.00000  Uiso   1.00
H625   H     0.81431   0.80882   0.10945   0.00000  Uiso   1.00
H626   H     0.85183   0.84527   0.39454   0.00000  Uiso   1.00
H627   H     0.95406   0.85245   0.10171   0.00000  Uiso   1.00
H628   H     0.71820   0.79511   0.39231   0.00000  Uiso   1.00
H629   H     0.85077   0.95797   0.31014   0.00000  Uiso   1.00
H630   H     0.81548   0.70817   0.18916   0.00000  Uiso   1.00
H631   H     0.97263   0.77824   0.20969   0.00000  Uiso   1.00
H632   H     0.69432   0.88879   0.28969   0.00000  Uiso   1.00
N633   N     0.71426   0.83334   0.25001   0.00000  Uiso   1.00
N634   N     0.95241   0.83332   0.24999   0.00000  Uiso   1.00
O635   O     0.79512   0.89442   0.25001   0.00000  Uiso   1.00
O636   O     0.87154   0.77225   0.25000   0.00000  Uiso   1.00
O637   O     0.87157   0.89441   0.25000   0.00000  Uiso   1.00
O638   O     0.79510   0.77226   0.25000   0.00000  Uiso   1.00
O639   O     0.77328   0.83334   0.31613   0.00000  Uiso   1.00
O640   O     0.89339   0.83333   0.18388   0.00000  Uiso   1.00
O641   O     0.84972   0.83333   0.31612   0.00000  Uiso   1.00
O642   O     0.81695   0.83334   0.18388   0.00000  Uiso   1.00
Zn643  Zn    0.78229   0.83334   0.25000   0.00000  Uiso   1.00
Zn644  Zn    0.88438   0.83333   0.25000   0.00000  Uiso   1.00
F645   F     0.71981   0.74168   0.04042   0.00000  Uiso   1.00
F646   F     0.97804   0.83568   0.43876   0.00000  Uiso   1.00
F647   F     0.69096   0.76111   0.47484   0.00000  Uiso   1.00
F648   F     0.99312   0.85164   0.01191   0.00000  Uiso   1.00
C649   C     0.78880   0.74212   0.08270   0.00000  Uiso   1.00
O650   O     0.82391   0.72668   0.08860   0.00000  Uiso   1.00
O651   O     0.74224   0.73407   0.11508   0.00000  Uiso   1.00
H652   H     0.74231   0.71504   0.14165   0.00000  Uiso   1.00
C653   C     0.92293   0.79718   0.39182   0.00000  Uiso   1.00
O654   O     0.90143   0.77281   0.37548   0.00000  Uiso   1.00
O655   O     0.96937   0.81080   0.36392   0.00000  Uiso   1.00
H656   H     0.98161   0.79640   0.33248   0.00000  Uiso   1.00
C657   C     0.84565   0.70529   0.33010   0.00000  Uiso   1.00
O658   O     0.82790   0.73932   0.34371   0.00000  Uiso   1.00
O659   O     0.86780   0.68294   0.35627   0.00000  Uiso   1.00
H660   H     0.86561   0.69759   0.38621   0.00000  Uiso   1.00
C661   C     0.81722   0.95996   0.17140   0.00000  Uiso   1.00
O662   O     0.83701   0.92700   0.15581   0.00000  Uiso   1.00
O663   O     0.78864   0.97971   0.14984   0.00000  Uiso   1.00
H664   H     0.78679   0.96350   0.12218   0.00000  Uiso   1.00
F665   F     0.72937   0.77195   0.20531   0.00000  Uiso   1.00
F666   F     0.93725   0.89463   0.29515   0.00000  Uiso   1.00
C667   C     0.16753   0.24651   0.74810   0.00000  Uiso   1.00
C668   C     0.16594   0.08672   0.75145   0.00000  Uiso   1.00
C669   C     0.12884   0.10179   0.54052   0.00000  Uiso   1.00
C670   C     0.23456   0.14286   0.94206   0.00000  Uiso   1.00
C671   C     0.09427   0.09776   0.51901   0.00000  Uiso   1.00
C672   C     0.26585   0.15584   0.96455   0.00000  Uiso   1.00
C673   C     0.17743   0.31011   0.78346   0.00000  Uiso   1.00
C674   C     0.15580   0.02288   0.71579   0.00000  Uiso   1.00
C675   C     0.17480   0.01968   0.78748   0.00000  Uiso   1.00
C676   C     0.15781   0.31317   0.71221   0.00000  Uiso   1.00
C677   C     0.16494   0.04245   0.75241   0.00000  Uiso   1.00
C678   C     0.16852   0.29063   0.74685   0.00000  Uiso   1.00
C679   C     0.31752   0.13606   0.72763   0.00000  Uiso   1.00
C680   C     0.01604   0.19760   0.77183   0.00000  Uiso   1.00
C681   C     0.03204   0.13603   0.72768   0.00000  Uiso   1.00
C682   C     0.30138   0.19746   0.77213   0.00000  Uiso   1.00
C683   C     0.13668   0.16601   0.83825   0.00000  Uiso   1.00
C684   C     0.19673   0.16630   0.66189   0.00000  Uiso   1.00
C685   C     0.11979   0.15573   0.88828   0.00000  Uiso   1.00
C686   C     0.21558   0.16309   0.61100   0.00000  Uiso   1.00
C687   C     0.06703   0.11508   0.95423   0.00000  Uiso   1.00
C688   C     0.28047   0.17177   0.53621   0.00000  Uiso   1.00
C689   C     0.07667   0.13337   0.91017   0.00000  Uiso   1.00
C690   C     0.26350   0.17408   0.58476   0.00000  Uiso   1.00
C691   C     0.15307   0.15944   0.91067   0.00000  Uiso   1.00
C692   C     0.18533   0.14791   0.58870   0.00000  Uiso   1.00
C693   C     0.14738   0.13638   0.95126   0.00000  Uiso   1.00
C694   C     0.20269   0.14166   0.54027   0.00000  Uiso   1.00
C695   C     0.10227   0.11663   0.97536   0.00000  Uiso   1.00
C696   C     0.24996   0.15657   0.51343   0.00000  Uiso   1.00
C697   C     0.18493   0.13480   0.96954   0.00000  Uiso   1.00
C698   C     0.17213   0.12558   0.51757   0.00000  Uiso   1.00
H699   H     0.14765   0.14216   0.60945   0.00000  Uiso   1.00
H700   H     0.18517   0.17861   0.89454   0.00000  Uiso   1.00
H701   H     0.28739   0.18578   0.60171   0.00000  Uiso   1.00
H702   H     0.05153   0.12844   0.89231   0.00000  Uiso   1.00
H703   H     0.18411   0.29130   0.81014   0.00000  Uiso   1.00
H704   H     0.14881   0.04150   0.68916   0.00000  Uiso   1.00
H705   H     0.30596   0.11157   0.70969   0.00000  Uiso   1.00
H706   H     0.02765   0.22212   0.78969   0.00000  Uiso   1.00
N707   N     0.04759   0.16668   0.75001   0.00000  Uiso   1.00
N708   N     0.28574   0.16666   0.74999   0.00000  Uiso   1.00
O709   O     0.12846   0.22775   0.75001   0.00000  Uiso   1.00
O710   O     0.20488   0.10558   0.75000   0.00000  Uiso   1.00
O711   O     0.20490   0.22774   0.75000   0.00000  Uiso   1.00
O712   O     0.12843   0.10559   0.75000   0.00000  Uiso   1.00
O713   O     0.10661   0.16667   0.81613   0.00000  Uiso   1.00
O714   O     0.22672   0.16666   0.68388   0.00000  Uiso   1.00
O715   O     0.18305   0.16666   0.81612   0.00000  Uiso   1.00
O716   O     0.15028   0.16667   0.68388   0.00000  Uiso   1.00
Zn717  Zn    0.11562   0.16667   0.75000   0.00000  Uiso   1.00
Zn718  Zn    0.21771   0.16666   0.75000   0.00000  Uiso   1.00
F719   F     0.05315   0.07502   0.54042   0.00000  Uiso   1.00
F720   F     0.31137   0.16901   0.93876   0.00000  Uiso   1.00
F721   F     0.02429   0.09444   0.97484   0.00000  Uiso   1.00
F722   F     0.32645   0.18497   0.51191   0.00000  Uiso   1.00
C723   C     0.12213   0.07545   0.58270   0.00000  Uiso   1.00
O724   O     0.15724   0.06002   0.58860   0.00000  Uiso   1.00
O725   O     0.07558   0.06741   0.61508   0.00000  Uiso   1.00
H726   H     0.07564   0.04838   0.64165   0.00000  Uiso   1.00
C727   C     0.25626   0.13051   0.89182   0.00000  Uiso   1.00
O728   O     0.23476   0.10614   0.87548   0.00000  Uiso   1.00
O729   O     0.30270   0.14413   0.86392   0.00000  Uiso   1.00
H730   H     0.31495   0.12974   0.83248   0.00000  Uiso   1.00
C731   C     0.17899   0.03862   0.83010   0.00000  Uiso   1.00
O732   O     0.16123   0.07265   0.84371   0.00000  Uiso   1.00
O733   O     0.20113   0.01627   0.85627   0.00000  Uiso   1.00
H734   H     0.19894   0.03092   0.88621   0.00000  Uiso   1.00
C735   C     0.15056   0.29329   0.67140   0.00000  Uiso   1.00
O736   O     0.17034   0.26033   0.65581   0.00000  Uiso   1.00
O737   O     0.12197   0.31304   0.64984   0.00000  Uiso   1.00
H738   H     0.12013   0.29684   0.62218   0.00000  Uiso   1.00
F739   F     0.06271   0.10529   0.70531   0.00000  Uiso   1.00
F740   F     0.27059   0.22796   0.79515   0.00000  Uiso   1.00
C741   C     0.50086   0.24651   0.74810   0.00000  Uiso   1.00
C742   C     0.49927   0.08672   0.75145   0.00000  Uiso   1.00
C743   C     0.46218   0.10179   0.54052   0.00000  Uiso   1.00
C744   C     0.56790   0.14286   0.94206   0.00000  Uiso   1.00
C745   C     0.42761   0.09776   0.51901   0.00000  Uiso   1.00
C746   C     0.59918   0.15584   0.96455   0.00000  Uiso   1.00
C747   C     0.51077   0.31011   0.78346   0.00000  Uiso   1.00
C748   C     0.48914   0.02288   0.71579   0.00000  Uiso   1.00
C749   C     0.50813   0.01968   0.78748   0.00000  Uiso   1.00
C750   C     0.49114   0.31317   0.71221   0.00000  Uiso   1.00
C751   C     0.49827   0.04245   0.75241   0.00000  Uiso   1.00
C752   C     0.50186   0.29063   0.74685   0.00000  Uiso   1.00
C753   C     0.65085   0.13606   0.72763   0.00000  Uiso   1.00
C754   C     0.34938   0.19760   0.77183   0.00000  Uiso   1.00
C755   C     0.36538   0.13603   0.72768   0.00000  Uiso   1.00
C756   C     0.63471   0.19746   0.77213   0.00000  Uiso   1.00
C757   C     0.47001   0.16601   0.83825   0.00000  Uiso   1.00
C758   C     0.53006   0.16630   0.66189   0.00000  Uiso   1.00
C759   C     0.45313   0.15573   0.88828   0.00000  Uiso   1.00
C760   C     0.54891   0.16309   0.61100   0.00000  Uiso   1.00
C761   C     0.40037   0.11508   0.95423   0.00000  Uiso   1.00
C762   C     0.61380   0.17177   0.53621   0.00000  Uiso   1.00
C763   C     0.41000   0.13337   0.91017   0.00000  Uiso   1.00
C764   C     0.59684   0.17408   0.58476   0.00000  Uiso   1.00
C765   C     0.48641   0.15944   0.91067   0.00000  Uiso   1.00
C766   C     0.51866   0.14791   0.58870   0.00000  Uiso   1.00
C767   C     0.48071   0.13638   0.95126   0.00000  Uiso   1.00
C768   C     0.53602   0.14166   0.54027   0.00000  Uiso   1.00
C769   C     0.43561   0.11663   0.97536   0.00000  Uiso   1.00
C770   C     0.58329   0.15657   0.51343   0.00000  Uiso   1.00
C771   C     0.51826   0.13480   0.96954   0.00000  Uiso   1.00
C772   C     0.50546   0.12558   0.51757   0.00000  Uiso   1.00
H773   H     0.48098   0.14216   0.60945   0.00000  Uiso   1.00
H774   H     0.51850   0.17861   0.89454   0.00000  Uiso   1.00
H775   H     0.62073   0.18578   0.60171   0.00000  Uiso   1.00
H776   H     0.38486   0.12844   0.89231   0.00000  Uiso   1.00
H777   H     0.51744   0.29130   0.81014   0.00000  Uiso   1.00
H778   H     0.48214   0.04150   0.68916   0.00000  Uiso   1.00
H779   H     0.63930   0.11157   0.70969   0.00000  Uiso   1.00
H780   H     0.36099   0.22212   0.78969   0.00000  Uiso   1.00
N781   N     0.38093   0.16668   0.75001   0.00000  Uiso   1.00
N782   N     0.61907   0.16666   0.74999   0.00000  Uiso   1.00
O783   O     0.46179   0.22775   0.75001   0.00000  Uiso   1.00
O784   O     0.53821   0.10558   0.75000   0.00000  Uiso   1.00
O785   O     0.53823   0.22774   0.75000   0.00000  Uiso   1.00
O786   O     0.46177   0.10559   0.75000   0.00000  Uiso   1.00
O787   O     0.43994   0.16667   0.81613   0.00000  Uiso   1.00
O788   O     0.56006   0.16666   0.68388   0.00000  Uiso   1.00
O789   O     0.51639   0.16666   0.81612   0.00000  Uiso   1.00
O790   O     0.48361   0.16667   0.68388   0.00000  Uiso   1.00
Zn791  Zn    0.44896   0.16667   0.75000   0.00000  Uiso   1.00
Zn792  Zn    0.55104   0.16666   0.75000   0.00000  Uiso   1.00
F793   F     0.38648   0.07502   0.54042   0.00000  Uiso   1.00
F794   F     0.64470   0.16901   0.93876   0.00000  Uiso   1.00
F795   F     0.35763   0.09444   0.97484   0.00000  Uiso   1.00
F796   F     0.65979   0.18497   0.51191   0.00000  Uiso   1.00
C797   C     0.45546   0.07545   0.58270   0.00000  Uiso   1.00
O798   O     0.49058   0.06002   0.58860   0.00000  Uiso   1.00
O799   O     0.40891   0.06741   0.61508   0.00000  Uiso   1.00
H800   H     0.40897   0.04838   0.64165   0.00000  Uiso   1.00
C801   C     0.58959   0.13051   0.89182   0.00000  Uiso   1.00
O802   O     0.56809   0.10614   0.87548   0.00000  Uiso   1.00
O803   O     0.63604   0.14413   0.86392   0.00000  Uiso   1.00
H804   H     0.64828   0.12974   0.83248   0.00000  Uiso   1.00
C805   C     0.51232   0.03862   0.83010   0.00000  Uiso   1.00
O806   O     0.49456   0.07265   0.84371   0.00000  Uiso   1.00
O807   O     0.53447   0.01627   0.85627   0.00000  Uiso   1.00
H808   H     0.53228   0.03092   0.88621   0.00000  Uiso   1.00
C809   C     0.48389   0.29329   0.67140   0.00000  Uiso   1.00
O810   O     0.50367   0.26033   0.65581   0.00000  Uiso   1.00
O811   O     0.45531   0.31304   0.64984   0.00000  Uiso   1.00
H812   H     0.45346   0.29684   0.62218   0.00000  Uiso   1.00
F813   F     0.39604   0.10529   0.70531   0.00000  Uiso   1.00
F814   F     0.60392   0.22796   0.79515   0.00000  Uiso   1.00
C815   C     0.83420   0.24651   0.74810   0.00000  Uiso   1.00
C816   C     0.83261   0.08672   0.75145   0.00000  Uiso   1.00
C817   C     0.79551   0.10179   0.54052   0.00000  Uiso   1.00
C818   C     0.90123   0.14286   0.94206   0.00000  Uiso   1.00
C819   C     0.76094   0.09776   0.51901   0.00000  Uiso   1.00
C820   C     0.93251   0.15584   0.96455   0.00000  Uiso   1.00
C821   C     0.84410   0.31011   0.78346   0.00000  Uiso   1.00
C822   C     0.82247   0.02288   0.71579   0.00000  Uiso   1.00
C823   C     0.84147   0.01968   0.78748   0.00000  Uiso   1.00
C824   C     0.82447   0.31317   0.71221   0.00000  Uiso   1.00
C825   C     0.83161   0.04245   0.75241   0.00000  Uiso   1.00
C826   C     0.83519   0.29063   0.74685   0.00000  Uiso   1.00
C827   C     0.98419   0.13606   0.72763   0.00000  Uiso   1.00
C828   C     0.68271   0.19760   0.77183   0.00000  Uiso   1.00
C829   C     0.69871   0.13603   0.72768   0.00000  Uiso   1.00
C830   C     0.96804   0.19746   0.77213   0.00000  Uiso   1.00
C831   C     0.80334   0.16601   0.83825   0.00000  Uiso   1.00
C832   C     0.86339   0.16630   0.66189   0.00000  Uiso   1.00
C833   C     0.78646   0.15573   0.88828   0.00000  Uiso   1.00
C834   C     0.88225   0.16309   0.61100   0.00000  Uiso   1.00
C835   C     0.73370   0.11508   0.95423   0.00000  Uiso   1.00
C836   C     0.94714   0.17177   0.53621   0.00000  Uiso   1.00
C837   C     0.74334   0.13337   0.91017   0.00000  Uiso   1.00
C838   C     0.93017   0.17408   0.58476   0.00000  Uiso   1.00
C839   C     0.81974   0.15944   0.91067   0.00000  Uiso   1.00
C840   C     0.85199   0.14791   0.58870   0.00000  Uiso   1.00
C841   C     0.81405   0.13638   0.95126   0.00000  Uiso   1.00
C842   C     0.86935   0.14166   0.54027   0.00000  Uiso   1.00
C843   C     0.76894   0.11663   0.97536   0.00000  Uiso   1.00
C844   C     0.91663   0.15657   0.51343   0.00000  Uiso   1.00
C845   C     0.85159   0.13480   0.96954   0.00000  Uiso   1.00
C846   C     0.83880   0.12558   0.51757   0.00000  Uiso   1.00
H847   H     0.81431   0.14216   0.60945   0.00000  Uiso   1.00
H848   H     0.85183   0.17861   0.89454   0.00000  Uiso   1.00
H849   H     0.95406   0.18578   0.60171   0.00000  Uiso   1.00
H850   H     0.71820   0.12844   0.89231   0.00000  Uiso   1.00
H851   H     0.85077   0.29130   0.81014   0.00000  Uiso   1.00
H852   H     0.81548   0.04150   0.68916   0.00000  Uiso   1.00
H853   H     0.97263   0.11157   0.70969   0.00000  Uiso   1.00
H854   H     0.69432   0.22212   0.78969   0.00000  Uiso   1.00
N855   N     0.71426   0.16668   0.75001   0.00000  Uiso   1.00
N856   N     0.95241   0.16666   0.74999   0.00000  Uiso   1.00
O857   O     0.79512   0.22775   0.75001   0.00000  Uiso   1.00
O858   O     0.87154   0.10558   0.75000   0.00000  Uiso   1.00
O859   O     0.87157   0.22774   0.75000   0.00000  Uiso   1.00
O860   O     0.79510   0.10559   0.75000   0.00000  Uiso   1.00
O861   O     0.77328   0.16667   0.81613   0.00000  Uiso   1.00
O862   O     0.89339   0.16666   0.68388   0.00000  Uiso   1.00
O863   O     0.84972   0.16666   0.81612   0.00000  Uiso   1.00
O864   O     0.81695   0.16667   0.68388   0.00000  Uiso   1.00
Zn865  Zn    0.78229   0.16667   0.75000   0.00000  Uiso   1.00
Zn866  Zn    0.88438   0.16666   0.75000   0.00000  Uiso   1.00
F867   F     0.71981   0.07502   0.54042   0.00000  Uiso   1.00
F868   F     0.97804   0.16901   0.93876   0.00000  Uiso   1.00
F869   F     0.69096   0.09444   0.97484   0.00000  Uiso   1.00
F870   F     0.99312   0.18497   0.51191   0.00000  Uiso   1.00
C871   C     0.78880   0.07545   0.58270   0.00000  Uiso   1.00
O872   O     0.82391   0.06002   0.58860   0.00000  Uiso   1.00
O873   O     0.74224   0.06741   0.61508   0.00000  Uiso   1.00
H874   H     0.74231   0.04838   0.64165   0.00000  Uiso   1.00
C875   C     0.92293   0.13051   0.89182   0.00000  Uiso   1.00
O876   O     0.90143   0.10614   0.87548   0.00000  Uiso   1.00
O877   O     0.96937   0.14413   0.86392   0.00000  Uiso   1.00
H878   H     0.98161   0.12974   0.83248   0.00000  Uiso   1.00
C879   C     0.84565   0.03862   0.83010   0.00000  Uiso   1.00
O880   O     0.82790   0.07265   0.84371   0.00000  Uiso   1.00
O881   O     0.86780   0.01627   0.85627   0.00000  Uiso   1.00
H882   H     0.86561   0.03092   0.88621   0.00000  Uiso   1.00
C883   C     0.81722   0.29329   0.67140   0.00000  Uiso   1.00
O884   O     0.83701   0.26033   0.65581   0.00000  Uiso   1.00
O885   O     0.78864   0.31304   0.64984   0.00000  Uiso   1.00
H886   H     0.78679   0.29684   0.62218   0.00000  Uiso   1.00
F887   F     0.72937   0.10529   0.70531   0.00000  Uiso   1.00
F888   F     0.93725   0.22796   0.79515   0.00000  Uiso   1.00
C889   C     0.16753   0.57984   0.74810   0.00000  Uiso   1.00
C890   C     0.16594   0.42005   0.75145   0.00000  Uiso   1.00
C891   C     0.12884   0.43512   0.54052   0.00000  Uiso   1.00
C892   C     0.23456   0.47619   0.94206   0.00000  Uiso   1.00
C893   C     0.09427   0.43110   0.51901   0.00000  Uiso   1.00
C894   C     0.26585   0.48917   0.96455   0.00000  Uiso   1.00
C895   C     0.17743   0.64344   0.78346   0.00000  Uiso   1.00
C896   C     0.15580   0.35621   0.71579   0.00000  Uiso   1.00
C897   C     0.17480   0.35301   0.78748   0.00000  Uiso   1.00
C898   C     0.15781   0.64650   0.71221   0.00000  Uiso   1.00
C899   C     0.16494   0.37578   0.75241   0.00000  Uiso   1.00
C900   C     0.16852   0.62396   0.74685   0.00000  Uiso   1.00
C901   C     0.31752   0.46939   0.72763   0.00000  Uiso   1.00
C902   C     0.01604   0.53093   0.77183   0.00000  Uiso   1.00
C903   C     0.03204   0.46937   0.72768   0.00000  Uiso   1.00
C904   C     0.30138   0.53079   0.77213   0.00000  Uiso   1.00
C905   C     0.13668   0.49934   0.83825   0.00000  Uiso   1.00
C906   C     0.19673   0.49963   0.66189   0.00000  Uiso   1.00
C907   C     0.11979   0.48906   0.88828   0.00000  Uiso   1.00
C908   C     0.21558   0.49642   0.61100   0.00000  Uiso   1.00
C909   C     0.06703   0.44842   0.95423   0.00000  Uiso   1.00
C910   C     0.28047   0.50510   0.53621   0.00000  Uiso   1.00
C911   C     0.07667   0.46670   0.91017   0.00000  Uiso   1.00
C912   C     0.26350   0.50742   0.58476   0.00000  Uiso   1.00
C913   C     0.15307   0.49278   0.91067   0.00000  Uiso   1.00
C914   C     0.18533   0.48124   0.58870   0.00000  Uiso   1.00
C915   C     0.14738   0.46972   0.95126   0.00000  Uiso   1.00
C916   C     0.20269   0.47500   0.54027   0.00000  Uiso   1.00
C917   C     0.10227   0.44996   0.97536   0.00000  Uiso   1.00
C918   C     0.24996   0.48991   0.51343   0.00000  Uiso   1.00
C919   C     0.18493   0.46814   0.96954   0.00000  Uiso   1.00
C920   C     0.17213   0.45891   0.51757   0.00000  Uiso   1.00
H921   H     0.14765   0.47549   0.60945   0.00000  Uiso   1.00
H922   H     0.18517   0.51194   0.89454   0.00000  Uiso   1.00
H923   H     0.28739   0.51912   0.60171   0.00000  Uiso   1.00
H924   H     0.05153   0.46177   0.89231   0.00000  Uiso   1.00
H925   H     0.18411   0.62464   0.81014   0.00000  Uiso   1.00
H926   H     0.14881   0.37483   0.68916   0.00000  Uiso   1.00
H927   H     0.30596   0.44490   0.70969   0.00000  Uiso   1.00
H928   H     0.02765   0.55546   0.78969   0.00000  Uiso   1.00
N929   N     0.04759   0.50001   0.75001   0.00000  Uiso   1.00
N930   N     0.28574   0.49999   0.74999   0.00000  Uiso   1.00
O931   O     0.12846   0.56108   0.75001   0.00000  Uiso   1.00
O932   O     0.20488   0.43892   0.75000   0.00000  Uiso   1.00
O933   O     0.20490   0.56107   0.75000   0.00000  Uiso   1.00
O934   O     0.12843   0.43893   0.75000   0.00000  Uiso   1.00
O935   O     0.10661   0.50001   0.81613   0.00000  Uiso   1.00
O936   O     0.22672   0.49999   0.68388   0.00000  Uiso   1.00
O937   O     0.18305   0.50000   0.81612   0.00000  Uiso   1.00
O938   O     0.15028   0.50000   0.68388   0.00000  Uiso   1.00
Zn939  Zn    0.11562   0.50001   0.75000   0.00000  Uiso   1.00
Zn940  Zn    0.21771   0.49999   0.75000   0.00000  Uiso   1.00
F941   F     0.05315   0.40835   0.54042   0.00000  Uiso   1.00
F942   F     0.31137   0.50235   0.93876   0.00000  Uiso   1.00
F943   F     0.02429   0.42778   0.97484   0.00000  Uiso   1.00
F944   F     0.32645   0.51831   0.51191   0.00000  Uiso   1.00
C945   C     0.12213   0.40879   0.58270   0.00000  Uiso   1.00
O946   O     0.15724   0.39335   0.58860   0.00000  Uiso   1.00
O947   O     0.07558   0.40074   0.61508   0.00000  Uiso   1.00
H948   H     0.07564   0.38171   0.64165   0.00000  Uiso   1.00
C949   C     0.25626   0.46385   0.89182   0.00000  Uiso   1.00
O950   O     0.23476   0.43948   0.87548   0.00000  Uiso   1.00
O951   O     0.30270   0.47746   0.86392   0.00000  Uiso   1.00
H952   H     0.31495   0.46307   0.83248   0.00000  Uiso   1.00
C953   C     0.17899   0.37195   0.83010   0.00000  Uiso   1.00
O954   O     0.16123   0.40598   0.84371   0.00000  Uiso   1.00
O955   O     0.20113   0.34960   0.85627   0.00000  Uiso   1.00
H956   H     0.19894   0.36426   0.88621   0.00000  Uiso   1.00
C957   C     0.15056   0.62662   0.67140   0.00000  Uiso   1.00
O958   O     0.17034   0.59366   0.65581   0.00000  Uiso   1.00
O959   O     0.12197   0.64637   0.64984   0.00000  Uiso   1.00
H960   H     0.12013   0.63017   0.62218   0.00000  Uiso   1.00
F961   F     0.06271   0.43862   0.70531   0.00000  Uiso   1.00
F962   F     0.27059   0.56129   0.79515   0.00000  Uiso   1.00
C963   C     0.50086   0.57984   0.74810   0.00000  Uiso   1.00
C964   C     0.49927   0.42005   0.75145   0.00000  Uiso   1.00
C965   C     0.46218   0.43512   0.54052   0.00000  Uiso   1.00
C966   C     0.56790   0.47619   0.94206   0.00000  Uiso   1.00
C967   C     0.42761   0.43110   0.51901   0.00000  Uiso   1.00
C968   C     0.59918   0.48917   0.96455   0.00000  Uiso   1.00
C969   C     0.51077   0.64344   0.78346   0.00000  Uiso   1.00
C970   C     0.48914   0.35621   0.71579   0.00000  Uiso   1.00
C971   C     0.50813   0.35301   0.78748   0.00000  Uiso   1.00
C972   C     0.49114   0.64650   0.71221   0.00000  Uiso   1.00
C973   C     0.49827   0.37578   0.75241   0.00000  Uiso   1.00
C974   C     0.50186   0.62396   0.74685   0.00000  Uiso   1.00
C975   C     0.65085   0.46939   0.72763   0.00000  Uiso   1.00
C976   C     0.34938   0.53093   0.77183   0.00000  Uiso   1.00
C977   C     0.36538   0.46937   0.72768   0.00000  Uiso   1.00
C978   C     0.63471   0.53079   0.77213   0.00000  Uiso   1.00
C979   C     0.47001   0.49934   0.83825   0.00000  Uiso   1.00
C980   C     0.53006   0.49963   0.66189   0.00000  Uiso   1.00
C981   C     0.45313   0.48906   0.88828   0.00000  Uiso   1.00
C982   C     0.54891   0.49642   0.61100   0.00000  Uiso   1.00
C983   C     0.40037   0.44842   0.95423   0.00000  Uiso   1.00
C984   C     0.61380   0.50510   0.53621   0.00000  Uiso   1.00
C985   C     0.41000   0.46670   0.91017   0.00000  Uiso   1.00
C986   C     0.59684   0.50742   0.58476   0.00000  Uiso   1.00
C987   C     0.48641   0.49278   0.91067   0.00000  Uiso   1.00
C988   C     0.51866   0.48124   0.58870   0.00000  Uiso   1.00
C989   C     0.48071   0.46972   0.95126   0.00000  Uiso   1.00
C990   C     0.53602   0.47500   0.54027   0.00000  Uiso   1.00
C991   C     0.43561   0.44996   0.97536   0.00000  Uiso   1.00
C992   C     0.58329   0.48991   0.51343   0.00000  Uiso   1.00
C993   C     0.51826   0.46814   0.96954   0.00000  Uiso   1.00
C994   C     0.50546   0.45891   0.51757   0.00000  Uiso   1.00
H995   H     0.48098   0.47549   0.60945   0.00000  Uiso   1.00
H996   H     0.51850   0.51194   0.89454   0.00000  Uiso   1.00
H997   H     0.62073   0.51912   0.60171   0.00000  Uiso   1.00
H998   H     0.38486   0.46177   0.89231   0.00000  Uiso   1.00
H999   H     0.51744   0.62464   0.81014   0.00000  Uiso   1.00
H1000  H     0.48214   0.37483   0.68916   0.00000  Uiso   1.00
H1001  H     0.63930   0.44490   0.70969   0.00000  Uiso   1.00
H1002  H     0.36099   0.55546   0.78969   0.00000  Uiso   1.00
N1003  N     0.38093   0.50001   0.75001   0.00000  Uiso   1.00
N1004  N     0.61907   0.49999   0.74999   0.00000  Uiso   1.00
O1005  O     0.46179   0.56108   0.75001   0.00000  Uiso   1.00
O1006  O     0.53821   0.43892   0.75000   0.00000  Uiso   1.00
O1007  O     0.53823   0.56107   0.75000   0.00000  Uiso   1.00
O1008  O     0.46177   0.43893   0.75000   0.00000  Uiso   1.00
O1009  O     0.43994   0.50001   0.81613   0.00000  Uiso   1.00
O1010  O     0.56006   0.49999   0.68388   0.00000  Uiso   1.00
O1011  O     0.51639   0.50000   0.81612   0.00000  Uiso   1.00
O1012  O     0.48361   0.50000   0.68388   0.00000  Uiso   1.00
Zn1013 Zn    0.44896   0.50001   0.75000   0.00000  Uiso   1.00
Zn1014 Zn    0.55104   0.49999   0.75000   0.00000  Uiso   1.00
F1015  F     0.38648   0.40835   0.54042   0.00000  Uiso   1.00
F1016  F     0.64470   0.50235   0.93876   0.00000  Uiso   1.00
F1017  F     0.35763   0.42778   0.97484   0.00000  Uiso   1.00
F1018  F     0.65979   0.51831   0.51191   0.00000  Uiso   1.00
C1019  C     0.45546   0.40879   0.58270   0.00000  Uiso   1.00
O1020  O     0.49058   0.39335   0.58860   0.00000  Uiso   1.00
O1021  O     0.40891   0.40074   0.61508   0.00000  Uiso   1.00
H1022  H     0.40897   0.38171   0.64165   0.00000  Uiso   1.00
C1023  C     0.58959   0.46385   0.89182   0.00000  Uiso   1.00
O1024  O     0.56809   0.43948   0.87548   0.00000  Uiso   1.00
O1025  O     0.63604   0.47746   0.86392   0.00000  Uiso   1.00
H1026  H     0.64828   0.46307   0.83248   0.00000  Uiso   1.00
C1027  C     0.51232   0.37195   0.83010   0.00000  Uiso   1.00
O1028  O     0.49456   0.40598   0.84371   0.00000  Uiso   1.00
O1029  O     0.53447   0.34960   0.85627   0.00000  Uiso   1.00
H1030  H     0.53228   0.36426   0.88621   0.00000  Uiso   1.00
C1031  C     0.48389   0.62662   0.67140   0.00000  Uiso   1.00
O1032  O     0.50367   0.59366   0.65581   0.00000  Uiso   1.00
O1033  O     0.45531   0.64637   0.64984   0.00000  Uiso   1.00
H1034  H     0.45346   0.63017   0.62218   0.00000  Uiso   1.00
F1035  F     0.39604   0.43862   0.70531   0.00000  Uiso   1.00
F1036  F     0.60392   0.56129   0.79515   0.00000  Uiso   1.00
C1037  C     0.83420   0.57984   0.74810   0.00000  Uiso   1.00
C1038  C     0.83261   0.42005   0.75145   0.00000  Uiso   1.00
C1039  C     0.79551   0.43512   0.54052   0.00000  Uiso   1.00
C1040  C     0.90123   0.47619   0.94206   0.00000  Uiso   1.00
C1041  C     0.76094   0.43110   0.51901   0.00000  Uiso   1.00
C1042  C     0.93251   0.48917   0.96455   0.00000  Uiso   1.00
C1043  C     0.84410   0.64344   0.78346   0.00000  Uiso   1.00
C1044  C     0.82247   0.35621   0.71579   0.00000  Uiso   1.00
C1045  C     0.84147   0.35301   0.78748   0.00000  Uiso   1.00
C1046  C     0.82447   0.64650   0.71221   0.00000  Uiso   1.00
C1047  C     0.83161   0.37578   0.75241   0.00000  Uiso   1.00
C1048  C     0.83519   0.62396   0.74685   0.00000  Uiso   1.00
C1049  C     0.98419   0.46939   0.72763   0.00000  Uiso   1.00
C1050  C     0.68271   0.53093   0.77183   0.00000  Uiso   1.00
C1051  C     0.69871   0.46937   0.72768   0.00000  Uiso   1.00
C1052  C     0.96804   0.53079   0.77213   0.00000  Uiso   1.00
C1053  C     0.80334   0.49934   0.83825   0.00000  Uiso   1.00
C1054  C     0.86339   0.49963   0.66189   0.00000  Uiso   1.00
C1055  C     0.78646   0.48906   0.88828   0.00000  Uiso   1.00
C1056  C     0.88225   0.49642   0.61100   0.00000  Uiso   1.00
C1057  C     0.73370   0.44842   0.95423   0.00000  Uiso   1.00
C1058  C     0.94714   0.50510   0.53621   0.00000  Uiso   1.00
C1059  C     0.74334   0.46670   0.91017   0.00000  Uiso   1.00
C1060  C     0.93017   0.50742   0.58476   0.00000  Uiso   1.00
C1061  C     0.81974   0.49278   0.91067   0.00000  Uiso   1.00
C1062  C     0.85199   0.48124   0.58870   0.00000  Uiso   1.00
C1063  C     0.81405   0.46972   0.95126   0.00000  Uiso   1.00
C1064  C     0.86935   0.47500   0.54027   0.00000  Uiso   1.00
C1065  C     0.76894   0.44996   0.97536   0.00000  Uiso   1.00
C1066  C     0.91663   0.48991   0.51343   0.00000  Uiso   1.00
C1067  C     0.85159   0.46814   0.96954   0.00000  Uiso   1.00
C1068  C     0.83880   0.45891   0.51757   0.00000  Uiso   1.00
H1069  H     0.81431   0.47549   0.60945   0.00000  Uiso   1.00
H1070  H     0.85183   0.51194   0.89454   0.00000  Uiso   1.00
H1071  H     0.95406   0.51912   0.60171   0.00000  Uiso   1.00
H1072  H     0.71820   0.46177   0.89231   0.00000  Uiso   1.00
H1073  H     0.85077   0.62464   0.81014   0.00000  Uiso   1.00
H1074  H     0.81548   0.37483   0.68916   0.00000  Uiso   1.00
H1075  H     0.97263   0.44490   0.70969   0.00000  Uiso   1.00
H1076  H     0.69432   0.55546   0.78969   0.00000  Uiso   1.00
N1077  N     0.71426   0.50001   0.75001   0.00000  Uiso   1.00
N1078  N     0.95241   0.49999   0.74999   0.00000  Uiso   1.00
O1079  O     0.79512   0.56108   0.75001   0.00000  Uiso   1.00
O1080  O     0.87154   0.43892   0.75000   0.00000  Uiso   1.00
O1081  O     0.87157   0.56107   0.75000   0.00000  Uiso   1.00
O1082  O     0.79510   0.43893   0.75000   0.00000  Uiso   1.00
O1083  O     0.77328   0.50001   0.81613   0.00000  Uiso   1.00
O1084  O     0.89339   0.49999   0.68388   0.00000  Uiso   1.00
O1085  O     0.84972   0.50000   0.81612   0.00000  Uiso   1.00
O1086  O     0.81695   0.50000   0.68388   0.00000  Uiso   1.00
Zn1087 Zn    0.78229   0.50001   0.75000   0.00000  Uiso   1.00
Zn1088 Zn    0.88438   0.49999   0.75000   0.00000  Uiso   1.00
F1089  F     0.71981   0.40835   0.54042   0.00000  Uiso   1.00
F1090  F     0.97804   0.50235   0.93876   0.00000  Uiso   1.00
F1091  F     0.69096   0.42778   0.97484   0.00000  Uiso   1.00
F1092  F     0.99312   0.51831   0.51191   0.00000  Uiso   1.00
C1093  C     0.78880   0.40879   0.58270   0.00000  Uiso   1.00
O1094  O     0.82391   0.39335   0.58860   0.00000  Uiso   1.00
O1095  O     0.74224   0.40074   0.61508   0.00000  Uiso   1.00
H1096  H     0.74231   0.38171   0.64165   0.00000  Uiso   1.00
C1097  C     0.92293   0.46385   0.89182   0.00000  Uiso   1.00
O1098  O     0.90143   0.43948   0.87548   0.00000  Uiso   1.00
O1099  O     0.96937   0.47746   0.86392   0.00000  Uiso   1.00
H1100  H     0.98161   0.46307   0.83248   0.00000  Uiso   1.00
C1101  C     0.84565   0.37195   0.83010   0.00000  Uiso   1.00
O1102  O     0.82790   0.40598   0.84371   0.00000  Uiso   1.00
O1103  O     0.86780   0.34960   0.85627   0.00000  Uiso   1.00
H1104  H     0.86561   0.36426   0.88621   0.00000  Uiso   1.00
C1105  C     0.81722   0.62662   0.67140   0.00000  Uiso   1.00
O1106  O     0.83701   0.59366   0.65581   0.00000  Uiso   1.00
O1107  O     0.78864   0.64637   0.64984   0.00000  Uiso   1.00
H1108  H     0.78679   0.63017   0.62218   0.00000  Uiso   1.00
F1109  F     0.72937   0.43862   0.70531   0.00000  Uiso   1.00
F1110  F     0.93725   0.56129   0.79515   0.00000  Uiso   1.00
C1111  C     0.16753   0.91318   0.74810   0.00000  Uiso   1.00
C1112  C     0.16594   0.75338   0.75145   0.00000  Uiso   1.00
C1113  C     0.12884   0.76845   0.54052   0.00000  Uiso   1.00
C1114  C     0.23456   0.80953   0.94206   0.00000  Uiso   1.00
C1115  C     0.09427   0.76443   0.51901   0.00000  Uiso   1.00
C1116  C     0.26585   0.82250   0.96455   0.00000  Uiso   1.00
C1117  C     0.17743   0.97677   0.78346   0.00000  Uiso   1.00
C1118  C     0.15580   0.68954   0.71579   0.00000  Uiso   1.00
C1119  C     0.17480   0.68635   0.78748   0.00000  Uiso   1.00
C1120  C     0.15781   0.97983   0.71221   0.00000  Uiso   1.00
C1121  C     0.16494   0.70912   0.75241   0.00000  Uiso   1.00
C1122  C     0.16852   0.95730   0.74685   0.00000  Uiso   1.00
C1123  C     0.31752   0.80273   0.72763   0.00000  Uiso   1.00
C1124  C     0.01604   0.86427   0.77183   0.00000  Uiso   1.00
C1125  C     0.03204   0.80270   0.72768   0.00000  Uiso   1.00
C1126  C     0.30138   0.86413   0.77213   0.00000  Uiso   1.00
C1127  C     0.13668   0.83267   0.83825   0.00000  Uiso   1.00
C1128  C     0.19673   0.83296   0.66189   0.00000  Uiso   1.00
C1129  C     0.11979   0.82239   0.88828   0.00000  Uiso   1.00
C1130  C     0.21558   0.82975   0.61100   0.00000  Uiso   1.00
C1131  C     0.06703   0.78175   0.95423   0.00000  Uiso   1.00
C1132  C     0.28047   0.83844   0.53621   0.00000  Uiso   1.00
C1133  C     0.07667   0.80003   0.91017   0.00000  Uiso   1.00
C1134  C     0.26350   0.84075   0.58476   0.00000  Uiso   1.00
C1135  C     0.15307   0.82611   0.91067   0.00000  Uiso   1.00
C1136  C     0.18533   0.81457   0.58870   0.00000  Uiso   1.00
C1137  C     0.14738   0.80305   0.95126   0.00000  Uiso   1.00
C1138  C     0.20269   0.80833   0.54027   0.00000  Uiso   1.00
C1139  C     0.10227   0.78330   0.97536   0.00000  Uiso   1.00
C1140  C     0.24996   0.82324   0.51343   0.00000  Uiso   1.00
C1141  C     0.18493   0.80147   0.96954   0.00000  Uiso   1.00
C1142  C     0.17213   0.79225   0.51757   0.00000  Uiso   1.00
H1143  H     0.14765   0.80882   0.60945   0.00000  Uiso   1.00
H1144  H     0.18517   0.84527   0.89454   0.00000  Uiso   1.00
H1145  H     0.28739   0.85245   0.60171   0.00000  Uiso   1.00
H1146  H     0.05153   0.79511   0.89231   0.00000  Uiso   1.00
H1147  H     0.18411   0.95797   0.81014   0.00000  Uiso   1.00
H1148  H     0.14881   0.70817   0.68916   0.00000  Uiso   1.00
H1149  H     0.30596   0.77824   0.70969   0.00000  Uiso   1.00
H1150  H     0.02765   0.88879   0.78969   0.00000  Uiso   1.00
N1151  N     0.04759   0.83334   0.75001   0.00000  Uiso   1.00
N1152  N     0.28574   0.83332   0.74999   0.00000  Uiso   1.00
O1153  O     0.12846   0.89442   0.75001   0.00000  Uiso   1.00
O1154  O     0.20488   0.77225   0.75000   0.00000  Uiso   1.00
O1155  O     0.20490   0.89441   0.75000   0.00000  Uiso   1.00
O1156  O     0.12843   0.77226   0.75000   0.00000  Uiso   1.00
O1157  O     0.10661   0.83334   0.81613   0.00000  Uiso   1.00
O1158  O     0.22672   0.83333   0.68388   0.00000  Uiso   1.00
O1159  O     0.18305   0.83333   0.81612   0.00000  Uiso   1.00
O1160  O     0.15028   0.83334   0.68388   0.00000  Uiso   1.00
Zn1161 Zn    0.11562   0.83334   0.75000   0.00000  Uiso   1.00
Zn1162 Zn    0.21771   0.83333   0.75000   0.00000  Uiso   1.00
F1163  F     0.05315   0.74168   0.54042   0.00000  Uiso   1.00
F1164  F     0.31137   0.83568   0.93876   0.00000  Uiso   1.00
F1165  F     0.02429   0.76111   0.97484   0.00000  Uiso   1.00
F1166  F     0.32645   0.85164   0.51191   0.00000  Uiso   1.00
C1167  C     0.12213   0.74212   0.58270   0.00000  Uiso   1.00
O1168  O     0.15724   0.72668   0.58860   0.00000  Uiso   1.00
O1169  O     0.07558   0.73407   0.61508   0.00000  Uiso   1.00
H1170  H     0.07564   0.71504   0.64165   0.00000  Uiso   1.00
C1171  C     0.25626   0.79718   0.89182   0.00000  Uiso   1.00
O1172  O     0.23476   0.77281   0.87548   0.00000  Uiso   1.00
O1173  O     0.30270   0.81080   0.86392   0.00000  Uiso   1.00
H1174  H     0.31495   0.79640   0.83248   0.00000  Uiso   1.00
C1175  C     0.17899   0.70529   0.83010   0.00000  Uiso   1.00
O1176  O     0.16123   0.73932   0.84371   0.00000  Uiso   1.00
O1177  O     0.20113   0.68294   0.85627   0.00000  Uiso   1.00
H1178  H     0.19894   0.69759   0.88621   0.00000  Uiso   1.00
C1179  C     0.15056   0.95996   0.67140   0.00000  Uiso   1.00
O1180  O     0.17034   0.92700   0.65581   0.00000  Uiso   1.00
O1181  O     0.12197   0.97971   0.64984   0.00000  Uiso   1.00
H1182  H     0.12013   0.96350   0.62218   0.00000  Uiso   1.00
F1183  F     0.06271   0.77195   0.70531   0.00000  Uiso   1.00
F1184  F     0.27059   0.89463   0.79515   0.00000  Uiso   1.00
C1185  C     0.50086   0.91318   0.74810   0.00000  Uiso   1.00
C1186  C     0.49927   0.75338   0.75145   0.00000  Uiso   1.00
C1187  C     0.46218   0.76845   0.54052   0.00000  Uiso   1.00
C1188  C     0.56790   0.80953   0.94206   0.00000  Uiso   1.00
C1189  C     0.42761   0.76443   0.51901   0.00000  Uiso   1.00
C1190  C     0.59918   0.82250   0.96455   0.00000  Uiso   1.00
C1191  C     0.51077   0.97677   0.78346   0.00000  Uiso   1.00
C1192  C     0.48914   0.68954   0.71579   0.00000  Uiso   1.00
C1193  C     0.50813   0.68635   0.78748   0.00000  Uiso   1.00
C1194  C     0.49114   0.97983   0.71221   0.00000  Uiso   1.00
C1195  C     0.49827   0.70912   0.75241   0.00000  Uiso   1.00
C1196  C     0.50186   0.95730   0.74685   0.00000  Uiso   1.00
C1197  C     0.65085   0.80273   0.72763   0.00000  Uiso   1.00
C1198  C     0.34938   0.86427   0.77183   0.00000  Uiso   1.00
C1199  C     0.36538   0.80270   0.72768   0.00000  Uiso   1.00
C1200  C     0.63471   0.86413   0.77213   0.00000  Uiso   1.00
C1201  C     0.47001   0.83267   0.83825   0.00000  Uiso   1.00
C1202  C     0.53006   0.83296   0.66189   0.00000  Uiso   1.00
C1203  C     0.45313   0.82239   0.88828   0.00000  Uiso   1.00
C1204  C     0.54891   0.82975   0.61100   0.00000  Uiso   1.00
C1205  C     0.40037   0.78175   0.95423   0.00000  Uiso   1.00
C1206  C     0.61380   0.83844   0.53621   0.00000  Uiso   1.00
C1207  C     0.41000   0.80003   0.91017   0.00000  Uiso   1.00
C1208  C     0.59684   0.84075   0.58476   0.00000  Uiso   1.00
C1209  C     0.48641   0.82611   0.91067   0.00000  Uiso   1.00
C1210  C     0.51866   0.81457   0.58870   0.00000  Uiso   1.00
C1211  C     0.48071   0.80305   0.95126   0.00000  Uiso   1.00
C1212  C     0.53602   0.80833   0.54027   0.00000  Uiso   1.00
C1213  C     0.43561   0.78330   0.97536   0.00000  Uiso   1.00
C1214  C     0.58329   0.82324   0.51343   0.00000  Uiso   1.00
C1215  C     0.51826   0.80147   0.96954   0.00000  Uiso   1.00
C1216  C     0.50546   0.79225   0.51757   0.00000  Uiso   1.00
H1217  H     0.48098   0.80882   0.60945   0.00000  Uiso   1.00
H1218  H     0.51850   0.84527   0.89454   0.00000  Uiso   1.00
H1219  H     0.62073   0.85245   0.60171   0.00000  Uiso   1.00
H1220  H     0.38486   0.79511   0.89231   0.00000  Uiso   1.00
H1221  H     0.51744   0.95797   0.81014   0.00000  Uiso   1.00
H1222  H     0.48214   0.70817   0.68916   0.00000  Uiso   1.00
H1223  H     0.63930   0.77824   0.70969   0.00000  Uiso   1.00
H1224  H     0.36099   0.88879   0.78969   0.00000  Uiso   1.00
N1225  N     0.38093   0.83334   0.75001   0.00000  Uiso   1.00
N1226  N     0.61907   0.83332   0.74999   0.00000  Uiso   1.00
O1227  O     0.46179   0.89442   0.75001   0.00000  Uiso   1.00
O1228  O     0.53821   0.77225   0.75000   0.00000  Uiso   1.00
O1229  O     0.53823   0.89441   0.75000   0.00000  Uiso   1.00
O1230  O     0.46177   0.77226   0.75000   0.00000  Uiso   1.00
O1231  O     0.43994   0.83334   0.81613   0.00000  Uiso   1.00
O1232  O     0.56006   0.83333   0.68388   0.00000  Uiso   1.00
O1233  O     0.51639   0.83333   0.81612   0.00000  Uiso   1.00
O1234  O     0.48361   0.83334   0.68388   0.00000  Uiso   1.00
Zn1235 Zn    0.44896   0.83334   0.75000   0.00000  Uiso   1.00
Zn1236 Zn    0.55104   0.83333   0.75000   0.00000  Uiso   1.00
F1237  F     0.38648   0.74168   0.54042   0.00000  Uiso   1.00
F1238  F     0.64470   0.83568   0.93876   0.00000  Uiso   1.00
F1239  F     0.35763   0.76111   0.97484   0.00000  Uiso   1.00
F1240  F     0.65979   0.85164   0.51191   0.00000  Uiso   1.00
C1241  C     0.45546   0.74212   0.58270   0.00000  Uiso   1.00
O1242  O     0.49058   0.72668   0.58860   0.00000  Uiso   1.00
O1243  O     0.40891   0.73407   0.61508   0.00000  Uiso   1.00
H1244  H     0.40897   0.71504   0.64165   0.00000  Uiso   1.00
C1245  C     0.58959   0.79718   0.89182   0.00000  Uiso   1.00
O1246  O     0.56809   0.77281   0.87548   0.00000  Uiso   1.00
O1247  O     0.63604   0.81080   0.86392   0.00000  Uiso   1.00
H1248  H     0.64828   0.79640   0.83248   0.00000  Uiso   1.00
C1249  C     0.51232   0.70529   0.83010   0.00000  Uiso   1.00
O1250  O     0.49456   0.73932   0.84371   0.00000  Uiso   1.00
O1251  O     0.53447   0.68294   0.85627   0.00000  Uiso   1.00
H1252  H     0.53228   0.69759   0.88621   0.00000  Uiso   1.00
C1253  C     0.48389   0.95996   0.67140   0.00000  Uiso   1.00
O1254  O     0.50367   0.92700   0.65581   0.00000  Uiso   1.00
O1255  O     0.45531   0.97971   0.64984   0.00000  Uiso   1.00
H1256  H     0.45346   0.96350   0.62218   0.00000  Uiso   1.00
F1257  F     0.39604   0.77195   0.70531   0.00000  Uiso   1.00
F1258  F     0.60392   0.89463   0.79515   0.00000  Uiso   1.00
C1259  C     0.83420   0.91318   0.74810   0.00000  Uiso   1.00
C1260  C     0.83261   0.75338   0.75145   0.00000  Uiso   1.00
C1261  C     0.79551   0.76845   0.54052   0.00000  Uiso   1.00
C1262  C     0.90123   0.80953   0.94206   0.00000  Uiso   1.00
C1263  C     0.76094   0.76443   0.51901   0.00000  Uiso   1.00
C1264  C     0.93251   0.82250   0.96455   0.00000  Uiso   1.00
C1265  C     0.84410   0.97677   0.78346   0.00000  Uiso   1.00
C1266  C     0.82247   0.68954   0.71579   0.00000  Uiso   1.00
C1267  C     0.84147   0.68635   0.78748   0.00000  Uiso   1.00
C1268  C     0.82447   0.97983   0.71221   0.00000  Uiso   1.00
C1269  C     0.83161   0.70912   0.75241   0.00000  Uiso   1.00
C1270  C     0.83519   0.95730   0.74685   0.00000  Uiso   1.00
C1271  C     0.98419   0.80273   0.72763   0.00000  Uiso   1.00
C1272  C     0.68271   0.86427   0.77183   0.00000  Uiso   1.00
C1273  C     0.69871   0.80270   0.72768   0.00000  Uiso   1.00
C1274  C     0.96804   0.86413   0.77213   0.00000  Uiso   1.00
C1275  C     0.80334   0.83267   0.83825   0.00000  Uiso   1.00
C1276  C     0.86339   0.83296   0.66189   0.00000  Uiso   1.00
C1277  C     0.78646   0.82239   0.88828   0.00000  Uiso   1.00
C1278  C     0.88225   0.82975   0.61100   0.00000  Uiso   1.00
C1279  C     0.73370   0.78175   0.95423   0.00000  Uiso   1.00
C1280  C     0.94714   0.83844   0.53621   0.00000  Uiso   1.00
C1281  C     0.74334   0.80003   0.91017   0.00000  Uiso   1.00
C1282  C     0.93017   0.84075   0.58476   0.00000  Uiso   1.00
C1283  C     0.81974   0.82611   0.91067   0.00000  Uiso   1.00
C1284  C     0.85199   0.81457   0.58870   0.00000  Uiso   1.00
C1285  C     0.81405   0.80305   0.95126   0.00000  Uiso   1.00
C1286  C     0.86935   0.80833   0.54027   0.00000  Uiso   1.00
C1287  C     0.76894   0.78330   0.97536   0.00000  Uiso   1.00
C1288  C     0.91663   0.82324   0.51343   0.00000  Uiso   1.00
C1289  C     0.85159   0.80147   0.96954   0.00000  Uiso   1.00
C1290  C     0.83880   0.79225   0.51757   0.00000  Uiso   1.00
H1291  H     0.81431   0.80882   0.60945   0.00000  Uiso   1.00
H1292  H     0.85183   0.84527   0.89454   0.00000  Uiso   1.00
H1293  H     0.95406   0.85245   0.60171   0.00000  Uiso   1.00
H1294  H     0.71820   0.79511   0.89231   0.00000  Uiso   1.00
H1295  H     0.85077   0.95797   0.81014   0.00000  Uiso   1.00
H1296  H     0.81548   0.70817   0.68916   0.00000  Uiso   1.00
H1297  H     0.97263   0.77824   0.70969   0.00000  Uiso   1.00
H1298  H     0.69432   0.88879   0.78969   0.00000  Uiso   1.00
N1299  N     0.71426   0.83334   0.75001   0.00000  Uiso   1.00
N1300  N     0.95241   0.83332   0.74999   0.00000  Uiso   1.00
O1301  O     0.79512   0.89442   0.75001   0.00000  Uiso   1.00
O1302  O     0.87154   0.77225   0.75000   0.00000  Uiso   1.00
O1303  O     0.87157   0.89441   0.75000   0.00000  Uiso   1.00
O1304  O     0.79510   0.77226   0.75000   0.00000  Uiso   1.00
O1305  O     0.77328   0.83334   0.81613   0.00000  Uiso   1.00
O1306  O     0.89339   0.83333   0.68388   0.00000  Uiso   1.00
O1307  O     0.84972   0.83333   0.81612   0.00000  Uiso   1.00
O1308  O     0.81695   0.83334   0.68388   0.00000  Uiso   1.00
Zn1309 Zn    0.78229   0.83334   0.75000   0.00000  Uiso   1.00
Zn1310 Zn    0.88438   0.83333   0.75000   0.00000  Uiso   1.00
F1311  F     0.71981   0.74168   0.54042   0.00000  Uiso   1.00
F1312  F     0.97804   0.83568   0.93876   0.00000  Uiso   1.00
F1313  F     0.69096   0.76111   0.97484   0.00000  Uiso   1.00
F1314  F     0.99312   0.85164   0.51191   0.00000  Uiso   1.00
C1315  C     0.78880   0.74212   0.58270   0.00000  Uiso   1.00
O1316  O     0.82391   0.72668   0.58860   0.00000  Uiso   1.00
O1317  O     0.74224   0.73407   0.61508   0.00000  Uiso   1.00
H1318  H     0.74231   0.71504   0.64165   0.00000  Uiso   1.00
C1319  C     0.92293   0.79718   0.89182   0.00000  Uiso   1.00
O1320  O     0.90143   0.77281   0.87548   0.00000  Uiso   1.00
O1321  O     0.96937   0.81080   0.86392   0.00000  Uiso   1.00
H1322  H     0.98161   0.79640   0.83248   0.00000  Uiso   1.00
C1323  C     0.84565   0.70529   0.83010   0.00000  Uiso   1.00
O1324  O     0.82790   0.73932   0.84371   0.00000  Uiso   1.00
O1325  O     0.86780   0.68294   0.85627   0.00000  Uiso   1.00
H1326  H     0.86561   0.69759   0.88621   0.00000  Uiso   1.00
C1327  C     0.81722   0.95996   0.67140   0.00000  Uiso   1.00
O1328  O     0.83701   0.92700   0.65581   0.00000  Uiso   1.00
O1329  O     0.78864   0.97971   0.64984   0.00000  Uiso   1.00
H1330  H     0.78679   0.96350   0.62218   0.00000  Uiso   1.00
F1331  F     0.72937   0.77195   0.70531   0.00000  Uiso   1.00
F1332  F     0.93725   0.89463   0.79515   0.00000  Uiso   1.00
loop_
_geom_bond_atom_site_label_1
_geom_bond_atom_site_label_2
_geom_bond_distance
_geom_bond_site_symmetry_2
_ccdc_geom_bond_type
C1     O45     1.281   .     A
C1     C12     1.411   .     S
C1     O43     1.282   .     A
C2     O46     1.281   .     A
C2     C11     1.415   .     S
C2     O44     1.284   .     A
C3     C5      1.408   .     A
C3     C32     1.431   .     A
C3     C57     1.488   .     S
C4     C61     1.495   .     S
C4     C31     1.426   .     A
C4     C6      1.401   .     A
C5     F53     1.360   .     S
C5     C695    1.402   1_554 S
C6     F54     1.356   .     S
C6     C696    1.398   .     S
C7     H37     1.086   .     S
C7     C12     1.391   .     A
C7     C231    1.378   .     S
C8     C11     1.396   .     A
C8     H38     1.086   .     S
C8     C454    1.381   1_545 S
C9     C65     1.487   .     S
C9     C11     1.409   .     A
C9     C451    1.378   1_545 S
C10    C69     1.488   .     S
C10    C12     1.407   .     A
C10    C230    1.381   .     S
C13    N42     1.366   .     A
C13    H39     1.082   .     S
C13    C89     1.417   .     S
C14    H40     1.082   .     S
C14    N41     1.366   .     A
C14    C164    1.418   1_455 S
C15    F73     1.353   .     S
C15    N41     1.367   .     A
C15    C161    1.417   1_455 S
C16    F74     1.355   .     S
C16    N42     1.369   .     A
C16    C88     1.418   .     S
C17    O47     1.299   .     A
C17    C19     1.464   .     S
C17    O49     1.293   .     A
C18    O48     1.293   .     A
C18    O50     1.295   .     A
C18    C20     1.458   .     S
C19    C23     1.398   .     A
C19    C25     1.393   .     A
C20    C26     1.394   .     A
C20    C24     1.396   .     A
C21    F55     1.358   .     S
C21    C29     1.413   .     A
C21    C23     1.397   .     A
C22    F56     1.358   .     S
C22    C24     1.390   .     A
C22    C30     1.411   .     A
C23    H36     1.082   .     S
C24    H35     1.083   .     S
C25    H34     1.083   .     S
C25    C27     1.397   .     A
C26    H33     1.080   .     S
C26    C28     1.400   .     A
C27    C29     1.414   .     A
C27    C31     1.414   .     A
C28    C32     1.421   .     A
C28    C30     1.421   .     A
C29    C671    1.402   .     S
C30    C672    1.398   1_554 S
C31    C698    1.409   .     S
C32    C697    1.409   1_554 S
N41    Zn51    2.014   .     S
N42    Zn52    2.014   .     S
O43    Zn51    1.987   .     S
O44    Zn52    1.987   .     S
O45    Zn52    1.991   .     S
O46    Zn51    1.991   .     S
O47    Zn51    1.944   .     S
O48    Zn52    1.944   .     S
O49    Zn52    1.911   .     S
O50    Zn51    1.911   .     S
C57    O58     1.223   .     D
C57    O59     1.398   .     S
O59    H60     1.013   .     S
C61    O63     1.397   .     S
C61    O62     1.221   .     D
O63    H64     1.013   .     S
C65    O67     1.400   .     S
C65    O66     1.220   .     D
O67    H68     1.013   .     S
C69    O70     1.222   .     D
C69    O71     1.398   .     S
O71    H72     1.014   .     S
C75    O119    1.281   .     A
C75    C86     1.411   .     S
C75    O117    1.282   .     A
C76    O120    1.281   .     A
C76    C85     1.415   .     S
C76    O118    1.284   .     A
C77    C79     1.408   .     A
C77    C106    1.431   .     A
C77    C131    1.488   .     S
C78    C135    1.495   .     S
C78    C105    1.426   .     A
C78    C80     1.401   .     A
C79    F127    1.360   .     S
C79    C769    1.402   1_554 S
C80    F128    1.356   .     S
C80    C770    1.398   .     S
C81    H111    1.086   .     S
C81    C86     1.391   .     A
C81    C305    1.378   .     S
C82    C85     1.396   .     A
C82    H112    1.086   .     S
C82    C528    1.381   1_545 S
C83    C139    1.487   .     S
C83    C85     1.409   .     A
C83    C525    1.378   1_545 S
C84    C143    1.488   .     S
C84    C86     1.407   .     A
C84    C304    1.381   .     S
C87    N116    1.366   .     A
C87    H113    1.082   .     S
C87    C163    1.417   .     S
C88    H114    1.082   .     S
C88    N115    1.366   .     A
C89    F147    1.353   .     S
C89    N115    1.367   .     A
C90    F148    1.355   .     S
C90    N116    1.369   .     A
C90    C162    1.418   .     S
C91    O121    1.299   .     A
C91    C93     1.464   .     S
C91    O123    1.293   .     A
C92    O122    1.293   .     A
C92    O124    1.295   .     A
C92    C94     1.458   .     S
C93    C97     1.398   .     A
C93    C99     1.393   .     A
C94    C100    1.394   .     A
C94    C98     1.396   .     A
C95    F129    1.358   .     S
C95    C103    1.413   .     A
C95    C97     1.397   .     A
C96    F130    1.358   .     S
C96    C98     1.390   .     A
C96    C104    1.411   .     A
C97    H110    1.082   .     S
C98    H109    1.083   .     S
C99    H108    1.083   .     S
C99    C101    1.397   .     A
C100   H107    1.080   .     S
C100   C102    1.400   .     A
C101   C103    1.414   .     A
C101   C105    1.414   .     A
C102   C106    1.421   .     A
C102   C104    1.421   .     A
C103   C745    1.402   .     S
C104   C746    1.398   1_554 S
C105   C772    1.409   .     S
C106   C771    1.409   1_554 S
N115   Zn125   2.014   .     S
N116   Zn126   2.014   .     S
O117   Zn125   1.987   .     S
O118   Zn126   1.987   .     S
O119   Zn126   1.991   .     S
O120   Zn125   1.991   .     S
O121   Zn125   1.944   .     S
O122   Zn126   1.944   .     S
O123   Zn126   1.911   .     S
O124   Zn125   1.911   .     S
C131   O132    1.223   .     D
C131   O133    1.398   .     S
O133   H134    1.013   .     S
C135   O137    1.397   .     S
C135   O136    1.221   .     D
O137   H138    1.013   .     S
C139   O141    1.400   .     S
C139   O140    1.220   .     D
O141   H142    1.013   .     S
C143   O144    1.222   .     D
C143   O145    1.398   .     S
O145   H146    1.014   .     S
C149   O193    1.281   .     A
C149   C160    1.411   .     S
C149   O191    1.282   .     A
C150   O194    1.281   .     A
C150   C159    1.415   .     S
C150   O192    1.284   .     A
C151   C153    1.408   .     A
C151   C180    1.431   .     A
C151   C205    1.488   .     S
C152   C209    1.495   .     S
C152   C179    1.426   .     A
C152   C154    1.401   .     A
C153   F201    1.360   .     S
C153   C843    1.402   1_554 S
C154   F202    1.356   .     S
C154   C844    1.398   .     S
C155   H185    1.086   .     S
C155   C160    1.391   .     A
C155   C379    1.378   .     S
C156   C159    1.396   .     A
C156   H186    1.086   .     S
C156   C602    1.381   1_545 S
C157   C213    1.487   .     S
C157   C159    1.409   .     A
C157   C599    1.378   1_545 S
C158   C217    1.488   .     S
C158   C160    1.407   .     A
C158   C378    1.381   .     S
C161   N190    1.366   .     A
C161   H187    1.082   .     S
C161   C15     1.417   1_655 S
C162   H188    1.082   .     S
C162   N189    1.366   .     A
C163   F221    1.353   .     S
C163   N189    1.367   .     A
C164   F222    1.355   .     S
C164   N190    1.369   .     A
C164   C14     1.418   1_655 S
C165   O195    1.299   .     A
C165   C167    1.464   .     S
C165   O197    1.293   .     A
C166   O196    1.293   .     A
C166   O198    1.295   .     A
C166   C168    1.458   .     S
C167   C171    1.398   .     A
C167   C173    1.393   .     A
C168   C174    1.394   .     A
C168   C172    1.396   .     A
C169   F203    1.358   .     S
C169   C177    1.413   .     A
C169   C171    1.397   .     A
C170   F204    1.358   .     S
C170   C172    1.390   .     A
C170   C178    1.411   .     A
C171   H184    1.082   .     S
C172   H183    1.083   .     S
C173   H182    1.083   .     S
C173   C175    1.397   .     A
C174   H181    1.080   .     S
C174   C176    1.400   .     A
C175   C177    1.414   .     A
C175   C179    1.414   .     A
C176   C180    1.421   .     A
C176   C178    1.421   .     A
C177   C819    1.402   .     S
C178   C820    1.398   1_554 S
C179   C846    1.409   .     S
C180   C845    1.409   1_554 S
N189   Zn199   2.014   .     S
N190   Zn200   2.014   .     S
O191   Zn199   1.987   .     S
O192   Zn200   1.987   .     S
O193   Zn200   1.991   .     S
O194   Zn199   1.991   .     S
O195   Zn199   1.944   .     S
O196   Zn200   1.944   .     S
O197   Zn200   1.911   .     S
O198   Zn199   1.911   .     S
C205   O206    1.223   .     D
C205   O207    1.398   .     S
O207   H208    1.013   .     S
C209   O211    1.397   .     S
C209   O210    1.221   .     D
O211   H212    1.013   .     S
C213   O215    1.400   .     S
C213   O214    1.220   .     D
O215   H216    1.013   .     S
C217   O218    1.222   .     D
C217   O219    1.398   .     S
O219   H220    1.014   .     S
C223   O267    1.281   .     A
C223   C234    1.411   .     S
C223   O265    1.282   .     A
C224   O268    1.281   .     A
C224   C233    1.415   .     S
C224   O266    1.284   .     A
C225   C227    1.408   .     A
C225   C254    1.431   .     A
C225   C279    1.488   .     S
C226   C283    1.495   .     S
C226   C253    1.426   .     A
C226   C228    1.401   .     A
C227   F275    1.360   .     S
C227   C917    1.402   1_554 S
C228   F276    1.356   .     S
C228   C918    1.398   .     S
C229   H259    1.086   .     S
C229   C234    1.391   .     A
C229   C453    1.378   .     S
C230   C233    1.396   .     A
C230   H260    1.086   .     S
C231   C287    1.487   .     S
C231   C233    1.409   .     A
C232   C291    1.488   .     S
C232   C234    1.407   .     A
C232   C452    1.381   .     S
C235   N264    1.366   .     A
C235   H261    1.082   .     S
C235   C311    1.417   .     S
C236   H262    1.082   .     S
C236   N263    1.366   .     A
C236   C386    1.418   1_455 S
C237   F295    1.353   .     S
C237   N263    1.367   .     A
C237   C383    1.417   1_455 S
C238   F296    1.355   .     S
C238   N264    1.369   .     A
C238   C310    1.418   .     S
C239   O269    1.299   .     A
C239   C241    1.464   .     S
C239   O271    1.293   .     A
C240   O270    1.293   .     A
C240   O272    1.295   .     A
C240   C242    1.458   .     S
C241   C245    1.398   .     A
C241   C247    1.393   .     A
C242   C248    1.394   .     A
C242   C246    1.396   .     A
C243   F277    1.358   .     S
C243   C251    1.413   .     A
C243   C245    1.397   .     A
C244   F278    1.358   .     S
C244   C246    1.390   .     A
C244   C252    1.411   .     A
C245   H258    1.082   .     S
C246   H257    1.083   .     S
C247   H256    1.083   .     S
C247   C249    1.397   .     A
C248   H255    1.080   .     S
C248   C250    1.400   .     A
C249   C251    1.414   .     A
C249   C253    1.414   .     A
C250   C254    1.421   .     A
C250   C252    1.421   .     A
C251   C893    1.402   .     S
C252   C894    1.398   1_554 S
C253   C920    1.409   .     S
C254   C919    1.409   1_554 S
N263   Zn273   2.014   .     S
N264   Zn274   2.014   .     S
O265   Zn273   1.987   .     S
O266   Zn274   1.987   .     S
O267   Zn274   1.991   .     S
O268   Zn273   1.991   .     S
O269   Zn273   1.944   .     S
O270   Zn274   1.944   .     S
O271   Zn274   1.911   .     S
O272   Zn273   1.911   .     S
C279   O280    1.223   .     D
C279   O281    1.398   .     S
O281   H282    1.013   .     S
C283   O285    1.397   .     S
C283   O284    1.221   .     D
O285   H286    1.013   .     S
C287   O289    1.400   .     S
C287   O288    1.220   .     D
O289   H290    1.013   .     S
C291   O292    1.222   .     D
C291   O293    1.398   .     S
O293   H294    1.014   .     S
C297   O341    1.281   .     A
C297   C308    1.411   .     S
C297   O339    1.282   .     A
C298   O342    1.281   .     A
C298   C307    1.415   .     S
C298   O340    1.284   .     A
C299   C301    1.408   .     A
C299   C328    1.431   .     A
C299   C353    1.488   .     S
C300   C357    1.495   .     S
C300   C327    1.426   .     A
C300   C302    1.401   .     A
C301   F349    1.360   .     S
C301   C991    1.402   1_554 S
C302   F350    1.356   .     S
C302   C992    1.398   .     S
C303   H333    1.086   .     S
C303   C308    1.391   .     A
C303   C527    1.378   .     S
C304   C307    1.396   .     A
C304   H334    1.086   .     S
C305   C361    1.487   .     S
C305   C307    1.409   .     A
C306   C365    1.488   .     S
C306   C308    1.407   .     A
C306   C526    1.381   .     S
C309   N338    1.366   .     A
C309   H335    1.082   .     S
C309   C385    1.417   .     S
C310   H336    1.082   .     S
C310   N337    1.366   .     A
C311   F369    1.353   .     S
C311   N337    1.367   .     A
C312   F370    1.355   .     S
C312   N338    1.369   .     A
C312   C384    1.418   .     S
C313   O343    1.299   .     A
C313   C315    1.464   .     S
C313   O345    1.293   .     A
C314   O344    1.293   .     A
C314   O346    1.295   .     A
C314   C316    1.458   .     S
C315   C319    1.398   .     A
C315   C321    1.393   .     A
C316   C322    1.394   .     A
C316   C320    1.396   .     A
C317   F351    1.358   .     S
C317   C325    1.413   .     A
C317   C319    1.397   .     A
C318   F352    1.358   .     S
C318   C320    1.390   .     A
C318   C326    1.411   .     A
C319   H332    1.082   .     S
C320   H331    1.083   .     S
C321   H330    1.083   .     S
C321   C323    1.397   .     A
C322   H329    1.080   .     S
C322   C324    1.400   .     A
C323   C325    1.414   .     A
C323   C327    1.414   .     A
C324   C328    1.421   .     A
C324   C326    1.421   .     A
C325   C967    1.402   .     S
C326   C968    1.398   1_554 S
C327   C994    1.409   .     S
C328   C993    1.409   1_554 S
N337   Zn347   2.014   .     S
N338   Zn348   2.014   .     S
O339   Zn347   1.987   .     S
O340   Zn348   1.987   .     S
O341   Zn348   1.991   .     S
O342   Zn347   1.991   .     S
O343   Zn347   1.944   .     S
O344   Zn348   1.944   .     S
O345   Zn348   1.911   .     S
O346   Zn347   1.911   .     S
C353   O354    1.223   .     D
C353   O355    1.398   .     S
O355   H356    1.013   .     S
C357   O359    1.397   .     S
C357   O358    1.221   .     D
O359   H360    1.013   .     S
C361   O363    1.400   .     S
C361   O362    1.220   .     D
O363   H364    1.013   .     S
C365   O366    1.222   .     D
C365   O367    1.398   .     S
O367   H368    1.014   .     S
C371   O415    1.281   .     A
C371   C382    1.411   .     S
C371   O413    1.282   .     A
C372   O416    1.281   .     A
C372   C381    1.415   .     S
C372   O414    1.284   .     A
C373   C375    1.408   .     A
C373   C402    1.431   .     A
C373   C427    1.488   .     S
C374   C431    1.495   .     S
C374   C401    1.426   .     A
C374   C376    1.401   .     A
C375   F423    1.360   .     S
C375   C1065   1.402   1_554 S
C376   F424    1.356   .     S
C376   C1066   1.398   .     S
C377   H407    1.086   .     S
C377   C382    1.391   .     A
C377   C601    1.378   .     S
C378   C381    1.396   .     A
C378   H408    1.086   .     S
C379   C435    1.487   .     S
C379   C381    1.409   .     A
C380   C439    1.488   .     S
C380   C382    1.407   .     A
C380   C600    1.381   .     S
C383   N412    1.366   .     A
C383   H409    1.082   .     S
C383   C237    1.417   1_655 S
C384   H410    1.082   .     S
C384   N411    1.366   .     A
C385   F443    1.353   .     S
C385   N411    1.367   .     A
C386   F444    1.355   .     S
C386   N412    1.369   .     A
C386   C236    1.418   1_655 S
C387   O417    1.299   .     A
C387   C389    1.464   .     S
C387   O419    1.293   .     A
C388   O418    1.293   .     A
C388   O420    1.295   .     A
C388   C390    1.458   .     S
C389   C393    1.398   .     A
C389   C395    1.393   .     A
C390   C396    1.394   .     A
C390   C394    1.396   .     A
C391   F425    1.358   .     S
C391   C399    1.413   .     A
C391   C393    1.397   .     A
C392   F426    1.358   .     S
C392   C394    1.390   .     A
C392   C400    1.411   .     A
C393   H406    1.082   .     S
C394   H405    1.083   .     S
C395   H404    1.083   .     S
C395   C397    1.397   .     A
C396   H403    1.080   .     S
C396   C398    1.400   .     A
C397   C399    1.414   .     A
C397   C401    1.414   .     A
C398   C402    1.421   .     A
C398   C400    1.421   .     A
C399   C1041   1.402   .     S
C400   C1042   1.398   1_554 S
C401   C1068   1.409   .     S
C402   C1067   1.409   1_554 S
N411   Zn421   2.014   .     S
N412   Zn422   2.014   .     S
O413   Zn421   1.987   .     S
O414   Zn422   1.987   .     S
O415   Zn422   1.991   .     S
O416   Zn421   1.991   .     S
O417   Zn421   1.944   .     S
O418   Zn422   1.944   .     S
O419   Zn422   1.911   .     S
O420   Zn421   1.911   .     S
C427   O428    1.223   .     D
C427   O429    1.398   .     S
O429   H430    1.013   .     S
C431   O433    1.397   .     S
C431   O432    1.221   .     D
O433   H434    1.013   .     S
C435   O437    1.400   .     S
C435   O436    1.220   .     D
O437   H438    1.013   .     S
C439   O440    1.222   .     D
C439   O441    1.398   .     S
O441   H442    1.014   .     S
C445   O489    1.281   .     A
C445   C456    1.411   .     S
C445   O487    1.282   .     A
C446   O490    1.281   .     A
C446   C455    1.415   .     S
C446   O488    1.284   .     A
C447   C449    1.408   .     A
C447   C476    1.431   .     A
C447   C501    1.488   .     S
C448   C505    1.495   .     S
C448   C475    1.426   .     A
C448   C450    1.401   .     A
C449   F497    1.360   .     S
C449   C1139   1.402   1_554 S
C450   F498    1.356   .     S
C450   C1140   1.398   .     S
C451   H481    1.086   .     S
C451   C456    1.391   .     A
C451   C9      1.378   1_565 S
C452   C455    1.396   .     A
C452   H482    1.086   .     S
C453   C509    1.487   .     S
C453   C455    1.409   .     A
C454   C513    1.488   .     S
C454   C456    1.407   .     A
C454   C8      1.381   1_565 S
C457   N486    1.366   .     A
C457   H483    1.082   .     S
C457   C533    1.417   .     S
C458   H484    1.082   .     S
C458   N485    1.366   .     A
C458   C608    1.418   1_455 S
C459   F517    1.353   .     S
C459   N485    1.367   .     A
C459   C605    1.417   1_455 S
C460   F518    1.355   .     S
C460   N486    1.369   .     A
C460   C532    1.418   .     S
C461   O491    1.299   .     A
C461   C463    1.464   .     S
C461   O493    1.293   .     A
C462   O492    1.293   .     A
C462   O494    1.295   .     A
C462   C464    1.458   .     S
C463   C467    1.398   .     A
C463   C469    1.393   .     A
C464   C470    1.394   .     A
C464   C468    1.396   .     A
C465   F499    1.358   .     S
C465   C473    1.413   .     A
C465   C467    1.397   .     A
C466   F500    1.358   .     S
C466   C468    1.390   .     A
C466   C474    1.411   .     A
C467   H480    1.082   .     S
C468   H479    1.083   .     S
C469   H478    1.083   .     S
C469   C471    1.397   .     A
C470   H477    1.080   .     S
C470   C472    1.400   .     A
C471   C473    1.414   .     A
C471   C475    1.414   .     A
C472   C476    1.421   .     A
C472   C474    1.421   .     A
C473   C1115   1.402   .     S
C474   C1116   1.398   1_554 S
C475   C1142   1.409   .     S
C476   C1141   1.409   1_554 S
N485   Zn495   2.014   .     S
N486   Zn496   2.014   .     S
O487   Zn495   1.987   .     S
O488   Zn496   1.987   .     S
O489   Zn496   1.991   .     S
O490   Zn495   1.991   .     S
O491   Zn495   1.944   .     S
O492   Zn496   1.944   .     S
O493   Zn496   1.911   .     S
O494   Zn495   1.911   .     S
C501   O502    1.223   .     D
C501   O503    1.398   .     S
O503   H504    1.013   .     S
C505   O507    1.397   .     S
C505   O506    1.221   .     D
O507   H508    1.013   .     S
C509   O511    1.400   .     S
C509   O510    1.220   .     D
O511   H512    1.013   .     S
C513   O514    1.222   .     D
C513   O515    1.398   .     S
O515   H516    1.014   .     S
C519   O563    1.281   .     A
C519   C530    1.411   .     S
C519   O561    1.282   .     A
C520   O564    1.281   .     A
C520   C529    1.415   .     S
C520   O562    1.284   .     A
C521   C523    1.408   .     A
C521   C550    1.431   .     A
C521   C575    1.488   .     S
C522   C579    1.495   .     S
C522   C549    1.426   .     A
C522   C524    1.401   .     A
C523   F571    1.360   .     S
C523   C1213   1.402   1_554 S
C524   F572    1.356   .     S
C524   C1214   1.398   .     S
C525   H555    1.086   .     S
C525   C530    1.391   .     A
C525   C83     1.378   1_565 S
C526   C529    1.396   .     A
C526   H556    1.086   .     S
C527   C583    1.487   .     S
C527   C529    1.409   .     A
C528   C587    1.488   .     S
C528   C530    1.407   .     A
C528   C82     1.381   1_565 S
C531   N560    1.366   .     A
C531   H557    1.082   .     S
C531   C607    1.417   .     S
C532   H558    1.082   .     S
C532   N559    1.366   .     A
C533   F591    1.353   .     S
C533   N559    1.367   .     A
C534   F592    1.355   .     S
C534   N560    1.369   .     A
C534   C606    1.418   .     S
C535   O565    1.299   .     A
C535   C537    1.464   .     S
C535   O567    1.293   .     A
C536   O566    1.293   .     A
C536   O568    1.295   .     A
C536   C538    1.458   .     S
C537   C541    1.398   .     A
C537   C543    1.393   .     A
C538   C544    1.394   .     A
C538   C542    1.396   .     A
C539   F573    1.358   .     S
C539   C547    1.413   .     A
C539   C541    1.397   .     A
C540   F574    1.358   .     S
C540   C542    1.390   .     A
C540   C548    1.411   .     A
C541   H554    1.082   .     S
C542   H553    1.083   .     S
C543   H552    1.083   .     S
C543   C545    1.397   .     A
C544   H551    1.080   .     S
C544   C546    1.400   .     A
C545   C547    1.414   .     A
C545   C549    1.414   .     A
C546   C550    1.421   .     A
C546   C548    1.421   .     A
C547   C1189   1.402   .     S
C548   C1190   1.398   1_554 S
C549   C1216   1.409   .     S
C550   C1215   1.409   1_554 S
N559   Zn569   2.014   .     S
N560   Zn570   2.014   .     S
O561   Zn569   1.987   .     S
O562   Zn570   1.987   .     S
O563   Zn570   1.991   .     S
O564   Zn569   1.991   .     S
O565   Zn569   1.944   .     S
O566   Zn570   1.944   .     S
O567   Zn570   1.911   .     S
O568   Zn569   1.911   .     S
C575   O576    1.223   .     D
C575   O577    1.398   .     S
O577   H578    1.013   .     S
C579   O581    1.397   .     S
C579   O580    1.221   .     D
O581   H582    1.013   .     S
C583   O585    1.400   .     S
C583   O584    1.220   .     D
O585   H586    1.013   .     S
C587   O588    1.222   .     D
C587   O589    1.398   .     S
O589   H590    1.014   .     S
C593   O637    1.281   .     A
C593   C604    1.411   .     S
C593   O635    1.282   .     A
C594   O638    1.281   .     A
C594   C603    1.415   .     S
C594   O636    1.284   .     A
C595   C597    1.408   .     A
C595   C624    1.431   .     A
C595   C649    1.488   .     S
C596   C653    1.495   .     S
C596   C623    1.426   .     A
C596   C598    1.401   .     A
C597   F645    1.360   .     S
C597   C1287   1.402   1_554 S
C598   F646    1.356   .     S
C598   C1288   1.398   .     S
C599   H629    1.086   .     S
C599   C604    1.391   .     A
C599   C157    1.378   1_565 S
C600   C603    1.396   .     A
C600   H630    1.086   .     S
C601   C657    1.487   .     S
C601   C603    1.409   .     A
C602   C661    1.488   .     S
C602   C604    1.407   .     A
C602   C156    1.381   1_565 S
C605   N634    1.366   .     A
C605   H631    1.082   .     S
C605   C459    1.417   1_655 S
C606   H632    1.082   .     S
C606   N633    1.366   .     A
C607   F665    1.353   .     S
C607   N633    1.367   .     A
C608   F666    1.355   .     S
C608   N634    1.369   .     A
C608   C458    1.418   1_655 S
C609   O639    1.299   .     A
C609   C611    1.464   .     S
C609   O641    1.293   .     A
C610   O640    1.293   .     A
C610   O642    1.295   .     A
C610   C612    1.458   .     S
C611   C615    1.398   .     A
C611   C617    1.393   .     A
C612   C618    1.394   .     A
C612   C616    1.396   .     A
C613   F647    1.358   .     S
C613   C621    1.413   .     A
C613   C615    1.397   .     A
C614   F648    1.358   .     S
C614   C616    1.390   .     A
C614   C622    1.411   .     A
C615   H628    1.082   .     S
C616   H627    1.083   .     S
C617   H626    1.083   .     S
C617   C619    1.397   .     A
C618   H625    1.080   .     S
C618   C620    1.400   .     A
C619   C621    1.414   .     A
C619   C623    1.414   .     A
C620   C624    1.421   .     A
C620   C622    1.421   .     A
C621   C1263   1.402   .     S
C622   C1264   1.398   1_554 S
C623   C1290   1.409   .     S
C624   C1289   1.409   1_554 S
N633   Zn643   2.014   .     S
N634   Zn644   2.014   .     S
O635   Zn643   1.987   .     S
O636   Zn644   1.987   .     S
O637   Zn644   1.991   .     S
O638   Zn643   1.991   .     S
O639   Zn643   1.944   .     S
O640   Zn644   1.944   .     S
O641   Zn644   1.911   .     S
O642   Zn643   1.911   .     S
C649   O650    1.223   .     D
C649   O651    1.398   .     S
O651   H652    1.013   .     S
C653   O655    1.397   .     S
C653   O654    1.221   .     D
O655   H656    1.013   .     S
C657   O659    1.400   .     S
C657   O658    1.220   .     D
O659   H660    1.013   .     S
C661   O662    1.222   .     D
C661   O663    1.398   .     S
O663   H664    1.014   .     S
C667   O711    1.281   .     A
C667   C678    1.411   .     S
C667   O709    1.282   .     A
C668   O712    1.281   .     A
C668   C677    1.415   .     S
C668   O710    1.284   .     A
C669   C671    1.408   .     A
C669   C698    1.431   .     A
C669   C723    1.488   .     S
C670   C727    1.495   .     S
C670   C697    1.426   .     A
C670   C672    1.401   .     A
C671   F719    1.360   .     S
C672   F720    1.356   .     S
C672   C30     1.398   1_556 S
C673   H703    1.086   .     S
C673   C678    1.391   .     A
C673   C897    1.378   .     S
C674   C677    1.396   .     A
C674   H704    1.086   .     S
C674   C1120   1.381   1_545 S
C675   C731    1.487   .     S
C675   C677    1.409   .     A
C675   C1117   1.378   1_545 S
C676   C735    1.488   .     S
C676   C678    1.407   .     A
C676   C896    1.381   .     S
C679   N708    1.366   .     A
C679   H705    1.082   .     S
C679   C755    1.417   .     S
C680   H706    1.082   .     S
C680   N707    1.366   .     A
C680   C830    1.418   1_455 S
C681   F739    1.353   .     S
C681   N707    1.367   .     A
C681   C827    1.417   1_455 S
C682   F740    1.355   .     S
C682   N708    1.369   .     A
C682   C754    1.418   .     S
C683   O713    1.299   .     A
C683   C685    1.464   .     S
C683   O715    1.293   .     A
C684   O714    1.293   .     A
C684   O716    1.295   .     A
C684   C686    1.458   .     S
C685   C689    1.398   .     A
C685   C691    1.393   .     A
C686   C692    1.394   .     A
C686   C690    1.396   .     A
C687   F721    1.358   .     S
C687   C695    1.413   .     A
C687   C689    1.397   .     A
C688   F722    1.358   .     S
C688   C690    1.390   .     A
C688   C696    1.411   .     A
C689   H702    1.082   .     S
C690   H701    1.083   .     S
C691   H700    1.083   .     S
C691   C693    1.397   .     A
C692   H699    1.080   .     S
C692   C694    1.400   .     A
C693   C695    1.414   .     A
C693   C697    1.414   .     A
C694   C698    1.421   .     A
C694   C696    1.421   .     A
C695   C5      1.402   1_556 S
C697   C32     1.409   1_556 S
N707   Zn717   2.014   .     S
N708   Zn718   2.014   .     S
O709   Zn717   1.987   .     S
O710   Zn718   1.987   .     S
O711   Zn718   1.991   .     S
O712   Zn717   1.991   .     S
O713   Zn717   1.944   .     S
O714   Zn718   1.944   .     S
O715   Zn718   1.911   .     S
O716   Zn717   1.911   .     S
C723   O724    1.223   .     D
C723   O725    1.398   .     S
O725   H726    1.013   .     S
C727   O729    1.397   .     S
C727   O728    1.221   .     D
O729   H730    1.013   .     S
C731   O733    1.400   .     S
C731   O732    1.220   .     D
O733   H734    1.013   .     S
C735   O736    1.222   .     D
C735   O737    1.398   .     S
O737   H738    1.014   .     S
C741   O785    1.281   .     A
C741   C752    1.411   .     S
C741   O783    1.282   .     A
C742   O786    1.281   .     A
C742   C751    1.415   .     S
C742   O784    1.284   .     A
C743   C745    1.408   .     A
C743   C772    1.431   .     A
C743   C797    1.488   .     S
C744   C801    1.495   .     S
C744   C771    1.426   .     A
C744   C746    1.401   .     A
C745   F793    1.360   .     S
C746   F794    1.356   .     S
C746   C104    1.398   1_556 S
C747   H777    1.086   .     S
C747   C752    1.391   .     A
C747   C971    1.378   .     S
C748   C751    1.396   .     A
C748   H778    1.086   .     S
C748   C1194   1.381   1_545 S
C749   C805    1.487   .     S
C749   C751    1.409   .     A
C749   C1191   1.378   1_545 S
C750   C809    1.488   .     S
C750   C752    1.407   .     A
C750   C970    1.381   .     S
C753   N782    1.366   .     A
C753   H779    1.082   .     S
C753   C829    1.417   .     S
C754   H780    1.082   .     S
C754   N781    1.366   .     A
C755   F813    1.353   .     S
C755   N781    1.367   .     A
C756   F814    1.355   .     S
C756   N782    1.369   .     A
C756   C828    1.418   .     S
C757   O787    1.299   .     A
C757   C759    1.464   .     S
C757   O789    1.293   .     A
C758   O788    1.293   .     A
C758   O790    1.295   .     A
C758   C760    1.458   .     S
C759   C763    1.398   .     A
C759   C765    1.393   .     A
C760   C766    1.394   .     A
C760   C764    1.396   .     A
C761   F795    1.358   .     S
C761   C769    1.413   .     A
C761   C763    1.397   .     A
C762   F796    1.358   .     S
C762   C764    1.390   .     A
C762   C770    1.411   .     A
C763   H776    1.082   .     S
C764   H775    1.083   .     S
C765   H774    1.083   .     S
C765   C767    1.397   .     A
C766   H773    1.080   .     S
C766   C768    1.400   .     A
C767   C769    1.414   .     A
C767   C771    1.414   .     A
C768   C772    1.421   .     A
C768   C770    1.421   .     A
C769   C79     1.402   1_556 S
C771   C106    1.409   1_556 S
N781   Zn791   2.014   .     S
N782   Zn792   2.014   .     S
O783   Zn791   1.987   .     S
O784   Zn792   1.987   .     S
O785   Zn792   1.991   .     S
O786   Zn791   1.991   .     S
O787   Zn791   1.944   .     S
O788   Zn792   1.944   .     S
O789   Zn792   1.911   .     S
O790   Zn791   1.911   .     S
C797   O798    1.223   .     D
C797   O799    1.398   .     S
O799   H800    1.013   .     S
C801   O803    1.397   .     S
C801   O802    1.221   .     D
O803   H804    1.013   .     S
C805   O807    1.400   .     S
C805   O806    1.220   .     D
O807   H808    1.013   .     S
C809   O810    1.222   .     D
C809   O811    1.398   .     S
O811   H812    1.014   .     S
C815   O859    1.281   .     A
C815   C826    1.411   .     S
C815   O857    1.282   .     A
C816   O860    1.281   .     A
C816   C825    1.415   .     S
C816   O858    1.284   .     A
C817   C819    1.408   .     A
C817   C846    1.431   .     A
C817   C871    1.488   .     S
C818   C875    1.495   .     S
C818   C845    1.426   .     A
C818   C820    1.401   .     A
C819   F867    1.360   .     S
C820   F868    1.356   .     S
C820   C178    1.398   1_556 S
C821   H851    1.086   .     S
C821   C826    1.391   .     A
C821   C1045   1.378   .     S
C822   C825    1.396   .     A
C822   H852    1.086   .     S
C822   C1268   1.381   1_545 S
C823   C879    1.487   .     S
C823   C825    1.409   .     A
C823   C1265   1.378   1_545 S
C824   C883    1.488   .     S
C824   C826    1.407   .     A
C824   C1044   1.381   .     S
C827   N856    1.366   .     A
C827   H853    1.082   .     S
C827   C681    1.417   1_655 S
C828   H854    1.082   .     S
C828   N855    1.366   .     A
C829   F887    1.353   .     S
C829   N855    1.367   .     A
C830   F888    1.355   .     S
C830   N856    1.369   .     A
C830   C680    1.418   1_655 S
C831   O861    1.299   .     A
C831   C833    1.464   .     S
C831   O863    1.293   .     A
C832   O862    1.293   .     A
C832   O864    1.295   .     A
C832   C834    1.458   .     S
C833   C837    1.398   .     A
C833   C839    1.393   .     A
C834   C840    1.394   .     A
C834   C838    1.396   .     A
C835   F869    1.358   .     S
C835   C843    1.413   .     A
C835   C837    1.397   .     A
C836   F870    1.358   .     S
C836   C838    1.390   .     A
C836   C844    1.411   .     A
C837   H850    1.082   .     S
C838   H849    1.083   .     S
C839   H848    1.083   .     S
C839   C841    1.397   .     A
C840   H847    1.080   .     S
C840   C842    1.400   .     A
C841   C843    1.414   .     A
C841   C845    1.414   .     A
C842   C846    1.421   .     A
C842   C844    1.421   .     A
C843   C153    1.402   1_556 S
C845   C180    1.409   1_556 S
N855   Zn865   2.014   .     S
N856   Zn866   2.014   .     S
O857   Zn865   1.987   .     S
O858   Zn866   1.987   .     S
O859   Zn866   1.991   .     S
O860   Zn865   1.991   .     S
O861   Zn865   1.944   .     S
O862   Zn866   1.944   .     S
O863   Zn866   1.911   .     S
O864   Zn865   1.911   .     S
C871   O872    1.223   .     D
C871   O873    1.398   .     S
O873   H874    1.013   .     S
C875   O877    1.397   .     S
C875   O876    1.221   .     D
O877   H878    1.013   .     S
C879   O881    1.400   .     S
C879   O880    1.220   .     D
O881   H882    1.013   .     S
C883   O884    1.222   .     D
C883   O885    1.398   .     S
O885   H886    1.014   .     S
C889   O933    1.281   .     A
C889   C900    1.411   .     S
C889   O931    1.282   .     A
C890   O934    1.281   .     A
C890   C899    1.415   .     S
C890   O932    1.284   .     A
C891   C893    1.408   .     A
C891   C920    1.431   .     A
C891   C945    1.488   .     S
C892   C949    1.495   .     S
C892   C919    1.426   .     A
C892   C894    1.401   .     A
C893   F941    1.360   .     S
C894   F942    1.356   .     S
C894   C252    1.398   1_556 S
C895   H925    1.086   .     S
C895   C900    1.391   .     A
C895   C1119   1.378   .     S
C896   C899    1.396   .     A
C896   H926    1.086   .     S
C897   C953    1.487   .     S
C897   C899    1.409   .     A
C898   C957    1.488   .     S
C898   C900    1.407   .     A
C898   C1118   1.381   .     S
C901   N930    1.366   .     A
C901   H927    1.082   .     S
C901   C977    1.417   .     S
C902   H928    1.082   .     S
C902   N929    1.366   .     A
C902   C1052   1.418   1_455 S
C903   F961    1.353   .     S
C903   N929    1.367   .     A
C903   C1049   1.417   1_455 S
C904   F962    1.355   .     S
C904   N930    1.369   .     A
C904   C976    1.418   .     S
C905   O935    1.299   .     A
C905   C907    1.464   .     S
C905   O937    1.293   .     A
C906   O936    1.293   .     A
C906   O938    1.295   .     A
C906   C908    1.458   .     S
C907   C911    1.398   .     A
C907   C913    1.393   .     A
C908   C914    1.394   .     A
C908   C912    1.396   .     A
C909   F943    1.358   .     S
C909   C917    1.413   .     A
C909   C911    1.397   .     A
C910   F944    1.358   .     S
C910   C912    1.390   .     A
C910   C918    1.411   .     A
C911   H924    1.082   .     S
C912   H923    1.083   .     S
C913   H922    1.083   .     S
C913   C915    1.397   .     A
C914   H921    1.080   .     S
C914   C916    1.400   .     A
C915   C917    1.414   .     A
C915   C919    1.414   .     A
C916   C920    1.421   .     A
C916   C918    1.421   .     A
C917   C227    1.402   1_556 S
C919   C254    1.409   1_556 S
N929   Zn939   2.014   .     S
N930   Zn940   2.014   .     S
O931   Zn939   1.987   .     S
O932   Zn940   1.987   .     S
O933   Zn940   1.991   .     S
O934   Zn939   1.991   .     S
O935   Zn939   1.944   .     S
O936   Zn940   1.944   .     S
O937   Zn940   1.911   .     S
O938   Zn939   1.911   .     S
C945   O946    1.223   .     D
C945   O947    1.398   .     S
O947   H948    1.013   .     S
C949   O951    1.397   .     S
C949   O950    1.221   .     D
O951   H952    1.013   .     S
C953   O955    1.400   .     S
C953   O954    1.220   .     D
O955   H956    1.013   .     S
C957   O958    1.222   .     D
C957   O959    1.398   .     S
O959   H960    1.014   .     S
C963   O1007   1.281   .     A
C963   C974    1.411   .     S
C963   O1005   1.282   .     A
C964   O1008   1.281   .     A
C964   C973    1.415   .     S
C964   O1006   1.284   .     A
C965   C967    1.408   .     A
C965   C994    1.431   .     A
C965   C1019   1.488   .     S
C966   C1023   1.495   .     S
C966   C993    1.426   .     A
C966   C968    1.401   .     A
C967   F1015   1.360   .     S
C968   F1016   1.356   .     S
C968   C326    1.398   1_556 S
C969   H999    1.086   .     S
C969   C974    1.391   .     A
C969   C1193   1.378   .     S
C970   C973    1.396   .     A
C970   H1000   1.086   .     S
C971   C1027   1.487   .     S
C971   C973    1.409   .     A
C972   C1031   1.488   .     S
C972   C974    1.407   .     A
C972   C1192   1.381   .     S
C975   N1004   1.366   .     A
C975   H1001   1.082   .     S
C975   C1051   1.417   .     S
C976   H1002   1.082   .     S
C976   N1003   1.366   .     A
C977   F1035   1.353   .     S
C977   N1003   1.367   .     A
C978   F1036   1.355   .     S
C978   N1004   1.369   .     A
C978   C1050   1.418   .     S
C979   O1009   1.299   .     A
C979   C981    1.464   .     S
C979   O1011   1.293   .     A
C980   O1010   1.293   .     A
C980   O1012   1.295   .     A
C980   C982    1.458   .     S
C981   C985    1.398   .     A
C981   C987    1.393   .     A
C982   C988    1.394   .     A
C982   C986    1.396   .     A
C983   F1017   1.358   .     S
C983   C991    1.413   .     A
C983   C985    1.397   .     A
C984   F1018   1.358   .     S
C984   C986    1.390   .     A
C984   C992    1.411   .     A
C985   H998    1.082   .     S
C986   H997    1.083   .     S
C987   H996    1.083   .     S
C987   C989    1.397   .     A
C988   H995    1.080   .     S
C988   C990    1.400   .     A
C989   C991    1.414   .     A
C989   C993    1.414   .     A
C990   C994    1.421   .     A
C990   C992    1.421   .     A
C991   C301    1.402   1_556 S
C993   C328    1.409   1_556 S
N1003  Zn1013  2.014   .     S
N1004  Zn1014  2.014   .     S
O1005  Zn1013  1.987   .     S
O1006  Zn1014  1.987   .     S
O1007  Zn1014  1.991   .     S
O1008  Zn1013  1.991   .     S
O1009  Zn1013  1.944   .     S
O1010  Zn1014  1.944   .     S
O1011  Zn1014  1.911   .     S
O1012  Zn1013  1.911   .     S
C1019  O1020   1.223   .     D
C1019  O1021   1.398   .     S
O1021  H1022   1.013   .     S
C1023  O1025   1.397   .     S
C1023  O1024   1.221   .     D
O1025  H1026   1.013   .     S
C1027  O1029   1.400   .     S
C1027  O1028   1.220   .     D
O1029  H1030   1.013   .     S
C1031  O1032   1.222   .     D
C1031  O1033   1.398   .     S
O1033  H1034   1.014   .     S
C1037  O1081   1.281   .     A
C1037  C1048   1.411   .     S
C1037  O1079   1.282   .     A
C1038  O1082   1.281   .     A
C1038  C1047   1.415   .     S
C1038  O1080   1.284   .     A
C1039  C1041   1.408   .     A
C1039  C1068   1.431   .     A
C1039  C1093   1.488   .     S
C1040  C1097   1.495   .     S
C1040  C1067   1.426   .     A
C1040  C1042   1.401   .     A
C1041  F1089   1.360   .     S
C1042  F1090   1.356   .     S
C1042  C400    1.398   1_556 S
C1043  H1073   1.086   .     S
C1043  C1048   1.391   .     A
C1043  C1267   1.378   .     S
C1044  C1047   1.396   .     A
C1044  H1074   1.086   .     S
C1045  C1101   1.487   .     S
C1045  C1047   1.409   .     A
C1046  C1105   1.488   .     S
C1046  C1048   1.407   .     A
C1046  C1266   1.381   .     S
C1049  N1078   1.366   .     A
C1049  H1075   1.082   .     S
C1049  C903    1.417   1_655 S
C1050  H1076   1.082   .     S
C1050  N1077   1.366   .     A
C1051  F1109   1.353   .     S
C1051  N1077   1.367   .     A
C1052  F1110   1.355   .     S
C1052  N1078   1.369   .     A
C1052  C902    1.418   1_655 S
C1053  O1083   1.299   .     A
C1053  C1055   1.464   .     S
C1053  O1085   1.293   .     A
C1054  O1084   1.293   .     A
C1054  O1086   1.295   .     A
C1054  C1056   1.458   .     S
C1055  C1059   1.398   .     A
C1055  C1061   1.393   .     A
C1056  C1062   1.394   .     A
C1056  C1060   1.396   .     A
C1057  F1091   1.358   .     S
C1057  C1065   1.413   .     A
C1057  C1059   1.397   .     A
C1058  F1092   1.358   .     S
C1058  C1060   1.390   .     A
C1058  C1066   1.411   .     A
C1059  H1072   1.082   .     S
C1060  H1071   1.083   .     S
C1061  H1070   1.083   .     S
C1061  C1063   1.397   .     A
C1062  H1069   1.080   .     S
C1062  C1064   1.400   .     A
C1063  C1065   1.414   .     A
C1063  C1067   1.414   .     A
C1064  C1068   1.421   .     A
C1064  C1066   1.421   .     A
C1065  C375    1.402   1_556 S
C1067  C402    1.409   1_556 S
N1077  Zn1087  2.014   .     S
N1078  Zn1088  2.014   .     S
O1079  Zn1087  1.987   .     S
O1080  Zn1088  1.987   .     S
O1081  Zn1088  1.991   .     S
O1082  Zn1087  1.991   .     S
O1083  Zn1087  1.944   .     S
O1084  Zn1088  1.944   .     S
O1085  Zn1088  1.911   .     S
O1086  Zn1087  1.911   .     S
C1093  O1094   1.223   .     D
C1093  O1095   1.398   .     S
O1095  H1096   1.013   .     S
C1097  O1099   1.397   .     S
C1097  O1098   1.221   .     D
O1099  H1100   1.013   .     S
C1101  O1103   1.400   .     S
C1101  O1102   1.220   .     D
O1103  H1104   1.013   .     S
C1105  O1106   1.222   .     D
C1105  O1107   1.398   .     S
O1107  H1108   1.014   .     S
C1111  O1155   1.281   .     A
C1111  C1122   1.411   .     S
C1111  O1153   1.282   .     A
C1112  O1156   1.281   .     A
C1112  C1121   1.415   .     S
C1112  O1154   1.284   .     A
C1113  C1115   1.408   .     A
C1113  C1142   1.431   .     A
C1113  C1167   1.488   .     S
C1114  C1171   1.495   .     S
C1114  C1141   1.426   .     A
C1114  C1116   1.401   .     A
C1115  F1163   1.360   .     S
C1116  F1164   1.356   .     S
C1116  C474    1.398   1_556 S
C1117  H1147   1.086   .     S
C1117  C1122   1.391   .     A
C1117  C675    1.378   1_565 S
C1118  C1121   1.396   .     A
C1118  H1148   1.086   .     S
C1119  C1175   1.487   .     S
C1119  C1121   1.409   .     A
C1120  C1179   1.488   .     S
C1120  C1122   1.407   .     A
C1120  C674    1.381   1_565 S
C1123  N1152   1.366   .     A
C1123  H1149   1.082   .     S
C1123  C1199   1.417   .     S
C1124  H1150   1.082   .     S
C1124  N1151   1.366   .     A
C1124  C1274   1.418   1_455 S
C1125  F1183   1.353   .     S
C1125  N1151   1.367   .     A
C1125  C1271   1.417   1_455 S
C1126  F1184   1.355   .     S
C1126  N1152   1.369   .     A
C1126  C1198   1.418   .     S
C1127  O1157   1.299   .     A
C1127  C1129   1.464   .     S
C1127  O1159   1.293   .     A
C1128  O1158   1.293   .     A
C1128  O1160   1.295   .     A
C1128  C1130   1.458   .     S
C1129  C1133   1.398   .     A
C1129  C1135   1.393   .     A
C1130  C1136   1.394   .     A
C1130  C1134   1.396   .     A
C1131  F1165   1.358   .     S
C1131  C1139   1.413   .     A
C1131  C1133   1.397   .     A
C1132  F1166   1.358   .     S
C1132  C1134   1.390   .     A
C1132  C1140   1.411   .     A
C1133  H1146   1.082   .     S
C1134  H1145   1.083   .     S
C1135  H1144   1.083   .     S
C1135  C1137   1.397   .     A
C1136  H1143   1.080   .     S
C1136  C1138   1.400   .     A
C1137  C1139   1.414   .     A
C1137  C1141   1.414   .     A
C1138  C1142   1.421   .     A
C1138  C1140   1.421   .     A
C1139  C449    1.402   1_556 S
C1141  C476    1.409   1_556 S
N1151  Zn1161  2.014   .     S
N1152  Zn1162  2.014   .     S
O1153  Zn1161  1.987   .     S
O1154  Zn1162  1.987   .     S
O1155  Zn1162  1.991   .     S
O1156  Zn1161  1.991   .     S
O1157  Zn1161  1.944   .     S
O1158  Zn1162  1.944   .     S
O1159  Zn1162  1.911   .     S
O1160  Zn1161  1.911   .     S
C1167  O1168   1.223   .     D
C1167  O1169   1.398   .     S
O1169  H1170   1.013   .     S
C1171  O1173   1.397   .     S
C1171  O1172   1.221   .     D
O1173  H1174   1.013   .     S
C1175  O1177   1.400   .     S
C1175  O1176   1.220   .     D
O1177  H1178   1.013   .     S
C1179  O1180   1.222   .     D
C1179  O1181   1.398   .     S
O1181  H1182   1.014   .     S
C1185  O1229   1.281   .     A
C1185  C1196   1.411   .     S
C1185  O1227   1.282   .     A
C1186  O1230   1.281   .     A
C1186  C1195   1.415   .     S
C1186  O1228   1.284   .     A
C1187  C1189   1.408   .     A
C1187  C1216   1.431   .     A
C1187  C1241   1.488   .     S
C1188  C1245   1.495   .     S
C1188  C1215   1.426   .     A
C1188  C1190   1.401   .     A
C1189  F1237   1.360   .     S
C1190  F1238   1.356   .     S
C1190  C548    1.398   1_556 S
C1191  H1221   1.086   .     S
C1191  C1196   1.391   .     A
C1191  C749    1.378   1_565 S
C1192  C1195   1.396   .     A
C1192  H1222   1.086   .     S
C1193  C1249   1.487   .     S
C1193  C1195   1.409   .     A
C1194  C1253   1.488   .     S
C1194  C1196   1.407   .     A
C1194  C748    1.381   1_565 S
C1197  N1226   1.366   .     A
C1197  H1223   1.082   .     S
C1197  C1273   1.417   .     S
C1198  H1224   1.082   .     S
C1198  N1225   1.366   .     A
C1199  F1257   1.353   .     S
C1199  N1225   1.367   .     A
C1200  F1258   1.355   .     S
C1200  N1226   1.369   .     A
C1200  C1272   1.418   .     S
C1201  O1231   1.299   .     A
C1201  C1203   1.464   .     S
C1201  O1233   1.293   .     A
C1202  O1232   1.293   .     A
C1202  O1234   1.295   .     A
C1202  C1204   1.458   .     S
C1203  C1207   1.398   .     A
C1203  C1209   1.393   .     A
C1204  C1210   1.394   .     A
C1204  C1208   1.396   .     A
C1205  F1239   1.358   .     S
C1205  C1213   1.413   .     A
C1205  C1207   1.397   .     A
C1206  F1240   1.358   .     S
C1206  C1208   1.390   .     A
C1206  C1214   1.411   .     A
C1207  H1220   1.082   .     S
C1208  H1219   1.083   .     S
C1209  H1218   1.083   .     S
C1209  C1211   1.397   .     A
C1210  H1217   1.080   .     S
C1210  C1212   1.400   .     A
C1211  C1213   1.414   .     A
C1211  C1215   1.414   .     A
C1212  C1216   1.421   .     A
C1212  C1214   1.421   .     A
C1213  C523    1.402   1_556 S
C1215  C550    1.409   1_556 S
N1225  Zn1235  2.014   .     S
N1226  Zn1236  2.014   .     S
O1227  Zn1235  1.987   .     S
O1228  Zn1236  1.987   .     S
O1229  Zn1236  1.991   .     S
O1230  Zn1235  1.991   .     S
O1231  Zn1235  1.944   .     S
O1232  Zn1236  1.944   .     S
O1233  Zn1236  1.911   .     S
O1234  Zn1235  1.911   .     S
C1241  O1242   1.223   .     D
C1241  O1243   1.398   .     S
O1243  H1244   1.013   .     S
C1245  O1247   1.397   .     S
C1245  O1246   1.221   .     D
O1247  H1248   1.013   .     S
C1249  O1251   1.400   .     S
C1249  O1250   1.220   .     D
O1251  H1252   1.013   .     S
C1253  O1254   1.222   .     D
C1253  O1255   1.398   .     S
O1255  H1256   1.014   .     S
C1259  O1303   1.281   .     A
C1259  C1270   1.411   .     S
C1259  O1301   1.282   .     A
C1260  O1304   1.281   .     A
C1260  C1269   1.415   .     S
C1260  O1302   1.284   .     A
C1261  C1263   1.408   .     A
C1261  C1290   1.431   .     A
C1261  C1315   1.488   .     S
C1262  C1319   1.495   .     S
C1262  C1289   1.426   .     A
C1262  C1264   1.401   .     A
C1263  F1311   1.360   .     S
C1264  F1312   1.356   .     S
C1264  C622    1.398   1_556 S
C1265  H1295   1.086   .     S
C1265  C1270   1.391   .     A
C1265  C823    1.378   1_565 S
C1266  C1269   1.396   .     A
C1266  H1296   1.086   .     S
C1267  C1323   1.487   .     S
C1267  C1269   1.409   .     A
C1268  C1327   1.488   .     S
C1268  C1270   1.407   .     A
C1268  C822    1.381   1_565 S
C1271  N1300   1.366   .     A
C1271  H1297   1.082   .     S
C1271  C1125   1.417   1_655 S
C1272  H1298   1.082   .     S
C1272  N1299   1.366   .     A
C1273  F1331   1.353   .     S
C1273  N1299   1.367   .     A
C1274  F1332   1.355   .     S
C1274  N1300   1.369   .     A
C1274  C1124   1.418   1_655 S
C1275  O1305   1.299   .     A
C1275  C1277   1.464   .     S
C1275  O1307   1.293   .     A
C1276  O1306   1.293   .     A
C1276  O1308   1.295   .     A
C1276  C1278   1.458   .     S
C1277  C1281   1.398   .     A
C1277  C1283   1.393   .     A
C1278  C1284   1.394   .     A
C1278  C1282   1.396   .     A
C1279  F1313   1.358   .     S
C1279  C1287   1.413   .     A
C1279  C1281   1.397   .     A
C1280  F1314   1.358   .     S
C1280  C1282   1.390   .     A
C1280  C1288   1.411   .     A
C1281  H1294   1.082   .     S
C1282  H1293   1.083   .     S
C1283  H1292   1.083   .     S
C1283  C1285   1.397   .     A
C1284  H1291   1.080   .     S
C1284  C1286   1.400   .     A
C1285  C1287   1.414   .     A
C1285  C1289   1.414   .     A
C1286  C1290   1.421   .     A
C1286  C1288   1.421   .     A
C1287  C597    1.402   1_556 S
C1289  C624    1.409   1_556 S
N1299  Zn1309  2.014   .     S
N1300  Zn1310  2.014   .     S
O1301  Zn1309  1.987   .     S
O1302  Zn1310  1.987   .     S
O1303  Zn1310  1.991   .     S
O1304  Zn1309  1.991   .     S
O1305  Zn1309  1.944   .     S
O1306  Zn1310  1.944   .     S
O1307  Zn1310  1.911   .     S
O1308  Zn1309  1.911   .     S
C1315  O1316   1.223   .     D
C1315  O1317   1.398   .     S
O1317  H1318   1.013   .     S
C1319  O1321   1.397   .     S
C1319  O1320   1.221   .     D
O1321  H1322   1.013   .     S
C1323  O1325   1.400   .     S
C1323  O1324   1.220   .     D
O1325  H1326   1.013   .     S
C1327  O1328   1.222   .     D
C1327  O1329   1.398   .     S
O1329  H1330   1.014   .     S
