data_str_m3_o1_o18_pcu_sym.214
_audit_creation_date              2020-01-03
_audit_creation_method            'Materials Studio'
_symmetry_space_group_name_H-M    'P1'
_symmetry_Int_Tables_number       1
_symmetry_cell_setting            triclinic
loop_
_symmetry_equiv_pos_as_xyz
  x,y,z
_cell_length_a                    29.7933
_cell_length_b                    32.0329
_cell_length_c                    30.9855
_cell_angle_alpha                 91.7369
_cell_angle_beta                  68.7052
_cell_angle_gamma                 91.1709
loop_
_atom_site_label
_atom_site_type_symbol
_atom_site_fract_x
_atom_site_fract_y
_atom_site_fract_z
_atom_site_U_iso_or_equiv
_atom_site_adp_type
_atom_site_occupancy
C1     C     0.16681   0.24660   0.25051   0.00000  Uiso   1.00
C2     C     0.16646   0.08673   0.24973   0.00000  Uiso   1.00
C3     C     0.11905   0.12020   0.04343   0.00000  Uiso   1.00
C4     C     0.22853   0.15300   0.44589   0.00000  Uiso   1.00
C5     C     0.08554   0.11548   0.02190   0.00000  Uiso   1.00
C6     C     0.26200   0.15836   0.46723   0.00000  Uiso   1.00
C7     C     0.21065   0.31229   0.23301   0.00000  Uiso   1.00
C8     C     0.12264   0.02105   0.26831   0.00000  Uiso   1.00
C9     C     0.21036   0.02171   0.23210   0.00000  Uiso   1.00
C10    C     0.12292   0.31161   0.26899   0.00000  Uiso   1.00
C11    C     0.16633   0.04253   0.24966   0.00000  Uiso   1.00
C12    C     0.16692   0.29080   0.25117   0.00000  Uiso   1.00
C13    C     0.31647   0.13591   0.22752   0.00000  Uiso   1.00
C14    C     0.01708   0.19786   0.27170   0.00000  Uiso   1.00
C15    C     0.03109   0.13520   0.22727   0.00000  Uiso   1.00
C16    C     0.30199   0.19754   0.27357   0.00000  Uiso   1.00
C17    C     0.13665   0.16593   0.33776   0.00000  Uiso   1.00
C18    C     0.19675   0.16595   0.16222   0.00000  Uiso   1.00
C19    C     0.11923   0.15813   0.38727   0.00000  Uiso   1.00
C20    C     0.21540   0.16195   0.11180   0.00000  Uiso   1.00
C21    C     0.06235   0.12642   0.45569   0.00000  Uiso   1.00
C22    C     0.27964   0.16775   0.03723   0.00000  Uiso   1.00
C23    C     0.07377   0.14041   0.41067   0.00000  Uiso   1.00
C24    C     0.26391   0.16985   0.08539   0.00000  Uiso   1.00
C25    C     0.15250   0.16222   0.40912   0.00000  Uiso   1.00
C26    C     0.18351   0.14983   0.09007   0.00000  Uiso   1.00
C27    C     0.14347   0.14513   0.45228   0.00000  Uiso   1.00
C28    C     0.19859   0.14674   0.04189   0.00000  Uiso   1.00
C29    C     0.09684   0.12893   0.47681   0.00000  Uiso   1.00
C30    C     0.24709   0.15725   0.01528   0.00000  Uiso   1.00
C31    C     0.17933   0.14528   0.47213   0.00000  Uiso   1.00
C32    C     0.16553   0.13710   0.01970   0.00000  Uiso   1.00
H33    H     0.05032   0.10232   0.04103   0.00000  Uiso   1.00
H34    H     0.29919   0.16518   0.44624   0.00000  Uiso   1.00
H35    H     0.14622   0.14505   0.11135   0.00000  Uiso   1.00
H36    H     0.18585   0.17871   0.39155   0.00000  Uiso   1.00
H37    H     0.28921   0.17888   0.10185   0.00000  Uiso   1.00
H38    H     0.04784   0.13628   0.39380   0.00000  Uiso   1.00
H39    H     0.02708   0.11282   0.47355   0.00000  Uiso   1.00
H40    H     0.31676   0.17575   0.01723   0.00000  Uiso   1.00
H41    H     0.10837   0.10907   0.07819   0.00000  Uiso   1.00
H42    H     0.24215   0.15396   0.40857   0.00000  Uiso   1.00
H43    H     0.24470   0.29611   0.21885   0.00000  Uiso   1.00
H44    H     0.08865   0.03722   0.28297   0.00000  Uiso   1.00
H45    H     0.24432   0.03840   0.21744   0.00000  Uiso   1.00
H46    H     0.08897   0.29490   0.28366   0.00000  Uiso   1.00
H47    H     0.30281   0.11167   0.21054   0.00000  Uiso   1.00
H48    H     0.03042   0.22268   0.28831   0.00000  Uiso   1.00
N49    N     0.04759   0.16668   0.25001   0.00000  Uiso   1.00
N50    N     0.28574   0.16666   0.24999   0.00000  Uiso   1.00
O51    O     0.12846   0.22775   0.25000   0.00000  Uiso   1.00
O52    O     0.20488   0.10558   0.25000   0.00000  Uiso   1.00
O53    O     0.20490   0.22774   0.25000   0.00000  Uiso   1.00
O54    O     0.12843   0.10559   0.25000   0.00000  Uiso   1.00
O55    O     0.10661   0.16667   0.31612   0.00000  Uiso   1.00
O56    O     0.22672   0.16666   0.18388   0.00000  Uiso   1.00
O57    O     0.18305   0.16666   0.31612   0.00000  Uiso   1.00
O58    O     0.15028   0.16667   0.18388   0.00000  Uiso   1.00
Zn59   Zn    0.11562   0.16667   0.25000   0.00000  Uiso   1.00
Zn60   Zn    0.21771   0.16666   0.25000   0.00000  Uiso   1.00
C61    C     0.06274   0.09830   0.20392   0.00000  Uiso   1.00
C62    C     0.04779   0.07280   0.16858   0.00000  Uiso   1.00
H63    H     0.01546   0.05328   0.18642   0.00000  Uiso   1.00
H64    H     0.04033   0.09364   0.14404   0.00000  Uiso   1.00
H65    H     0.07739   0.05143   0.14849   0.00000  Uiso   1.00
H66    H     0.09972   0.10934   0.18494   0.00000  Uiso   1.00
H67    H     0.06271   0.07664   0.23112   0.00000  Uiso   1.00
C68    C     0.26982   0.23266   0.30108   0.00000  Uiso   1.00
C69    C     0.27531   0.24330   0.34750   0.00000  Uiso   1.00
H70    H     0.27671   0.21443   0.36583   0.00000  Uiso   1.00
H71    H     0.30830   0.26237   0.34232   0.00000  Uiso   1.00
H72    H     0.24407   0.26201   0.36982   0.00000  Uiso   1.00
H73    H     0.27747   0.26108   0.27980   0.00000  Uiso   1.00
H74    H     0.23186   0.22432   0.31016   0.00000  Uiso   1.00
C75    C     0.50015   0.24660   0.25051   0.00000  Uiso   1.00
C76    C     0.49979   0.08673   0.24973   0.00000  Uiso   1.00
C77    C     0.45238   0.12020   0.04343   0.00000  Uiso   1.00
C78    C     0.56187   0.15300   0.44589   0.00000  Uiso   1.00
C79    C     0.41888   0.11548   0.02190   0.00000  Uiso   1.00
C80    C     0.59534   0.15836   0.46723   0.00000  Uiso   1.00
C81    C     0.54399   0.31229   0.23301   0.00000  Uiso   1.00
C82    C     0.45598   0.02105   0.26831   0.00000  Uiso   1.00
C83    C     0.54369   0.02171   0.23210   0.00000  Uiso   1.00
C84    C     0.45625   0.31161   0.26899   0.00000  Uiso   1.00
C85    C     0.49966   0.04253   0.24966   0.00000  Uiso   1.00
C86    C     0.50025   0.29080   0.25117   0.00000  Uiso   1.00
C87    C     0.64981   0.13591   0.22752   0.00000  Uiso   1.00
C88    C     0.35042   0.19786   0.27170   0.00000  Uiso   1.00
C89    C     0.36442   0.13520   0.22727   0.00000  Uiso   1.00
C90    C     0.63533   0.19754   0.27357   0.00000  Uiso   1.00
C91    C     0.46999   0.16593   0.33776   0.00000  Uiso   1.00
C92    C     0.53008   0.16595   0.16222   0.00000  Uiso   1.00
C93    C     0.45257   0.15813   0.38727   0.00000  Uiso   1.00
C94    C     0.54874   0.16195   0.11180   0.00000  Uiso   1.00
C95    C     0.39568   0.12642   0.45569   0.00000  Uiso   1.00
C96    C     0.61297   0.16775   0.03723   0.00000  Uiso   1.00
C97    C     0.40711   0.14041   0.41067   0.00000  Uiso   1.00
C98    C     0.59725   0.16985   0.08539   0.00000  Uiso   1.00
C99    C     0.48584   0.16222   0.40912   0.00000  Uiso   1.00
C100   C     0.51685   0.14983   0.09007   0.00000  Uiso   1.00
C101   C     0.47681   0.14513   0.45228   0.00000  Uiso   1.00
C102   C     0.53192   0.14674   0.04189   0.00000  Uiso   1.00
C103   C     0.43017   0.12893   0.47681   0.00000  Uiso   1.00
C104   C     0.58042   0.15725   0.01528   0.00000  Uiso   1.00
C105   C     0.51267   0.14528   0.47213   0.00000  Uiso   1.00
C106   C     0.49886   0.13710   0.01970   0.00000  Uiso   1.00
H107   H     0.38366   0.10232   0.04103   0.00000  Uiso   1.00
H108   H     0.63252   0.16518   0.44624   0.00000  Uiso   1.00
H109   H     0.47955   0.14505   0.11135   0.00000  Uiso   1.00
H110   H     0.51918   0.17871   0.39155   0.00000  Uiso   1.00
H111   H     0.62254   0.17888   0.10185   0.00000  Uiso   1.00
H112   H     0.38118   0.13628   0.39380   0.00000  Uiso   1.00
H113   H     0.36041   0.11282   0.47355   0.00000  Uiso   1.00
H114   H     0.65009   0.17575   0.01723   0.00000  Uiso   1.00
H115   H     0.44171   0.10907   0.07819   0.00000  Uiso   1.00
H116   H     0.57549   0.15396   0.40857   0.00000  Uiso   1.00
H117   H     0.57804   0.29611   0.21885   0.00000  Uiso   1.00
H118   H     0.42199   0.03722   0.28297   0.00000  Uiso   1.00
H119   H     0.57766   0.03840   0.21744   0.00000  Uiso   1.00
H120   H     0.42230   0.29490   0.28366   0.00000  Uiso   1.00
H121   H     0.63614   0.11167   0.21054   0.00000  Uiso   1.00
H122   H     0.36376   0.22268   0.28831   0.00000  Uiso   1.00
N123   N     0.38093   0.16668   0.25001   0.00000  Uiso   1.00
N124   N     0.61907   0.16666   0.24999   0.00000  Uiso   1.00
O125   O     0.46179   0.22775   0.25000   0.00000  Uiso   1.00
O126   O     0.53821   0.10558   0.25000   0.00000  Uiso   1.00
O127   O     0.53823   0.22774   0.25000   0.00000  Uiso   1.00
O128   O     0.46177   0.10559   0.25000   0.00000  Uiso   1.00
O129   O     0.43994   0.16667   0.31612   0.00000  Uiso   1.00
O130   O     0.56006   0.16666   0.18388   0.00000  Uiso   1.00
O131   O     0.51639   0.16666   0.31612   0.00000  Uiso   1.00
O132   O     0.48361   0.16667   0.18388   0.00000  Uiso   1.00
Zn133  Zn    0.44896   0.16667   0.25000   0.00000  Uiso   1.00
Zn134  Zn    0.55104   0.16666   0.25000   0.00000  Uiso   1.00
C135   C     0.39607   0.09830   0.20392   0.00000  Uiso   1.00
C136   C     0.38112   0.07280   0.16858   0.00000  Uiso   1.00
H137   H     0.34879   0.05328   0.18642   0.00000  Uiso   1.00
H138   H     0.37367   0.09364   0.14404   0.00000  Uiso   1.00
H139   H     0.41073   0.05143   0.14849   0.00000  Uiso   1.00
H140   H     0.43305   0.10934   0.18494   0.00000  Uiso   1.00
H141   H     0.39605   0.07664   0.23112   0.00000  Uiso   1.00
C142   C     0.60315   0.23266   0.30108   0.00000  Uiso   1.00
C143   C     0.60865   0.24330   0.34750   0.00000  Uiso   1.00
H144   H     0.61004   0.21443   0.36583   0.00000  Uiso   1.00
H145   H     0.64164   0.26237   0.34232   0.00000  Uiso   1.00
H146   H     0.57740   0.26201   0.36982   0.00000  Uiso   1.00
H147   H     0.61080   0.26108   0.27980   0.00000  Uiso   1.00
H148   H     0.56519   0.22432   0.31016   0.00000  Uiso   1.00
C149   C     0.83348   0.24660   0.25051   0.00000  Uiso   1.00
C150   C     0.83313   0.08673   0.24973   0.00000  Uiso   1.00
C151   C     0.78572   0.12020   0.04343   0.00000  Uiso   1.00
C152   C     0.89520   0.15300   0.44589   0.00000  Uiso   1.00
C153   C     0.75221   0.11548   0.02190   0.00000  Uiso   1.00
C154   C     0.92867   0.15836   0.46723   0.00000  Uiso   1.00
C155   C     0.87732   0.31229   0.23301   0.00000  Uiso   1.00
C156   C     0.78931   0.02105   0.26831   0.00000  Uiso   1.00
C157   C     0.87702   0.02171   0.23210   0.00000  Uiso   1.00
C158   C     0.78958   0.31161   0.26899   0.00000  Uiso   1.00
C159   C     0.83299   0.04253   0.24966   0.00000  Uiso   1.00
C160   C     0.83358   0.29080   0.25117   0.00000  Uiso   1.00
C161   C     0.98314   0.13591   0.22752   0.00000  Uiso   1.00
C162   C     0.68375   0.19786   0.27170   0.00000  Uiso   1.00
C163   C     0.69776   0.13520   0.22727   0.00000  Uiso   1.00
C164   C     0.96866   0.19754   0.27357   0.00000  Uiso   1.00
C165   C     0.80332   0.16593   0.33776   0.00000  Uiso   1.00
C166   C     0.86341   0.16595   0.16222   0.00000  Uiso   1.00
C167   C     0.78590   0.15813   0.38727   0.00000  Uiso   1.00
C168   C     0.88207   0.16195   0.11180   0.00000  Uiso   1.00
C169   C     0.72901   0.12642   0.45569   0.00000  Uiso   1.00
C170   C     0.94631   0.16775   0.03723   0.00000  Uiso   1.00
C171   C     0.74044   0.14041   0.41067   0.00000  Uiso   1.00
C172   C     0.93058   0.16985   0.08539   0.00000  Uiso   1.00
C173   C     0.81917   0.16222   0.40912   0.00000  Uiso   1.00
C174   C     0.85018   0.14983   0.09007   0.00000  Uiso   1.00
C175   C     0.81014   0.14513   0.45228   0.00000  Uiso   1.00
C176   C     0.86525   0.14674   0.04189   0.00000  Uiso   1.00
C177   C     0.76351   0.12893   0.47681   0.00000  Uiso   1.00
C178   C     0.91376   0.15725   0.01528   0.00000  Uiso   1.00
C179   C     0.84600   0.14528   0.47213   0.00000  Uiso   1.00
C180   C     0.83219   0.13710   0.01970   0.00000  Uiso   1.00
H181   H     0.71699   0.10232   0.04103   0.00000  Uiso   1.00
H182   H     0.96586   0.16518   0.44624   0.00000  Uiso   1.00
H183   H     0.81288   0.14505   0.11135   0.00000  Uiso   1.00
H184   H     0.85252   0.17871   0.39155   0.00000  Uiso   1.00
H185   H     0.95588   0.17888   0.10185   0.00000  Uiso   1.00
H186   H     0.71451   0.13628   0.39380   0.00000  Uiso   1.00
H187   H     0.69374   0.11282   0.47355   0.00000  Uiso   1.00
H188   H     0.98342   0.17575   0.01723   0.00000  Uiso   1.00
H189   H     0.77504   0.10907   0.07819   0.00000  Uiso   1.00
H190   H     0.90882   0.15396   0.40857   0.00000  Uiso   1.00
H191   H     0.91137   0.29611   0.21885   0.00000  Uiso   1.00
H192   H     0.75532   0.03722   0.28297   0.00000  Uiso   1.00
H193   H     0.91099   0.03840   0.21744   0.00000  Uiso   1.00
H194   H     0.75563   0.29490   0.28366   0.00000  Uiso   1.00
H195   H     0.96948   0.11167   0.21054   0.00000  Uiso   1.00
H196   H     0.69709   0.22268   0.28831   0.00000  Uiso   1.00
N197   N     0.71426   0.16668   0.25001   0.00000  Uiso   1.00
N198   N     0.95241   0.16666   0.24999   0.00000  Uiso   1.00
O199   O     0.79512   0.22775   0.25000   0.00000  Uiso   1.00
O200   O     0.87154   0.10558   0.25000   0.00000  Uiso   1.00
O201   O     0.87157   0.22774   0.25000   0.00000  Uiso   1.00
O202   O     0.79510   0.10559   0.25000   0.00000  Uiso   1.00
O203   O     0.77328   0.16667   0.31612   0.00000  Uiso   1.00
O204   O     0.89339   0.16666   0.18388   0.00000  Uiso   1.00
O205   O     0.84972   0.16666   0.31612   0.00000  Uiso   1.00
O206   O     0.81695   0.16667   0.18388   0.00000  Uiso   1.00
Zn207  Zn    0.78229   0.16667   0.25000   0.00000  Uiso   1.00
Zn208  Zn    0.88438   0.16666   0.25000   0.00000  Uiso   1.00
C209   C     0.72941   0.09830   0.20392   0.00000  Uiso   1.00
C210   C     0.71446   0.07280   0.16858   0.00000  Uiso   1.00
H211   H     0.68213   0.05328   0.18642   0.00000  Uiso   1.00
H212   H     0.70700   0.09364   0.14404   0.00000  Uiso   1.00
H213   H     0.74406   0.05143   0.14849   0.00000  Uiso   1.00
H214   H     0.76638   0.10934   0.18494   0.00000  Uiso   1.00
H215   H     0.72938   0.07664   0.23112   0.00000  Uiso   1.00
C216   C     0.93649   0.23266   0.30108   0.00000  Uiso   1.00
C217   C     0.94198   0.24330   0.34750   0.00000  Uiso   1.00
H218   H     0.94338   0.21443   0.36583   0.00000  Uiso   1.00
H219   H     0.97497   0.26237   0.34232   0.00000  Uiso   1.00
H220   H     0.91073   0.26201   0.36982   0.00000  Uiso   1.00
H221   H     0.94414   0.26108   0.27980   0.00000  Uiso   1.00
H222   H     0.89853   0.22432   0.31016   0.00000  Uiso   1.00
C223   C     0.16681   0.57993   0.25051   0.00000  Uiso   1.00
C224   C     0.16646   0.42006   0.24973   0.00000  Uiso   1.00
C225   C     0.11905   0.45353   0.04343   0.00000  Uiso   1.00
C226   C     0.22853   0.48634   0.44589   0.00000  Uiso   1.00
C227   C     0.08554   0.44881   0.02190   0.00000  Uiso   1.00
C228   C     0.26200   0.49169   0.46723   0.00000  Uiso   1.00
C229   C     0.21065   0.64562   0.23301   0.00000  Uiso   1.00
C230   C     0.12264   0.35438   0.26831   0.00000  Uiso   1.00
C231   C     0.21036   0.35504   0.23210   0.00000  Uiso   1.00
C232   C     0.12292   0.64495   0.26899   0.00000  Uiso   1.00
C233   C     0.16633   0.37586   0.24966   0.00000  Uiso   1.00
C234   C     0.16692   0.62413   0.25117   0.00000  Uiso   1.00
C235   C     0.31647   0.46924   0.22752   0.00000  Uiso   1.00
C236   C     0.01708   0.53119   0.27170   0.00000  Uiso   1.00
C237   C     0.03109   0.46854   0.22727   0.00000  Uiso   1.00
C238   C     0.30199   0.53088   0.27357   0.00000  Uiso   1.00
C239   C     0.13665   0.49926   0.33776   0.00000  Uiso   1.00
C240   C     0.19675   0.49928   0.16222   0.00000  Uiso   1.00
C241   C     0.11923   0.49146   0.38727   0.00000  Uiso   1.00
C242   C     0.21540   0.49528   0.11180   0.00000  Uiso   1.00
C243   C     0.06235   0.45976   0.45569   0.00000  Uiso   1.00
C244   C     0.27964   0.50108   0.03723   0.00000  Uiso   1.00
C245   C     0.07377   0.47374   0.41067   0.00000  Uiso   1.00
C246   C     0.26391   0.50318   0.08539   0.00000  Uiso   1.00
C247   C     0.15250   0.49556   0.40912   0.00000  Uiso   1.00
C248   C     0.18351   0.48316   0.09007   0.00000  Uiso   1.00
C249   C     0.14347   0.47847   0.45228   0.00000  Uiso   1.00
C250   C     0.19859   0.48008   0.04189   0.00000  Uiso   1.00
C251   C     0.09684   0.46227   0.47681   0.00000  Uiso   1.00
C252   C     0.24709   0.49059   0.01528   0.00000  Uiso   1.00
C253   C     0.17933   0.47862   0.47213   0.00000  Uiso   1.00
C254   C     0.16553   0.47043   0.01970   0.00000  Uiso   1.00
H255   H     0.05032   0.43566   0.04103   0.00000  Uiso   1.00
H256   H     0.29919   0.49851   0.44624   0.00000  Uiso   1.00
H257   H     0.14622   0.47838   0.11135   0.00000  Uiso   1.00
H258   H     0.18585   0.51205   0.39155   0.00000  Uiso   1.00
H259   H     0.28921   0.51221   0.10185   0.00000  Uiso   1.00
H260   H     0.04784   0.46961   0.39380   0.00000  Uiso   1.00
H261   H     0.02708   0.44616   0.47355   0.00000  Uiso   1.00
H262   H     0.31676   0.50908   0.01723   0.00000  Uiso   1.00
H263   H     0.10837   0.44240   0.07819   0.00000  Uiso   1.00
H264   H     0.24215   0.48729   0.40857   0.00000  Uiso   1.00
H265   H     0.24470   0.62945   0.21885   0.00000  Uiso   1.00
H266   H     0.08865   0.37055   0.28297   0.00000  Uiso   1.00
H267   H     0.24432   0.37173   0.21744   0.00000  Uiso   1.00
H268   H     0.08897   0.62823   0.28366   0.00000  Uiso   1.00
H269   H     0.30281   0.44500   0.21054   0.00000  Uiso   1.00
H270   H     0.03042   0.55601   0.28831   0.00000  Uiso   1.00
N271   N     0.04759   0.50001   0.25001   0.00000  Uiso   1.00
N272   N     0.28574   0.49999   0.24999   0.00000  Uiso   1.00
O273   O     0.12846   0.56108   0.25000   0.00000  Uiso   1.00
O274   O     0.20488   0.43892   0.25000   0.00000  Uiso   1.00
O275   O     0.20490   0.56107   0.25000   0.00000  Uiso   1.00
O276   O     0.12843   0.43893   0.25000   0.00000  Uiso   1.00
O277   O     0.10661   0.50001   0.31612   0.00000  Uiso   1.00
O278   O     0.22672   0.49999   0.18388   0.00000  Uiso   1.00
O279   O     0.18305   0.50000   0.31612   0.00000  Uiso   1.00
O280   O     0.15028   0.50000   0.18388   0.00000  Uiso   1.00
Zn281  Zn    0.11562   0.50001   0.25000   0.00000  Uiso   1.00
Zn282  Zn    0.21771   0.49999   0.25000   0.00000  Uiso   1.00
C283   C     0.06274   0.43163   0.20392   0.00000  Uiso   1.00
C284   C     0.04779   0.40613   0.16858   0.00000  Uiso   1.00
H285   H     0.01546   0.38661   0.18642   0.00000  Uiso   1.00
H286   H     0.04033   0.42697   0.14404   0.00000  Uiso   1.00
H287   H     0.07739   0.38477   0.14849   0.00000  Uiso   1.00
H288   H     0.09972   0.44267   0.18494   0.00000  Uiso   1.00
H289   H     0.06271   0.40998   0.23112   0.00000  Uiso   1.00
C290   C     0.26982   0.56599   0.30108   0.00000  Uiso   1.00
C291   C     0.27531   0.57663   0.34750   0.00000  Uiso   1.00
H292   H     0.27671   0.54777   0.36583   0.00000  Uiso   1.00
H293   H     0.30830   0.59570   0.34232   0.00000  Uiso   1.00
H294   H     0.24407   0.59535   0.36982   0.00000  Uiso   1.00
H295   H     0.27747   0.59441   0.27980   0.00000  Uiso   1.00
H296   H     0.23186   0.55766   0.31016   0.00000  Uiso   1.00
C297   C     0.50015   0.57993   0.25051   0.00000  Uiso   1.00
C298   C     0.49979   0.42006   0.24973   0.00000  Uiso   1.00
C299   C     0.45238   0.45353   0.04343   0.00000  Uiso   1.00
C300   C     0.56187   0.48634   0.44589   0.00000  Uiso   1.00
C301   C     0.41888   0.44881   0.02190   0.00000  Uiso   1.00
C302   C     0.59534   0.49169   0.46723   0.00000  Uiso   1.00
C303   C     0.54399   0.64562   0.23301   0.00000  Uiso   1.00
C304   C     0.45598   0.35438   0.26831   0.00000  Uiso   1.00
C305   C     0.54369   0.35504   0.23210   0.00000  Uiso   1.00
C306   C     0.45625   0.64495   0.26899   0.00000  Uiso   1.00
C307   C     0.49966   0.37586   0.24966   0.00000  Uiso   1.00
C308   C     0.50025   0.62413   0.25117   0.00000  Uiso   1.00
C309   C     0.64981   0.46924   0.22752   0.00000  Uiso   1.00
C310   C     0.35042   0.53119   0.27170   0.00000  Uiso   1.00
C311   C     0.36442   0.46854   0.22727   0.00000  Uiso   1.00
C312   C     0.63533   0.53088   0.27357   0.00000  Uiso   1.00
C313   C     0.46999   0.49926   0.33776   0.00000  Uiso   1.00
C314   C     0.53008   0.49928   0.16222   0.00000  Uiso   1.00
C315   C     0.45257   0.49146   0.38727   0.00000  Uiso   1.00
C316   C     0.54874   0.49528   0.11180   0.00000  Uiso   1.00
C317   C     0.39568   0.45976   0.45569   0.00000  Uiso   1.00
C318   C     0.61297   0.50108   0.03723   0.00000  Uiso   1.00
C319   C     0.40711   0.47374   0.41067   0.00000  Uiso   1.00
C320   C     0.59725   0.50318   0.08539   0.00000  Uiso   1.00
C321   C     0.48584   0.49556   0.40912   0.00000  Uiso   1.00
C322   C     0.51685   0.48316   0.09007   0.00000  Uiso   1.00
C323   C     0.47681   0.47847   0.45228   0.00000  Uiso   1.00
C324   C     0.53192   0.48008   0.04189   0.00000  Uiso   1.00
C325   C     0.43017   0.46227   0.47681   0.00000  Uiso   1.00
C326   C     0.58042   0.49059   0.01528   0.00000  Uiso   1.00
C327   C     0.51267   0.47862   0.47213   0.00000  Uiso   1.00
C328   C     0.49886   0.47043   0.01970   0.00000  Uiso   1.00
H329   H     0.38366   0.43566   0.04103   0.00000  Uiso   1.00
H330   H     0.63252   0.49851   0.44624   0.00000  Uiso   1.00
H331   H     0.47955   0.47838   0.11135   0.00000  Uiso   1.00
H332   H     0.51918   0.51205   0.39155   0.00000  Uiso   1.00
H333   H     0.62254   0.51221   0.10185   0.00000  Uiso   1.00
H334   H     0.38118   0.46961   0.39380   0.00000  Uiso   1.00
H335   H     0.36041   0.44616   0.47355   0.00000  Uiso   1.00
H336   H     0.65009   0.50908   0.01723   0.00000  Uiso   1.00
H337   H     0.44171   0.44240   0.07819   0.00000  Uiso   1.00
H338   H     0.57549   0.48729   0.40857   0.00000  Uiso   1.00
H339   H     0.57804   0.62945   0.21885   0.00000  Uiso   1.00
H340   H     0.42199   0.37055   0.28297   0.00000  Uiso   1.00
H341   H     0.57766   0.37173   0.21744   0.00000  Uiso   1.00
H342   H     0.42230   0.62823   0.28366   0.00000  Uiso   1.00
H343   H     0.63614   0.44500   0.21054   0.00000  Uiso   1.00
H344   H     0.36376   0.55601   0.28831   0.00000  Uiso   1.00
N345   N     0.38093   0.50001   0.25001   0.00000  Uiso   1.00
N346   N     0.61907   0.49999   0.24999   0.00000  Uiso   1.00
O347   O     0.46179   0.56108   0.25000   0.00000  Uiso   1.00
O348   O     0.53821   0.43892   0.25000   0.00000  Uiso   1.00
O349   O     0.53823   0.56107   0.25000   0.00000  Uiso   1.00
O350   O     0.46177   0.43893   0.25000   0.00000  Uiso   1.00
O351   O     0.43994   0.50001   0.31612   0.00000  Uiso   1.00
O352   O     0.56006   0.49999   0.18388   0.00000  Uiso   1.00
O353   O     0.51639   0.50000   0.31612   0.00000  Uiso   1.00
O354   O     0.48361   0.50000   0.18388   0.00000  Uiso   1.00
Zn355  Zn    0.44896   0.50001   0.25000   0.00000  Uiso   1.00
Zn356  Zn    0.55104   0.49999   0.25000   0.00000  Uiso   1.00
C357   C     0.39607   0.43163   0.20392   0.00000  Uiso   1.00
C358   C     0.38112   0.40613   0.16858   0.00000  Uiso   1.00
H359   H     0.34879   0.38661   0.18642   0.00000  Uiso   1.00
H360   H     0.37367   0.42697   0.14404   0.00000  Uiso   1.00
H361   H     0.41073   0.38477   0.14849   0.00000  Uiso   1.00
H362   H     0.43305   0.44267   0.18494   0.00000  Uiso   1.00
H363   H     0.39605   0.40998   0.23112   0.00000  Uiso   1.00
C364   C     0.60315   0.56599   0.30108   0.00000  Uiso   1.00
C365   C     0.60865   0.57663   0.34750   0.00000  Uiso   1.00
H366   H     0.61004   0.54777   0.36583   0.00000  Uiso   1.00
H367   H     0.64164   0.59570   0.34232   0.00000  Uiso   1.00
H368   H     0.57740   0.59535   0.36982   0.00000  Uiso   1.00
H369   H     0.61080   0.59441   0.27980   0.00000  Uiso   1.00
H370   H     0.56519   0.55766   0.31016   0.00000  Uiso   1.00
C371   C     0.83348   0.57993   0.25051   0.00000  Uiso   1.00
C372   C     0.83313   0.42006   0.24973   0.00000  Uiso   1.00
C373   C     0.78572   0.45353   0.04343   0.00000  Uiso   1.00
C374   C     0.89520   0.48634   0.44589   0.00000  Uiso   1.00
C375   C     0.75221   0.44881   0.02190   0.00000  Uiso   1.00
C376   C     0.92867   0.49169   0.46723   0.00000  Uiso   1.00
C377   C     0.87732   0.64562   0.23301   0.00000  Uiso   1.00
C378   C     0.78931   0.35438   0.26831   0.00000  Uiso   1.00
C379   C     0.87702   0.35504   0.23210   0.00000  Uiso   1.00
C380   C     0.78958   0.64495   0.26899   0.00000  Uiso   1.00
C381   C     0.83299   0.37586   0.24966   0.00000  Uiso   1.00
C382   C     0.83358   0.62413   0.25117   0.00000  Uiso   1.00
C383   C     0.98314   0.46924   0.22752   0.00000  Uiso   1.00
C384   C     0.68375   0.53119   0.27170   0.00000  Uiso   1.00
C385   C     0.69776   0.46854   0.22727   0.00000  Uiso   1.00
C386   C     0.96866   0.53088   0.27357   0.00000  Uiso   1.00
C387   C     0.80332   0.49926   0.33776   0.00000  Uiso   1.00
C388   C     0.86341   0.49928   0.16222   0.00000  Uiso   1.00
C389   C     0.78590   0.49146   0.38727   0.00000  Uiso   1.00
C390   C     0.88207   0.49528   0.11180   0.00000  Uiso   1.00
C391   C     0.72901   0.45976   0.45569   0.00000  Uiso   1.00
C392   C     0.94631   0.50108   0.03723   0.00000  Uiso   1.00
C393   C     0.74044   0.47374   0.41067   0.00000  Uiso   1.00
C394   C     0.93058   0.50318   0.08539   0.00000  Uiso   1.00
C395   C     0.81917   0.49556   0.40912   0.00000  Uiso   1.00
C396   C     0.85018   0.48316   0.09007   0.00000  Uiso   1.00
C397   C     0.81014   0.47847   0.45228   0.00000  Uiso   1.00
C398   C     0.86525   0.48008   0.04189   0.00000  Uiso   1.00
C399   C     0.76351   0.46227   0.47681   0.00000  Uiso   1.00
C400   C     0.91376   0.49059   0.01528   0.00000  Uiso   1.00
C401   C     0.84600   0.47862   0.47213   0.00000  Uiso   1.00
C402   C     0.83219   0.47043   0.01970   0.00000  Uiso   1.00
H403   H     0.71699   0.43566   0.04103   0.00000  Uiso   1.00
H404   H     0.96586   0.49851   0.44624   0.00000  Uiso   1.00
H405   H     0.81288   0.47838   0.11135   0.00000  Uiso   1.00
H406   H     0.85252   0.51205   0.39155   0.00000  Uiso   1.00
H407   H     0.95588   0.51221   0.10185   0.00000  Uiso   1.00
H408   H     0.71451   0.46961   0.39380   0.00000  Uiso   1.00
H409   H     0.69374   0.44616   0.47355   0.00000  Uiso   1.00
H410   H     0.98342   0.50908   0.01723   0.00000  Uiso   1.00
H411   H     0.77504   0.44240   0.07819   0.00000  Uiso   1.00
H412   H     0.90882   0.48729   0.40857   0.00000  Uiso   1.00
H413   H     0.91137   0.62945   0.21885   0.00000  Uiso   1.00
H414   H     0.75532   0.37055   0.28297   0.00000  Uiso   1.00
H415   H     0.91099   0.37173   0.21744   0.00000  Uiso   1.00
H416   H     0.75563   0.62823   0.28366   0.00000  Uiso   1.00
H417   H     0.96948   0.44500   0.21054   0.00000  Uiso   1.00
H418   H     0.69709   0.55601   0.28831   0.00000  Uiso   1.00
N419   N     0.71426   0.50001   0.25001   0.00000  Uiso   1.00
N420   N     0.95241   0.49999   0.24999   0.00000  Uiso   1.00
O421   O     0.79512   0.56108   0.25000   0.00000  Uiso   1.00
O422   O     0.87154   0.43892   0.25000   0.00000  Uiso   1.00
O423   O     0.87157   0.56107   0.25000   0.00000  Uiso   1.00
O424   O     0.79510   0.43893   0.25000   0.00000  Uiso   1.00
O425   O     0.77328   0.50001   0.31612   0.00000  Uiso   1.00
O426   O     0.89339   0.49999   0.18388   0.00000  Uiso   1.00
O427   O     0.84972   0.50000   0.31612   0.00000  Uiso   1.00
O428   O     0.81695   0.50000   0.18388   0.00000  Uiso   1.00
Zn429  Zn    0.78229   0.50001   0.25000   0.00000  Uiso   1.00
Zn430  Zn    0.88438   0.49999   0.25000   0.00000  Uiso   1.00
C431   C     0.72941   0.43163   0.20392   0.00000  Uiso   1.00
C432   C     0.71446   0.40613   0.16858   0.00000  Uiso   1.00
H433   H     0.68213   0.38661   0.18642   0.00000  Uiso   1.00
H434   H     0.70700   0.42697   0.14404   0.00000  Uiso   1.00
H435   H     0.74406   0.38477   0.14849   0.00000  Uiso   1.00
H436   H     0.76638   0.44267   0.18494   0.00000  Uiso   1.00
H437   H     0.72938   0.40998   0.23112   0.00000  Uiso   1.00
C438   C     0.93649   0.56599   0.30108   0.00000  Uiso   1.00
C439   C     0.94198   0.57663   0.34750   0.00000  Uiso   1.00
H440   H     0.94338   0.54777   0.36583   0.00000  Uiso   1.00
H441   H     0.97497   0.59570   0.34232   0.00000  Uiso   1.00
H442   H     0.91073   0.59535   0.36982   0.00000  Uiso   1.00
H443   H     0.94414   0.59441   0.27980   0.00000  Uiso   1.00
H444   H     0.89853   0.55766   0.31016   0.00000  Uiso   1.00
C445   C     0.16681   0.91327   0.25051   0.00000  Uiso   1.00
C446   C     0.16646   0.75339   0.24973   0.00000  Uiso   1.00
C447   C     0.11905   0.78687   0.04343   0.00000  Uiso   1.00
C448   C     0.22853   0.81967   0.44589   0.00000  Uiso   1.00
C449   C     0.08554   0.78215   0.02190   0.00000  Uiso   1.00
C450   C     0.26200   0.82503   0.46723   0.00000  Uiso   1.00
C451   C     0.21065   0.97896   0.23301   0.00000  Uiso   1.00
C452   C     0.12264   0.68771   0.26831   0.00000  Uiso   1.00
C453   C     0.21036   0.68837   0.23210   0.00000  Uiso   1.00
C454   C     0.12292   0.97828   0.26899   0.00000  Uiso   1.00
C455   C     0.16633   0.70919   0.24966   0.00000  Uiso   1.00
C456   C     0.16692   0.95747   0.25117   0.00000  Uiso   1.00
C457   C     0.31647   0.80258   0.22752   0.00000  Uiso   1.00
C458   C     0.01708   0.86452   0.27170   0.00000  Uiso   1.00
C459   C     0.03109   0.80187   0.22727   0.00000  Uiso   1.00
C460   C     0.30199   0.86421   0.27357   0.00000  Uiso   1.00
C461   C     0.13665   0.83259   0.33776   0.00000  Uiso   1.00
C462   C     0.19675   0.83261   0.16222   0.00000  Uiso   1.00
C463   C     0.11923   0.82480   0.38727   0.00000  Uiso   1.00
C464   C     0.21540   0.82862   0.11180   0.00000  Uiso   1.00
C465   C     0.06235   0.79309   0.45569   0.00000  Uiso   1.00
C466   C     0.27964   0.83441   0.03723   0.00000  Uiso   1.00
C467   C     0.07377   0.80708   0.41067   0.00000  Uiso   1.00
C468   C     0.26391   0.83651   0.08539   0.00000  Uiso   1.00
C469   C     0.15250   0.82889   0.40912   0.00000  Uiso   1.00
C470   C     0.18351   0.81650   0.09007   0.00000  Uiso   1.00
C471   C     0.14347   0.81180   0.45228   0.00000  Uiso   1.00
C472   C     0.19859   0.81341   0.04189   0.00000  Uiso   1.00
C473   C     0.09684   0.79560   0.47681   0.00000  Uiso   1.00
C474   C     0.24709   0.82392   0.01528   0.00000  Uiso   1.00
C475   C     0.17933   0.81195   0.47213   0.00000  Uiso   1.00
C476   C     0.16553   0.80376   0.01970   0.00000  Uiso   1.00
H477   H     0.05032   0.76899   0.04103   0.00000  Uiso   1.00
H478   H     0.29919   0.83184   0.44624   0.00000  Uiso   1.00
H479   H     0.14622   0.81172   0.11135   0.00000  Uiso   1.00
H480   H     0.18585   0.84538   0.39155   0.00000  Uiso   1.00
H481   H     0.28921   0.84555   0.10185   0.00000  Uiso   1.00
H482   H     0.04784   0.80295   0.39380   0.00000  Uiso   1.00
H483   H     0.02708   0.77949   0.47355   0.00000  Uiso   1.00
H484   H     0.31676   0.84241   0.01723   0.00000  Uiso   1.00
H485   H     0.10837   0.77574   0.07819   0.00000  Uiso   1.00
H486   H     0.24215   0.82062   0.40857   0.00000  Uiso   1.00
H487   H     0.24470   0.96278   0.21885   0.00000  Uiso   1.00
H488   H     0.08865   0.70388   0.28297   0.00000  Uiso   1.00
H489   H     0.24432   0.70507   0.21744   0.00000  Uiso   1.00
H490   H     0.08897   0.96156   0.28366   0.00000  Uiso   1.00
H491   H     0.30281   0.77834   0.21054   0.00000  Uiso   1.00
H492   H     0.03042   0.88935   0.28831   0.00000  Uiso   1.00
N493   N     0.04759   0.83334   0.25001   0.00000  Uiso   1.00
N494   N     0.28574   0.83332   0.24999   0.00000  Uiso   1.00
O495   O     0.12846   0.89442   0.25000   0.00000  Uiso   1.00
O496   O     0.20488   0.77225   0.25000   0.00000  Uiso   1.00
O497   O     0.20490   0.89441   0.25000   0.00000  Uiso   1.00
O498   O     0.12843   0.77226   0.25000   0.00000  Uiso   1.00
O499   O     0.10661   0.83334   0.31612   0.00000  Uiso   1.00
O500   O     0.22672   0.83333   0.18388   0.00000  Uiso   1.00
O501   O     0.18305   0.83333   0.31612   0.00000  Uiso   1.00
O502   O     0.15028   0.83334   0.18388   0.00000  Uiso   1.00
Zn503  Zn    0.11562   0.83334   0.25000   0.00000  Uiso   1.00
Zn504  Zn    0.21771   0.83333   0.25000   0.00000  Uiso   1.00
C505   C     0.06274   0.76496   0.20392   0.00000  Uiso   1.00
C506   C     0.04779   0.73947   0.16858   0.00000  Uiso   1.00
H507   H     0.01546   0.71994   0.18642   0.00000  Uiso   1.00
H508   H     0.04033   0.76031   0.14404   0.00000  Uiso   1.00
H509   H     0.07739   0.71810   0.14849   0.00000  Uiso   1.00
H510   H     0.09972   0.77600   0.18494   0.00000  Uiso   1.00
H511   H     0.06271   0.74331   0.23112   0.00000  Uiso   1.00
C512   C     0.26982   0.89933   0.30108   0.00000  Uiso   1.00
C513   C     0.27531   0.90997   0.34750   0.00000  Uiso   1.00
H514   H     0.27671   0.88110   0.36583   0.00000  Uiso   1.00
H515   H     0.30830   0.92903   0.34232   0.00000  Uiso   1.00
H516   H     0.24407   0.92868   0.36982   0.00000  Uiso   1.00
H517   H     0.27747   0.92774   0.27980   0.00000  Uiso   1.00
H518   H     0.23186   0.89099   0.31016   0.00000  Uiso   1.00
C519   C     0.50015   0.91327   0.25051   0.00000  Uiso   1.00
C520   C     0.49979   0.75339   0.24973   0.00000  Uiso   1.00
C521   C     0.45238   0.78687   0.04343   0.00000  Uiso   1.00
C522   C     0.56187   0.81967   0.44589   0.00000  Uiso   1.00
C523   C     0.41888   0.78215   0.02190   0.00000  Uiso   1.00
C524   C     0.59534   0.82503   0.46723   0.00000  Uiso   1.00
C525   C     0.54399   0.97896   0.23301   0.00000  Uiso   1.00
C526   C     0.45598   0.68771   0.26831   0.00000  Uiso   1.00
C527   C     0.54369   0.68837   0.23210   0.00000  Uiso   1.00
C528   C     0.45625   0.97828   0.26899   0.00000  Uiso   1.00
C529   C     0.49966   0.70919   0.24966   0.00000  Uiso   1.00
C530   C     0.50025   0.95747   0.25117   0.00000  Uiso   1.00
C531   C     0.64981   0.80258   0.22752   0.00000  Uiso   1.00
C532   C     0.35042   0.86452   0.27170   0.00000  Uiso   1.00
C533   C     0.36442   0.80187   0.22727   0.00000  Uiso   1.00
C534   C     0.63533   0.86421   0.27357   0.00000  Uiso   1.00
C535   C     0.46999   0.83259   0.33776   0.00000  Uiso   1.00
C536   C     0.53008   0.83261   0.16222   0.00000  Uiso   1.00
C537   C     0.45257   0.82480   0.38727   0.00000  Uiso   1.00
C538   C     0.54874   0.82862   0.11180   0.00000  Uiso   1.00
C539   C     0.39568   0.79309   0.45569   0.00000  Uiso   1.00
C540   C     0.61297   0.83441   0.03723   0.00000  Uiso   1.00
C541   C     0.40711   0.80708   0.41067   0.00000  Uiso   1.00
C542   C     0.59725   0.83651   0.08539   0.00000  Uiso   1.00
C543   C     0.48584   0.82889   0.40912   0.00000  Uiso   1.00
C544   C     0.51685   0.81650   0.09007   0.00000  Uiso   1.00
C545   C     0.47681   0.81180   0.45228   0.00000  Uiso   1.00
C546   C     0.53192   0.81341   0.04189   0.00000  Uiso   1.00
C547   C     0.43017   0.79560   0.47681   0.00000  Uiso   1.00
C548   C     0.58042   0.82392   0.01528   0.00000  Uiso   1.00
C549   C     0.51267   0.81195   0.47213   0.00000  Uiso   1.00
C550   C     0.49886   0.80376   0.01970   0.00000  Uiso   1.00
H551   H     0.38366   0.76899   0.04103   0.00000  Uiso   1.00
H552   H     0.63252   0.83184   0.44624   0.00000  Uiso   1.00
H553   H     0.47955   0.81172   0.11135   0.00000  Uiso   1.00
H554   H     0.51918   0.84538   0.39155   0.00000  Uiso   1.00
H555   H     0.62254   0.84555   0.10185   0.00000  Uiso   1.00
H556   H     0.38118   0.80295   0.39380   0.00000  Uiso   1.00
H557   H     0.36041   0.77949   0.47355   0.00000  Uiso   1.00
H558   H     0.65009   0.84241   0.01723   0.00000  Uiso   1.00
H559   H     0.44171   0.77574   0.07819   0.00000  Uiso   1.00
H560   H     0.57549   0.82062   0.40857   0.00000  Uiso   1.00
H561   H     0.57804   0.96278   0.21885   0.00000  Uiso   1.00
H562   H     0.42199   0.70388   0.28297   0.00000  Uiso   1.00
H563   H     0.57766   0.70507   0.21744   0.00000  Uiso   1.00
H564   H     0.42230   0.96156   0.28366   0.00000  Uiso   1.00
H565   H     0.63614   0.77834   0.21054   0.00000  Uiso   1.00
H566   H     0.36376   0.88935   0.28831   0.00000  Uiso   1.00
N567   N     0.38093   0.83334   0.25001   0.00000  Uiso   1.00
N568   N     0.61907   0.83332   0.24999   0.00000  Uiso   1.00
O569   O     0.46179   0.89442   0.25000   0.00000  Uiso   1.00
O570   O     0.53821   0.77225   0.25000   0.00000  Uiso   1.00
O571   O     0.53823   0.89441   0.25000   0.00000  Uiso   1.00
O572   O     0.46177   0.77226   0.25000   0.00000  Uiso   1.00
O573   O     0.43994   0.83334   0.31612   0.00000  Uiso   1.00
O574   O     0.56006   0.83333   0.18388   0.00000  Uiso   1.00
O575   O     0.51639   0.83333   0.31612   0.00000  Uiso   1.00
O576   O     0.48361   0.83334   0.18388   0.00000  Uiso   1.00
Zn577  Zn    0.44896   0.83334   0.25000   0.00000  Uiso   1.00
Zn578  Zn    0.55104   0.83333   0.25000   0.00000  Uiso   1.00
C579   C     0.39607   0.76496   0.20392   0.00000  Uiso   1.00
C580   C     0.38112   0.73947   0.16858   0.00000  Uiso   1.00
H581   H     0.34879   0.71994   0.18642   0.00000  Uiso   1.00
H582   H     0.37367   0.76031   0.14404   0.00000  Uiso   1.00
H583   H     0.41073   0.71810   0.14849   0.00000  Uiso   1.00
H584   H     0.43305   0.77600   0.18494   0.00000  Uiso   1.00
H585   H     0.39605   0.74331   0.23112   0.00000  Uiso   1.00
C586   C     0.60315   0.89933   0.30108   0.00000  Uiso   1.00
C587   C     0.60865   0.90997   0.34750   0.00000  Uiso   1.00
H588   H     0.61004   0.88110   0.36583   0.00000  Uiso   1.00
H589   H     0.64164   0.92903   0.34232   0.00000  Uiso   1.00
H590   H     0.57740   0.92868   0.36982   0.00000  Uiso   1.00
H591   H     0.61080   0.92774   0.27980   0.00000  Uiso   1.00
H592   H     0.56519   0.89099   0.31016   0.00000  Uiso   1.00
C593   C     0.83348   0.91327   0.25051   0.00000  Uiso   1.00
C594   C     0.83313   0.75339   0.24973   0.00000  Uiso   1.00
C595   C     0.78572   0.78687   0.04343   0.00000  Uiso   1.00
C596   C     0.89520   0.81967   0.44589   0.00000  Uiso   1.00
C597   C     0.75221   0.78215   0.02190   0.00000  Uiso   1.00
C598   C     0.92867   0.82503   0.46723   0.00000  Uiso   1.00
C599   C     0.87732   0.97896   0.23301   0.00000  Uiso   1.00
C600   C     0.78931   0.68771   0.26831   0.00000  Uiso   1.00
C601   C     0.87702   0.68837   0.23210   0.00000  Uiso   1.00
C602   C     0.78958   0.97828   0.26899   0.00000  Uiso   1.00
C603   C     0.83299   0.70919   0.24966   0.00000  Uiso   1.00
C604   C     0.83358   0.95747   0.25117   0.00000  Uiso   1.00
C605   C     0.98314   0.80258   0.22752   0.00000  Uiso   1.00
C606   C     0.68375   0.86452   0.27170   0.00000  Uiso   1.00
C607   C     0.69776   0.80187   0.22727   0.00000  Uiso   1.00
C608   C     0.96866   0.86421   0.27357   0.00000  Uiso   1.00
C609   C     0.80332   0.83259   0.33776   0.00000  Uiso   1.00
C610   C     0.86341   0.83261   0.16222   0.00000  Uiso   1.00
C611   C     0.78590   0.82480   0.38727   0.00000  Uiso   1.00
C612   C     0.88207   0.82862   0.11180   0.00000  Uiso   1.00
C613   C     0.72901   0.79309   0.45569   0.00000  Uiso   1.00
C614   C     0.94631   0.83441   0.03723   0.00000  Uiso   1.00
C615   C     0.74044   0.80708   0.41067   0.00000  Uiso   1.00
C616   C     0.93058   0.83651   0.08539   0.00000  Uiso   1.00
C617   C     0.81917   0.82889   0.40912   0.00000  Uiso   1.00
C618   C     0.85018   0.81650   0.09007   0.00000  Uiso   1.00
C619   C     0.81014   0.81180   0.45228   0.00000  Uiso   1.00
C620   C     0.86525   0.81341   0.04189   0.00000  Uiso   1.00
C621   C     0.76351   0.79560   0.47681   0.00000  Uiso   1.00
C622   C     0.91376   0.82392   0.01528   0.00000  Uiso   1.00
C623   C     0.84600   0.81195   0.47213   0.00000  Uiso   1.00
C624   C     0.83219   0.80376   0.01970   0.00000  Uiso   1.00
H625   H     0.71699   0.76899   0.04103   0.00000  Uiso   1.00
H626   H     0.96586   0.83184   0.44624   0.00000  Uiso   1.00
H627   H     0.81288   0.81172   0.11135   0.00000  Uiso   1.00
H628   H     0.85252   0.84538   0.39155   0.00000  Uiso   1.00
H629   H     0.95588   0.84555   0.10185   0.00000  Uiso   1.00
H630   H     0.71451   0.80295   0.39380   0.00000  Uiso   1.00
H631   H     0.69374   0.77949   0.47355   0.00000  Uiso   1.00
H632   H     0.98342   0.84241   0.01723   0.00000  Uiso   1.00
H633   H     0.77504   0.77574   0.07819   0.00000  Uiso   1.00
H634   H     0.90882   0.82062   0.40857   0.00000  Uiso   1.00
H635   H     0.91137   0.96278   0.21885   0.00000  Uiso   1.00
H636   H     0.75532   0.70388   0.28297   0.00000  Uiso   1.00
H637   H     0.91099   0.70507   0.21744   0.00000  Uiso   1.00
H638   H     0.75563   0.96156   0.28366   0.00000  Uiso   1.00
H639   H     0.96948   0.77834   0.21054   0.00000  Uiso   1.00
H640   H     0.69709   0.88935   0.28831   0.00000  Uiso   1.00
N641   N     0.71426   0.83334   0.25001   0.00000  Uiso   1.00
N642   N     0.95241   0.83332   0.24999   0.00000  Uiso   1.00
O643   O     0.79512   0.89442   0.25000   0.00000  Uiso   1.00
O644   O     0.87154   0.77225   0.25000   0.00000  Uiso   1.00
O645   O     0.87157   0.89441   0.25000   0.00000  Uiso   1.00
O646   O     0.79510   0.77226   0.25000   0.00000  Uiso   1.00
O647   O     0.77328   0.83334   0.31612   0.00000  Uiso   1.00
O648   O     0.89339   0.83333   0.18388   0.00000  Uiso   1.00
O649   O     0.84972   0.83333   0.31612   0.00000  Uiso   1.00
O650   O     0.81695   0.83334   0.18388   0.00000  Uiso   1.00
Zn651  Zn    0.78229   0.83334   0.25000   0.00000  Uiso   1.00
Zn652  Zn    0.88438   0.83333   0.25000   0.00000  Uiso   1.00
C653   C     0.72941   0.76496   0.20392   0.00000  Uiso   1.00
C654   C     0.71446   0.73947   0.16858   0.00000  Uiso   1.00
H655   H     0.68213   0.71994   0.18642   0.00000  Uiso   1.00
H656   H     0.70700   0.76031   0.14404   0.00000  Uiso   1.00
H657   H     0.74406   0.71810   0.14849   0.00000  Uiso   1.00
H658   H     0.76638   0.77600   0.18494   0.00000  Uiso   1.00
H659   H     0.72938   0.74331   0.23112   0.00000  Uiso   1.00
C660   C     0.93649   0.89933   0.30108   0.00000  Uiso   1.00
C661   C     0.94198   0.90997   0.34750   0.00000  Uiso   1.00
H662   H     0.94338   0.88110   0.36583   0.00000  Uiso   1.00
H663   H     0.97497   0.92903   0.34232   0.00000  Uiso   1.00
H664   H     0.91073   0.92868   0.36982   0.00000  Uiso   1.00
H665   H     0.94414   0.92774   0.27980   0.00000  Uiso   1.00
H666   H     0.89853   0.89099   0.31016   0.00000  Uiso   1.00
C667   C     0.16681   0.24660   0.75051   0.00000  Uiso   1.00
C668   C     0.16646   0.08673   0.74973   0.00000  Uiso   1.00
C669   C     0.11905   0.12020   0.54343   0.00000  Uiso   1.00
C670   C     0.22853   0.15300   0.94589   0.00000  Uiso   1.00
C671   C     0.08554   0.11548   0.52190   0.00000  Uiso   1.00
C672   C     0.26200   0.15836   0.96723   0.00000  Uiso   1.00
C673   C     0.21065   0.31229   0.73301   0.00000  Uiso   1.00
C674   C     0.12264   0.02105   0.76831   0.00000  Uiso   1.00
C675   C     0.21036   0.02171   0.73210   0.00000  Uiso   1.00
C676   C     0.12292   0.31161   0.76899   0.00000  Uiso   1.00
C677   C     0.16633   0.04253   0.74966   0.00000  Uiso   1.00
C678   C     0.16692   0.29080   0.75117   0.00000  Uiso   1.00
C679   C     0.31647   0.13591   0.72752   0.00000  Uiso   1.00
C680   C     0.01708   0.19786   0.77170   0.00000  Uiso   1.00
C681   C     0.03109   0.13520   0.72727   0.00000  Uiso   1.00
C682   C     0.30199   0.19754   0.77357   0.00000  Uiso   1.00
C683   C     0.13665   0.16593   0.83776   0.00000  Uiso   1.00
C684   C     0.19675   0.16595   0.66222   0.00000  Uiso   1.00
C685   C     0.11923   0.15813   0.88727   0.00000  Uiso   1.00
C686   C     0.21540   0.16195   0.61180   0.00000  Uiso   1.00
C687   C     0.06235   0.12642   0.95569   0.00000  Uiso   1.00
C688   C     0.27964   0.16775   0.53723   0.00000  Uiso   1.00
C689   C     0.07377   0.14041   0.91067   0.00000  Uiso   1.00
C690   C     0.26391   0.16985   0.58539   0.00000  Uiso   1.00
C691   C     0.15250   0.16222   0.90912   0.00000  Uiso   1.00
C692   C     0.18351   0.14983   0.59007   0.00000  Uiso   1.00
C693   C     0.14347   0.14513   0.95228   0.00000  Uiso   1.00
C694   C     0.19859   0.14674   0.54189   0.00000  Uiso   1.00
C695   C     0.09684   0.12893   0.97681   0.00000  Uiso   1.00
C696   C     0.24709   0.15725   0.51528   0.00000  Uiso   1.00
C697   C     0.17933   0.14528   0.97213   0.00000  Uiso   1.00
C698   C     0.16553   0.13710   0.51970   0.00000  Uiso   1.00
H699   H     0.05032   0.10232   0.54103   0.00000  Uiso   1.00
H700   H     0.29919   0.16518   0.94624   0.00000  Uiso   1.00
H701   H     0.14622   0.14505   0.61135   0.00000  Uiso   1.00
H702   H     0.18585   0.17871   0.89155   0.00000  Uiso   1.00
H703   H     0.28921   0.17888   0.60185   0.00000  Uiso   1.00
H704   H     0.04784   0.13628   0.89380   0.00000  Uiso   1.00
H705   H     0.02708   0.11282   0.97355   0.00000  Uiso   1.00
H706   H     0.31676   0.17575   0.51723   0.00000  Uiso   1.00
H707   H     0.10837   0.10907   0.57819   0.00000  Uiso   1.00
H708   H     0.24215   0.15396   0.90857   0.00000  Uiso   1.00
H709   H     0.24470   0.29611   0.71885   0.00000  Uiso   1.00
H710   H     0.08865   0.03722   0.78297   0.00000  Uiso   1.00
H711   H     0.24432   0.03840   0.71744   0.00000  Uiso   1.00
H712   H     0.08897   0.29490   0.78366   0.00000  Uiso   1.00
H713   H     0.30281   0.11167   0.71054   0.00000  Uiso   1.00
H714   H     0.03042   0.22268   0.78831   0.00000  Uiso   1.00
N715   N     0.04759   0.16668   0.75001   0.00000  Uiso   1.00
N716   N     0.28574   0.16666   0.74999   0.00000  Uiso   1.00
O717   O     0.12846   0.22775   0.75000   0.00000  Uiso   1.00
O718   O     0.20488   0.10558   0.75000   0.00000  Uiso   1.00
O719   O     0.20490   0.22774   0.75000   0.00000  Uiso   1.00
O720   O     0.12843   0.10559   0.75000   0.00000  Uiso   1.00
O721   O     0.10661   0.16667   0.81612   0.00000  Uiso   1.00
O722   O     0.22672   0.16666   0.68388   0.00000  Uiso   1.00
O723   O     0.18305   0.16666   0.81612   0.00000  Uiso   1.00
O724   O     0.15028   0.16667   0.68388   0.00000  Uiso   1.00
Zn725  Zn    0.11562   0.16667   0.75000   0.00000  Uiso   1.00
Zn726  Zn    0.21771   0.16666   0.75000   0.00000  Uiso   1.00
C727   C     0.06274   0.09830   0.70392   0.00000  Uiso   1.00
C728   C     0.04779   0.07280   0.66858   0.00000  Uiso   1.00
H729   H     0.01546   0.05328   0.68642   0.00000  Uiso   1.00
H730   H     0.04033   0.09364   0.64404   0.00000  Uiso   1.00
H731   H     0.07739   0.05143   0.64849   0.00000  Uiso   1.00
H732   H     0.09972   0.10934   0.68494   0.00000  Uiso   1.00
H733   H     0.06271   0.07664   0.73112   0.00000  Uiso   1.00
C734   C     0.26982   0.23266   0.80108   0.00000  Uiso   1.00
C735   C     0.27531   0.24330   0.84750   0.00000  Uiso   1.00
H736   H     0.27671   0.21443   0.86583   0.00000  Uiso   1.00
H737   H     0.30830   0.26237   0.84232   0.00000  Uiso   1.00
H738   H     0.24407   0.26201   0.86982   0.00000  Uiso   1.00
H739   H     0.27747   0.26108   0.77980   0.00000  Uiso   1.00
H740   H     0.23186   0.22432   0.81016   0.00000  Uiso   1.00
C741   C     0.50015   0.24660   0.75051   0.00000  Uiso   1.00
C742   C     0.49979   0.08673   0.74973   0.00000  Uiso   1.00
C743   C     0.45238   0.12020   0.54343   0.00000  Uiso   1.00
C744   C     0.56187   0.15300   0.94589   0.00000  Uiso   1.00
C745   C     0.41888   0.11548   0.52190   0.00000  Uiso   1.00
C746   C     0.59534   0.15836   0.96723   0.00000  Uiso   1.00
C747   C     0.54399   0.31229   0.73301   0.00000  Uiso   1.00
C748   C     0.45598   0.02105   0.76831   0.00000  Uiso   1.00
C749   C     0.54369   0.02171   0.73210   0.00000  Uiso   1.00
C750   C     0.45625   0.31161   0.76899   0.00000  Uiso   1.00
C751   C     0.49966   0.04253   0.74966   0.00000  Uiso   1.00
C752   C     0.50025   0.29080   0.75117   0.00000  Uiso   1.00
C753   C     0.64981   0.13591   0.72752   0.00000  Uiso   1.00
C754   C     0.35042   0.19786   0.77170   0.00000  Uiso   1.00
C755   C     0.36442   0.13520   0.72727   0.00000  Uiso   1.00
C756   C     0.63533   0.19754   0.77357   0.00000  Uiso   1.00
C757   C     0.46999   0.16593   0.83776   0.00000  Uiso   1.00
C758   C     0.53008   0.16595   0.66222   0.00000  Uiso   1.00
C759   C     0.45257   0.15813   0.88727   0.00000  Uiso   1.00
C760   C     0.54874   0.16195   0.61180   0.00000  Uiso   1.00
C761   C     0.39568   0.12642   0.95569   0.00000  Uiso   1.00
C762   C     0.61297   0.16775   0.53723   0.00000  Uiso   1.00
C763   C     0.40711   0.14041   0.91067   0.00000  Uiso   1.00
C764   C     0.59725   0.16985   0.58539   0.00000  Uiso   1.00
C765   C     0.48584   0.16222   0.90912   0.00000  Uiso   1.00
C766   C     0.51685   0.14983   0.59007   0.00000  Uiso   1.00
C767   C     0.47681   0.14513   0.95228   0.00000  Uiso   1.00
C768   C     0.53192   0.14674   0.54189   0.00000  Uiso   1.00
C769   C     0.43017   0.12893   0.97681   0.00000  Uiso   1.00
C770   C     0.58042   0.15725   0.51528   0.00000  Uiso   1.00
C771   C     0.51267   0.14528   0.97213   0.00000  Uiso   1.00
C772   C     0.49886   0.13710   0.51970   0.00000  Uiso   1.00
H773   H     0.38366   0.10232   0.54103   0.00000  Uiso   1.00
H774   H     0.63252   0.16518   0.94624   0.00000  Uiso   1.00
H775   H     0.47955   0.14505   0.61135   0.00000  Uiso   1.00
H776   H     0.51918   0.17871   0.89155   0.00000  Uiso   1.00
H777   H     0.62254   0.17888   0.60185   0.00000  Uiso   1.00
H778   H     0.38118   0.13628   0.89380   0.00000  Uiso   1.00
H779   H     0.36041   0.11282   0.97355   0.00000  Uiso   1.00
H780   H     0.65009   0.17575   0.51723   0.00000  Uiso   1.00
H781   H     0.44171   0.10907   0.57819   0.00000  Uiso   1.00
H782   H     0.57549   0.15396   0.90857   0.00000  Uiso   1.00
H783   H     0.57804   0.29611   0.71885   0.00000  Uiso   1.00
H784   H     0.42199   0.03722   0.78297   0.00000  Uiso   1.00
H785   H     0.57766   0.03840   0.71744   0.00000  Uiso   1.00
H786   H     0.42230   0.29490   0.78366   0.00000  Uiso   1.00
H787   H     0.63614   0.11167   0.71054   0.00000  Uiso   1.00
H788   H     0.36376   0.22268   0.78831   0.00000  Uiso   1.00
N789   N     0.38093   0.16668   0.75001   0.00000  Uiso   1.00
N790   N     0.61907   0.16666   0.74999   0.00000  Uiso   1.00
O791   O     0.46179   0.22775   0.75000   0.00000  Uiso   1.00
O792   O     0.53821   0.10558   0.75000   0.00000  Uiso   1.00
O793   O     0.53823   0.22774   0.75000   0.00000  Uiso   1.00
O794   O     0.46177   0.10559   0.75000   0.00000  Uiso   1.00
O795   O     0.43994   0.16667   0.81612   0.00000  Uiso   1.00
O796   O     0.56006   0.16666   0.68388   0.00000  Uiso   1.00
O797   O     0.51639   0.16666   0.81612   0.00000  Uiso   1.00
O798   O     0.48361   0.16667   0.68388   0.00000  Uiso   1.00
Zn799  Zn    0.44896   0.16667   0.75000   0.00000  Uiso   1.00
Zn800  Zn    0.55104   0.16666   0.75000   0.00000  Uiso   1.00
C801   C     0.39607   0.09830   0.70392   0.00000  Uiso   1.00
C802   C     0.38112   0.07280   0.66858   0.00000  Uiso   1.00
H803   H     0.34879   0.05328   0.68642   0.00000  Uiso   1.00
H804   H     0.37367   0.09364   0.64404   0.00000  Uiso   1.00
H805   H     0.41073   0.05143   0.64849   0.00000  Uiso   1.00
H806   H     0.43305   0.10934   0.68494   0.00000  Uiso   1.00
H807   H     0.39605   0.07664   0.73112   0.00000  Uiso   1.00
C808   C     0.60315   0.23266   0.80108   0.00000  Uiso   1.00
C809   C     0.60865   0.24330   0.84750   0.00000  Uiso   1.00
H810   H     0.61004   0.21443   0.86583   0.00000  Uiso   1.00
H811   H     0.64164   0.26237   0.84232   0.00000  Uiso   1.00
H812   H     0.57740   0.26201   0.86982   0.00000  Uiso   1.00
H813   H     0.61080   0.26108   0.77980   0.00000  Uiso   1.00
H814   H     0.56519   0.22432   0.81016   0.00000  Uiso   1.00
C815   C     0.83348   0.24660   0.75051   0.00000  Uiso   1.00
C816   C     0.83313   0.08673   0.74973   0.00000  Uiso   1.00
C817   C     0.78572   0.12020   0.54343   0.00000  Uiso   1.00
C818   C     0.89520   0.15300   0.94589   0.00000  Uiso   1.00
C819   C     0.75221   0.11548   0.52190   0.00000  Uiso   1.00
C820   C     0.92867   0.15836   0.96723   0.00000  Uiso   1.00
C821   C     0.87732   0.31229   0.73301   0.00000  Uiso   1.00
C822   C     0.78931   0.02105   0.76831   0.00000  Uiso   1.00
C823   C     0.87702   0.02171   0.73210   0.00000  Uiso   1.00
C824   C     0.78958   0.31161   0.76899   0.00000  Uiso   1.00
C825   C     0.83299   0.04253   0.74966   0.00000  Uiso   1.00
C826   C     0.83358   0.29080   0.75117   0.00000  Uiso   1.00
C827   C     0.98314   0.13591   0.72752   0.00000  Uiso   1.00
C828   C     0.68375   0.19786   0.77170   0.00000  Uiso   1.00
C829   C     0.69776   0.13520   0.72727   0.00000  Uiso   1.00
C830   C     0.96866   0.19754   0.77357   0.00000  Uiso   1.00
C831   C     0.80332   0.16593   0.83776   0.00000  Uiso   1.00
C832   C     0.86341   0.16595   0.66222   0.00000  Uiso   1.00
C833   C     0.78590   0.15813   0.88727   0.00000  Uiso   1.00
C834   C     0.88207   0.16195   0.61180   0.00000  Uiso   1.00
C835   C     0.72901   0.12642   0.95569   0.00000  Uiso   1.00
C836   C     0.94631   0.16775   0.53723   0.00000  Uiso   1.00
C837   C     0.74044   0.14041   0.91067   0.00000  Uiso   1.00
C838   C     0.93058   0.16985   0.58539   0.00000  Uiso   1.00
C839   C     0.81917   0.16222   0.90912   0.00000  Uiso   1.00
C840   C     0.85018   0.14983   0.59007   0.00000  Uiso   1.00
C841   C     0.81014   0.14513   0.95228   0.00000  Uiso   1.00
C842   C     0.86525   0.14674   0.54189   0.00000  Uiso   1.00
C843   C     0.76351   0.12893   0.97681   0.00000  Uiso   1.00
C844   C     0.91376   0.15725   0.51528   0.00000  Uiso   1.00
C845   C     0.84600   0.14528   0.97213   0.00000  Uiso   1.00
C846   C     0.83219   0.13710   0.51970   0.00000  Uiso   1.00
H847   H     0.71699   0.10232   0.54103   0.00000  Uiso   1.00
H848   H     0.96586   0.16518   0.94624   0.00000  Uiso   1.00
H849   H     0.81288   0.14505   0.61135   0.00000  Uiso   1.00
H850   H     0.85252   0.17871   0.89155   0.00000  Uiso   1.00
H851   H     0.95588   0.17888   0.60185   0.00000  Uiso   1.00
H852   H     0.71451   0.13628   0.89380   0.00000  Uiso   1.00
H853   H     0.69374   0.11282   0.97355   0.00000  Uiso   1.00
H854   H     0.98342   0.17575   0.51723   0.00000  Uiso   1.00
H855   H     0.77504   0.10907   0.57819   0.00000  Uiso   1.00
H856   H     0.90882   0.15396   0.90857   0.00000  Uiso   1.00
H857   H     0.91137   0.29611   0.71885   0.00000  Uiso   1.00
H858   H     0.75532   0.03722   0.78297   0.00000  Uiso   1.00
H859   H     0.91099   0.03840   0.71744   0.00000  Uiso   1.00
H860   H     0.75563   0.29490   0.78366   0.00000  Uiso   1.00
H861   H     0.96948   0.11167   0.71054   0.00000  Uiso   1.00
H862   H     0.69709   0.22268   0.78831   0.00000  Uiso   1.00
N863   N     0.71426   0.16668   0.75001   0.00000  Uiso   1.00
N864   N     0.95241   0.16666   0.74999   0.00000  Uiso   1.00
O865   O     0.79512   0.22775   0.75000   0.00000  Uiso   1.00
O866   O     0.87154   0.10558   0.75000   0.00000  Uiso   1.00
O867   O     0.87157   0.22774   0.75000   0.00000  Uiso   1.00
O868   O     0.79510   0.10559   0.75000   0.00000  Uiso   1.00
O869   O     0.77328   0.16667   0.81612   0.00000  Uiso   1.00
O870   O     0.89339   0.16666   0.68388   0.00000  Uiso   1.00
O871   O     0.84972   0.16666   0.81612   0.00000  Uiso   1.00
O872   O     0.81695   0.16667   0.68388   0.00000  Uiso   1.00
Zn873  Zn    0.78229   0.16667   0.75000   0.00000  Uiso   1.00
Zn874  Zn    0.88438   0.16666   0.75000   0.00000  Uiso   1.00
C875   C     0.72941   0.09830   0.70392   0.00000  Uiso   1.00
C876   C     0.71446   0.07280   0.66858   0.00000  Uiso   1.00
H877   H     0.68213   0.05328   0.68642   0.00000  Uiso   1.00
H878   H     0.70700   0.09364   0.64404   0.00000  Uiso   1.00
H879   H     0.74406   0.05143   0.64849   0.00000  Uiso   1.00
H880   H     0.76638   0.10934   0.68494   0.00000  Uiso   1.00
H881   H     0.72938   0.07664   0.73112   0.00000  Uiso   1.00
C882   C     0.93649   0.23266   0.80108   0.00000  Uiso   1.00
C883   C     0.94198   0.24330   0.84750   0.00000  Uiso   1.00
H884   H     0.94338   0.21443   0.86583   0.00000  Uiso   1.00
H885   H     0.97497   0.26237   0.84232   0.00000  Uiso   1.00
H886   H     0.91073   0.26201   0.86982   0.00000  Uiso   1.00
H887   H     0.94414   0.26108   0.77980   0.00000  Uiso   1.00
H888   H     0.89853   0.22432   0.81016   0.00000  Uiso   1.00
C889   C     0.16681   0.57993   0.75051   0.00000  Uiso   1.00
C890   C     0.16646   0.42006   0.74973   0.00000  Uiso   1.00
C891   C     0.11905   0.45353   0.54343   0.00000  Uiso   1.00
C892   C     0.22853   0.48634   0.94589   0.00000  Uiso   1.00
C893   C     0.08554   0.44881   0.52190   0.00000  Uiso   1.00
C894   C     0.26200   0.49169   0.96723   0.00000  Uiso   1.00
C895   C     0.21065   0.64562   0.73301   0.00000  Uiso   1.00
C896   C     0.12264   0.35438   0.76831   0.00000  Uiso   1.00
C897   C     0.21036   0.35504   0.73210   0.00000  Uiso   1.00
C898   C     0.12292   0.64495   0.76899   0.00000  Uiso   1.00
C899   C     0.16633   0.37586   0.74966   0.00000  Uiso   1.00
C900   C     0.16692   0.62413   0.75117   0.00000  Uiso   1.00
C901   C     0.31647   0.46924   0.72752   0.00000  Uiso   1.00
C902   C     0.01708   0.53119   0.77170   0.00000  Uiso   1.00
C903   C     0.03109   0.46854   0.72727   0.00000  Uiso   1.00
C904   C     0.30199   0.53088   0.77357   0.00000  Uiso   1.00
C905   C     0.13665   0.49926   0.83776   0.00000  Uiso   1.00
C906   C     0.19675   0.49928   0.66222   0.00000  Uiso   1.00
C907   C     0.11923   0.49146   0.88727   0.00000  Uiso   1.00
C908   C     0.21540   0.49528   0.61180   0.00000  Uiso   1.00
C909   C     0.06235   0.45976   0.95569   0.00000  Uiso   1.00
C910   C     0.27964   0.50108   0.53723   0.00000  Uiso   1.00
C911   C     0.07377   0.47374   0.91067   0.00000  Uiso   1.00
C912   C     0.26391   0.50318   0.58539   0.00000  Uiso   1.00
C913   C     0.15250   0.49556   0.90912   0.00000  Uiso   1.00
C914   C     0.18351   0.48316   0.59007   0.00000  Uiso   1.00
C915   C     0.14347   0.47847   0.95228   0.00000  Uiso   1.00
C916   C     0.19859   0.48008   0.54189   0.00000  Uiso   1.00
C917   C     0.09684   0.46227   0.97681   0.00000  Uiso   1.00
C918   C     0.24709   0.49059   0.51528   0.00000  Uiso   1.00
C919   C     0.17933   0.47862   0.97213   0.00000  Uiso   1.00
C920   C     0.16553   0.47043   0.51970   0.00000  Uiso   1.00
H921   H     0.05032   0.43566   0.54103   0.00000  Uiso   1.00
H922   H     0.29919   0.49851   0.94624   0.00000  Uiso   1.00
H923   H     0.14622   0.47838   0.61135   0.00000  Uiso   1.00
H924   H     0.18585   0.51205   0.89155   0.00000  Uiso   1.00
H925   H     0.28921   0.51221   0.60185   0.00000  Uiso   1.00
H926   H     0.04784   0.46961   0.89380   0.00000  Uiso   1.00
H927   H     0.02708   0.44616   0.97355   0.00000  Uiso   1.00
H928   H     0.31676   0.50908   0.51723   0.00000  Uiso   1.00
H929   H     0.10837   0.44240   0.57819   0.00000  Uiso   1.00
H930   H     0.24215   0.48729   0.90857   0.00000  Uiso   1.00
H931   H     0.24470   0.62945   0.71885   0.00000  Uiso   1.00
H932   H     0.08865   0.37055   0.78297   0.00000  Uiso   1.00
H933   H     0.24432   0.37173   0.71744   0.00000  Uiso   1.00
H934   H     0.08897   0.62823   0.78366   0.00000  Uiso   1.00
H935   H     0.30281   0.44500   0.71054   0.00000  Uiso   1.00
H936   H     0.03042   0.55601   0.78831   0.00000  Uiso   1.00
N937   N     0.04759   0.50001   0.75001   0.00000  Uiso   1.00
N938   N     0.28574   0.49999   0.74999   0.00000  Uiso   1.00
O939   O     0.12846   0.56108   0.75000   0.00000  Uiso   1.00
O940   O     0.20488   0.43892   0.75000   0.00000  Uiso   1.00
O941   O     0.20490   0.56107   0.75000   0.00000  Uiso   1.00
O942   O     0.12843   0.43893   0.75000   0.00000  Uiso   1.00
O943   O     0.10661   0.50001   0.81612   0.00000  Uiso   1.00
O944   O     0.22672   0.49999   0.68388   0.00000  Uiso   1.00
O945   O     0.18305   0.50000   0.81612   0.00000  Uiso   1.00
O946   O     0.15028   0.50000   0.68388   0.00000  Uiso   1.00
Zn947  Zn    0.11562   0.50001   0.75000   0.00000  Uiso   1.00
Zn948  Zn    0.21771   0.49999   0.75000   0.00000  Uiso   1.00
C949   C     0.06274   0.43163   0.70392   0.00000  Uiso   1.00
C950   C     0.04779   0.40613   0.66858   0.00000  Uiso   1.00
H951   H     0.01546   0.38661   0.68642   0.00000  Uiso   1.00
H952   H     0.04033   0.42697   0.64404   0.00000  Uiso   1.00
H953   H     0.07739   0.38477   0.64849   0.00000  Uiso   1.00
H954   H     0.09972   0.44267   0.68494   0.00000  Uiso   1.00
H955   H     0.06271   0.40998   0.73112   0.00000  Uiso   1.00
C956   C     0.26982   0.56599   0.80108   0.00000  Uiso   1.00
C957   C     0.27531   0.57663   0.84750   0.00000  Uiso   1.00
H958   H     0.27671   0.54777   0.86583   0.00000  Uiso   1.00
H959   H     0.30830   0.59570   0.84232   0.00000  Uiso   1.00
H960   H     0.24407   0.59535   0.86982   0.00000  Uiso   1.00
H961   H     0.27747   0.59441   0.77980   0.00000  Uiso   1.00
H962   H     0.23186   0.55766   0.81016   0.00000  Uiso   1.00
C963   C     0.50015   0.57993   0.75051   0.00000  Uiso   1.00
C964   C     0.49979   0.42006   0.74973   0.00000  Uiso   1.00
C965   C     0.45238   0.45353   0.54343   0.00000  Uiso   1.00
C966   C     0.56187   0.48634   0.94589   0.00000  Uiso   1.00
C967   C     0.41888   0.44881   0.52190   0.00000  Uiso   1.00
C968   C     0.59534   0.49169   0.96723   0.00000  Uiso   1.00
C969   C     0.54399   0.64562   0.73301   0.00000  Uiso   1.00
C970   C     0.45598   0.35438   0.76831   0.00000  Uiso   1.00
C971   C     0.54369   0.35504   0.73210   0.00000  Uiso   1.00
C972   C     0.45625   0.64495   0.76899   0.00000  Uiso   1.00
C973   C     0.49966   0.37586   0.74966   0.00000  Uiso   1.00
C974   C     0.50025   0.62413   0.75117   0.00000  Uiso   1.00
C975   C     0.64981   0.46924   0.72752   0.00000  Uiso   1.00
C976   C     0.35042   0.53119   0.77170   0.00000  Uiso   1.00
C977   C     0.36442   0.46854   0.72727   0.00000  Uiso   1.00
C978   C     0.63533   0.53088   0.77357   0.00000  Uiso   1.00
C979   C     0.46999   0.49926   0.83776   0.00000  Uiso   1.00
C980   C     0.53008   0.49928   0.66222   0.00000  Uiso   1.00
C981   C     0.45257   0.49146   0.88727   0.00000  Uiso   1.00
C982   C     0.54874   0.49528   0.61180   0.00000  Uiso   1.00
C983   C     0.39568   0.45976   0.95569   0.00000  Uiso   1.00
C984   C     0.61297   0.50108   0.53723   0.00000  Uiso   1.00
C985   C     0.40711   0.47374   0.91067   0.00000  Uiso   1.00
C986   C     0.59725   0.50318   0.58539   0.00000  Uiso   1.00
C987   C     0.48584   0.49556   0.90912   0.00000  Uiso   1.00
C988   C     0.51685   0.48316   0.59007   0.00000  Uiso   1.00
C989   C     0.47681   0.47847   0.95228   0.00000  Uiso   1.00
C990   C     0.53192   0.48008   0.54189   0.00000  Uiso   1.00
C991   C     0.43017   0.46227   0.97681   0.00000  Uiso   1.00
C992   C     0.58042   0.49059   0.51528   0.00000  Uiso   1.00
C993   C     0.51267   0.47862   0.97213   0.00000  Uiso   1.00
C994   C     0.49886   0.47043   0.51970   0.00000  Uiso   1.00
H995   H     0.38366   0.43566   0.54103   0.00000  Uiso   1.00
H996   H     0.63252   0.49851   0.94624   0.00000  Uiso   1.00
H997   H     0.47955   0.47838   0.61135   0.00000  Uiso   1.00
H998   H     0.51918   0.51205   0.89155   0.00000  Uiso   1.00
H999   H     0.62254   0.51221   0.60185   0.00000  Uiso   1.00
H1000  H     0.38118   0.46961   0.89380   0.00000  Uiso   1.00
H1001  H     0.36041   0.44616   0.97355   0.00000  Uiso   1.00
H1002  H     0.65009   0.50908   0.51723   0.00000  Uiso   1.00
H1003  H     0.44171   0.44240   0.57819   0.00000  Uiso   1.00
H1004  H     0.57549   0.48729   0.90857   0.00000  Uiso   1.00
H1005  H     0.57804   0.62945   0.71885   0.00000  Uiso   1.00
H1006  H     0.42199   0.37055   0.78297   0.00000  Uiso   1.00
H1007  H     0.57766   0.37173   0.71744   0.00000  Uiso   1.00
H1008  H     0.42230   0.62823   0.78366   0.00000  Uiso   1.00
H1009  H     0.63614   0.44500   0.71054   0.00000  Uiso   1.00
H1010  H     0.36376   0.55601   0.78831   0.00000  Uiso   1.00
N1011  N     0.38093   0.50001   0.75001   0.00000  Uiso   1.00
N1012  N     0.61907   0.49999   0.74999   0.00000  Uiso   1.00
O1013  O     0.46179   0.56108   0.75000   0.00000  Uiso   1.00
O1014  O     0.53821   0.43892   0.75000   0.00000  Uiso   1.00
O1015  O     0.53823   0.56107   0.75000   0.00000  Uiso   1.00
O1016  O     0.46177   0.43893   0.75000   0.00000  Uiso   1.00
O1017  O     0.43994   0.50001   0.81612   0.00000  Uiso   1.00
O1018  O     0.56006   0.49999   0.68388   0.00000  Uiso   1.00
O1019  O     0.51639   0.50000   0.81612   0.00000  Uiso   1.00
O1020  O     0.48361   0.50000   0.68388   0.00000  Uiso   1.00
Zn1021 Zn    0.44896   0.50001   0.75000   0.00000  Uiso   1.00
Zn1022 Zn    0.55104   0.49999   0.75000   0.00000  Uiso   1.00
C1023  C     0.39607   0.43163   0.70392   0.00000  Uiso   1.00
C1024  C     0.38112   0.40613   0.66858   0.00000  Uiso   1.00
H1025  H     0.34879   0.38661   0.68642   0.00000  Uiso   1.00
H1026  H     0.37367   0.42697   0.64404   0.00000  Uiso   1.00
H1027  H     0.41073   0.38477   0.64849   0.00000  Uiso   1.00
H1028  H     0.43305   0.44267   0.68494   0.00000  Uiso   1.00
H1029  H     0.39605   0.40998   0.73112   0.00000  Uiso   1.00
C1030  C     0.60315   0.56599   0.80108   0.00000  Uiso   1.00
C1031  C     0.60865   0.57663   0.84750   0.00000  Uiso   1.00
H1032  H     0.61004   0.54777   0.86583   0.00000  Uiso   1.00
H1033  H     0.64164   0.59570   0.84232   0.00000  Uiso   1.00
H1034  H     0.57740   0.59535   0.86982   0.00000  Uiso   1.00
H1035  H     0.61080   0.59441   0.77980   0.00000  Uiso   1.00
H1036  H     0.56519   0.55766   0.81016   0.00000  Uiso   1.00
C1037  C     0.83348   0.57993   0.75051   0.00000  Uiso   1.00
C1038  C     0.83313   0.42006   0.74973   0.00000  Uiso   1.00
C1039  C     0.78572   0.45353   0.54343   0.00000  Uiso   1.00
C1040  C     0.89520   0.48634   0.94589   0.00000  Uiso   1.00
C1041  C     0.75221   0.44881   0.52190   0.00000  Uiso   1.00
C1042  C     0.92867   0.49169   0.96723   0.00000  Uiso   1.00
C1043  C     0.87732   0.64562   0.73301   0.00000  Uiso   1.00
C1044  C     0.78931   0.35438   0.76831   0.00000  Uiso   1.00
C1045  C     0.87702   0.35504   0.73210   0.00000  Uiso   1.00
C1046  C     0.78958   0.64495   0.76899   0.00000  Uiso   1.00
C1047  C     0.83299   0.37586   0.74966   0.00000  Uiso   1.00
C1048  C     0.83358   0.62413   0.75117   0.00000  Uiso   1.00
C1049  C     0.98314   0.46924   0.72752   0.00000  Uiso   1.00
C1050  C     0.68375   0.53119   0.77170   0.00000  Uiso   1.00
C1051  C     0.69776   0.46854   0.72727   0.00000  Uiso   1.00
C1052  C     0.96866   0.53088   0.77357   0.00000  Uiso   1.00
C1053  C     0.80332   0.49926   0.83776   0.00000  Uiso   1.00
C1054  C     0.86341   0.49928   0.66222   0.00000  Uiso   1.00
C1055  C     0.78590   0.49146   0.88727   0.00000  Uiso   1.00
C1056  C     0.88207   0.49528   0.61180   0.00000  Uiso   1.00
C1057  C     0.72901   0.45976   0.95569   0.00000  Uiso   1.00
C1058  C     0.94631   0.50108   0.53723   0.00000  Uiso   1.00
C1059  C     0.74044   0.47374   0.91067   0.00000  Uiso   1.00
C1060  C     0.93058   0.50318   0.58539   0.00000  Uiso   1.00
C1061  C     0.81917   0.49556   0.90912   0.00000  Uiso   1.00
C1062  C     0.85018   0.48316   0.59007   0.00000  Uiso   1.00
C1063  C     0.81014   0.47847   0.95228   0.00000  Uiso   1.00
C1064  C     0.86525   0.48008   0.54189   0.00000  Uiso   1.00
C1065  C     0.76351   0.46227   0.97681   0.00000  Uiso   1.00
C1066  C     0.91376   0.49059   0.51528   0.00000  Uiso   1.00
C1067  C     0.84600   0.47862   0.97213   0.00000  Uiso   1.00
C1068  C     0.83219   0.47043   0.51970   0.00000  Uiso   1.00
H1069  H     0.71699   0.43566   0.54103   0.00000  Uiso   1.00
H1070  H     0.96586   0.49851   0.94624   0.00000  Uiso   1.00
H1071  H     0.81288   0.47838   0.61135   0.00000  Uiso   1.00
H1072  H     0.85252   0.51205   0.89155   0.00000  Uiso   1.00
H1073  H     0.95588   0.51221   0.60185   0.00000  Uiso   1.00
H1074  H     0.71451   0.46961   0.89380   0.00000  Uiso   1.00
H1075  H     0.69374   0.44616   0.97355   0.00000  Uiso   1.00
H1076  H     0.98342   0.50908   0.51723   0.00000  Uiso   1.00
H1077  H     0.77504   0.44240   0.57819   0.00000  Uiso   1.00
H1078  H     0.90882   0.48729   0.90857   0.00000  Uiso   1.00
H1079  H     0.91137   0.62945   0.71885   0.00000  Uiso   1.00
H1080  H     0.75532   0.37055   0.78297   0.00000  Uiso   1.00
H1081  H     0.91099   0.37173   0.71744   0.00000  Uiso   1.00
H1082  H     0.75563   0.62823   0.78366   0.00000  Uiso   1.00
H1083  H     0.96948   0.44500   0.71054   0.00000  Uiso   1.00
H1084  H     0.69709   0.55601   0.78831   0.00000  Uiso   1.00
N1085  N     0.71426   0.50001   0.75001   0.00000  Uiso   1.00
N1086  N     0.95241   0.49999   0.74999   0.00000  Uiso   1.00
O1087  O     0.79512   0.56108   0.75000   0.00000  Uiso   1.00
O1088  O     0.87154   0.43892   0.75000   0.00000  Uiso   1.00
O1089  O     0.87157   0.56107   0.75000   0.00000  Uiso   1.00
O1090  O     0.79510   0.43893   0.75000   0.00000  Uiso   1.00
O1091  O     0.77328   0.50001   0.81612   0.00000  Uiso   1.00
O1092  O     0.89339   0.49999   0.68388   0.00000  Uiso   1.00
O1093  O     0.84972   0.50000   0.81612   0.00000  Uiso   1.00
O1094  O     0.81695   0.50000   0.68388   0.00000  Uiso   1.00
Zn1095 Zn    0.78229   0.50001   0.75000   0.00000  Uiso   1.00
Zn1096 Zn    0.88438   0.49999   0.75000   0.00000  Uiso   1.00
C1097  C     0.72941   0.43163   0.70392   0.00000  Uiso   1.00
C1098  C     0.71446   0.40613   0.66858   0.00000  Uiso   1.00
H1099  H     0.68213   0.38661   0.68642   0.00000  Uiso   1.00
H1100  H     0.70700   0.42697   0.64404   0.00000  Uiso   1.00
H1101  H     0.74406   0.38477   0.64849   0.00000  Uiso   1.00
H1102  H     0.76638   0.44267   0.68494   0.00000  Uiso   1.00
H1103  H     0.72938   0.40998   0.73112   0.00000  Uiso   1.00
C1104  C     0.93649   0.56599   0.80108   0.00000  Uiso   1.00
C1105  C     0.94198   0.57663   0.84750   0.00000  Uiso   1.00
H1106  H     0.94338   0.54777   0.86583   0.00000  Uiso   1.00
H1107  H     0.97497   0.59570   0.84232   0.00000  Uiso   1.00
H1108  H     0.91073   0.59535   0.86982   0.00000  Uiso   1.00
H1109  H     0.94414   0.59441   0.77980   0.00000  Uiso   1.00
H1110  H     0.89853   0.55766   0.81016   0.00000  Uiso   1.00
C1111  C     0.16681   0.91327   0.75051   0.00000  Uiso   1.00
C1112  C     0.16646   0.75339   0.74973   0.00000  Uiso   1.00
C1113  C     0.11905   0.78687   0.54343   0.00000  Uiso   1.00
C1114  C     0.22853   0.81967   0.94589   0.00000  Uiso   1.00
C1115  C     0.08554   0.78215   0.52190   0.00000  Uiso   1.00
C1116  C     0.26200   0.82503   0.96723   0.00000  Uiso   1.00
C1117  C     0.21065   0.97896   0.73301   0.00000  Uiso   1.00
C1118  C     0.12264   0.68771   0.76831   0.00000  Uiso   1.00
C1119  C     0.21036   0.68837   0.73210   0.00000  Uiso   1.00
C1120  C     0.12292   0.97828   0.76899   0.00000  Uiso   1.00
C1121  C     0.16633   0.70919   0.74966   0.00000  Uiso   1.00
C1122  C     0.16692   0.95747   0.75117   0.00000  Uiso   1.00
C1123  C     0.31647   0.80258   0.72752   0.00000  Uiso   1.00
C1124  C     0.01708   0.86452   0.77170   0.00000  Uiso   1.00
C1125  C     0.03109   0.80187   0.72727   0.00000  Uiso   1.00
C1126  C     0.30199   0.86421   0.77357   0.00000  Uiso   1.00
C1127  C     0.13665   0.83259   0.83776   0.00000  Uiso   1.00
C1128  C     0.19675   0.83261   0.66222   0.00000  Uiso   1.00
C1129  C     0.11923   0.82480   0.88727   0.00000  Uiso   1.00
C1130  C     0.21540   0.82862   0.61180   0.00000  Uiso   1.00
C1131  C     0.06235   0.79309   0.95569   0.00000  Uiso   1.00
C1132  C     0.27964   0.83441   0.53723   0.00000  Uiso   1.00
C1133  C     0.07377   0.80708   0.91067   0.00000  Uiso   1.00
C1134  C     0.26391   0.83651   0.58539   0.00000  Uiso   1.00
C1135  C     0.15250   0.82889   0.90912   0.00000  Uiso   1.00
C1136  C     0.18351   0.81650   0.59007   0.00000  Uiso   1.00
C1137  C     0.14347   0.81180   0.95228   0.00000  Uiso   1.00
C1138  C     0.19859   0.81341   0.54189   0.00000  Uiso   1.00
C1139  C     0.09684   0.79560   0.97681   0.00000  Uiso   1.00
C1140  C     0.24709   0.82392   0.51528   0.00000  Uiso   1.00
C1141  C     0.17933   0.81195   0.97213   0.00000  Uiso   1.00
C1142  C     0.16553   0.80376   0.51970   0.00000  Uiso   1.00
H1143  H     0.05032   0.76899   0.54103   0.00000  Uiso   1.00
H1144  H     0.29919   0.83184   0.94624   0.00000  Uiso   1.00
H1145  H     0.14622   0.81172   0.61135   0.00000  Uiso   1.00
H1146  H     0.18585   0.84538   0.89155   0.00000  Uiso   1.00
H1147  H     0.28921   0.84555   0.60185   0.00000  Uiso   1.00
H1148  H     0.04784   0.80295   0.89380   0.00000  Uiso   1.00
H1149  H     0.02708   0.77949   0.97355   0.00000  Uiso   1.00
H1150  H     0.31676   0.84241   0.51723   0.00000  Uiso   1.00
H1151  H     0.10837   0.77574   0.57819   0.00000  Uiso   1.00
H1152  H     0.24215   0.82062   0.90857   0.00000  Uiso   1.00
H1153  H     0.24470   0.96278   0.71885   0.00000  Uiso   1.00
H1154  H     0.08865   0.70388   0.78297   0.00000  Uiso   1.00
H1155  H     0.24432   0.70507   0.71744   0.00000  Uiso   1.00
H1156  H     0.08897   0.96156   0.78366   0.00000  Uiso   1.00
H1157  H     0.30281   0.77834   0.71054   0.00000  Uiso   1.00
H1158  H     0.03042   0.88935   0.78831   0.00000  Uiso   1.00
N1159  N     0.04759   0.83334   0.75001   0.00000  Uiso   1.00
N1160  N     0.28574   0.83332   0.74999   0.00000  Uiso   1.00
O1161  O     0.12846   0.89442   0.75000   0.00000  Uiso   1.00
O1162  O     0.20488   0.77225   0.75000   0.00000  Uiso   1.00
O1163  O     0.20490   0.89441   0.75000   0.00000  Uiso   1.00
O1164  O     0.12843   0.77226   0.75000   0.00000  Uiso   1.00
O1165  O     0.10661   0.83334   0.81612   0.00000  Uiso   1.00
O1166  O     0.22672   0.83333   0.68388   0.00000  Uiso   1.00
O1167  O     0.18305   0.83333   0.81612   0.00000  Uiso   1.00
O1168  O     0.15028   0.83334   0.68388   0.00000  Uiso   1.00
Zn1169 Zn    0.11562   0.83334   0.75000   0.00000  Uiso   1.00
Zn1170 Zn    0.21771   0.83333   0.75000   0.00000  Uiso   1.00
C1171  C     0.06274   0.76496   0.70392   0.00000  Uiso   1.00
C1172  C     0.04779   0.73947   0.66858   0.00000  Uiso   1.00
H1173  H     0.01546   0.71994   0.68642   0.00000  Uiso   1.00
H1174  H     0.04033   0.76031   0.64404   0.00000  Uiso   1.00
H1175  H     0.07739   0.71810   0.64849   0.00000  Uiso   1.00
H1176  H     0.09972   0.77600   0.68494   0.00000  Uiso   1.00
H1177  H     0.06271   0.74331   0.73112   0.00000  Uiso   1.00
C1178  C     0.26982   0.89933   0.80108   0.00000  Uiso   1.00
C1179  C     0.27531   0.90997   0.84750   0.00000  Uiso   1.00
H1180  H     0.27671   0.88110   0.86583   0.00000  Uiso   1.00
H1181  H     0.30830   0.92903   0.84232   0.00000  Uiso   1.00
H1182  H     0.24407   0.92868   0.86982   0.00000  Uiso   1.00
H1183  H     0.27747   0.92774   0.77980   0.00000  Uiso   1.00
H1184  H     0.23186   0.89099   0.81016   0.00000  Uiso   1.00
C1185  C     0.50015   0.91327   0.75051   0.00000  Uiso   1.00
C1186  C     0.49979   0.75339   0.74973   0.00000  Uiso   1.00
C1187  C     0.45238   0.78687   0.54343   0.00000  Uiso   1.00
C1188  C     0.56187   0.81967   0.94589   0.00000  Uiso   1.00
C1189  C     0.41888   0.78215   0.52190   0.00000  Uiso   1.00
C1190  C     0.59534   0.82503   0.96723   0.00000  Uiso   1.00
C1191  C     0.54399   0.97896   0.73301   0.00000  Uiso   1.00
C1192  C     0.45598   0.68771   0.76831   0.00000  Uiso   1.00
C1193  C     0.54369   0.68837   0.73210   0.00000  Uiso   1.00
C1194  C     0.45625   0.97828   0.76899   0.00000  Uiso   1.00
C1195  C     0.49966   0.70919   0.74966   0.00000  Uiso   1.00
C1196  C     0.50025   0.95747   0.75117   0.00000  Uiso   1.00
C1197  C     0.64981   0.80258   0.72752   0.00000  Uiso   1.00
C1198  C     0.35042   0.86452   0.77170   0.00000  Uiso   1.00
C1199  C     0.36442   0.80187   0.72727   0.00000  Uiso   1.00
C1200  C     0.63533   0.86421   0.77357   0.00000  Uiso   1.00
C1201  C     0.46999   0.83259   0.83776   0.00000  Uiso   1.00
C1202  C     0.53008   0.83261   0.66222   0.00000  Uiso   1.00
C1203  C     0.45257   0.82480   0.88727   0.00000  Uiso   1.00
C1204  C     0.54874   0.82862   0.61180   0.00000  Uiso   1.00
C1205  C     0.39568   0.79309   0.95569   0.00000  Uiso   1.00
C1206  C     0.61297   0.83441   0.53723   0.00000  Uiso   1.00
C1207  C     0.40711   0.80708   0.91067   0.00000  Uiso   1.00
C1208  C     0.59725   0.83651   0.58539   0.00000  Uiso   1.00
C1209  C     0.48584   0.82889   0.90912   0.00000  Uiso   1.00
C1210  C     0.51685   0.81650   0.59007   0.00000  Uiso   1.00
C1211  C     0.47681   0.81180   0.95228   0.00000  Uiso   1.00
C1212  C     0.53192   0.81341   0.54189   0.00000  Uiso   1.00
C1213  C     0.43017   0.79560   0.97681   0.00000  Uiso   1.00
C1214  C     0.58042   0.82392   0.51528   0.00000  Uiso   1.00
C1215  C     0.51267   0.81195   0.97213   0.00000  Uiso   1.00
C1216  C     0.49886   0.80376   0.51970   0.00000  Uiso   1.00
H1217  H     0.38366   0.76899   0.54103   0.00000  Uiso   1.00
H1218  H     0.63252   0.83184   0.94624   0.00000  Uiso   1.00
H1219  H     0.47955   0.81172   0.61135   0.00000  Uiso   1.00
H1220  H     0.51918   0.84538   0.89155   0.00000  Uiso   1.00
H1221  H     0.62254   0.84555   0.60185   0.00000  Uiso   1.00
H1222  H     0.38118   0.80295   0.89380   0.00000  Uiso   1.00
H1223  H     0.36041   0.77949   0.97355   0.00000  Uiso   1.00
H1224  H     0.65009   0.84241   0.51723   0.00000  Uiso   1.00
H1225  H     0.44171   0.77574   0.57819   0.00000  Uiso   1.00
H1226  H     0.57549   0.82062   0.90857   0.00000  Uiso   1.00
H1227  H     0.57804   0.96278   0.71885   0.00000  Uiso   1.00
H1228  H     0.42199   0.70388   0.78297   0.00000  Uiso   1.00
H1229  H     0.57766   0.70507   0.71744   0.00000  Uiso   1.00
H1230  H     0.42230   0.96156   0.78366   0.00000  Uiso   1.00
H1231  H     0.63614   0.77834   0.71054   0.00000  Uiso   1.00
H1232  H     0.36376   0.88935   0.78831   0.00000  Uiso   1.00
N1233  N     0.38093   0.83334   0.75001   0.00000  Uiso   1.00
N1234  N     0.61907   0.83332   0.74999   0.00000  Uiso   1.00
O1235  O     0.46179   0.89442   0.75000   0.00000  Uiso   1.00
O1236  O     0.53821   0.77225   0.75000   0.00000  Uiso   1.00
O1237  O     0.53823   0.89441   0.75000   0.00000  Uiso   1.00
O1238  O     0.46177   0.77226   0.75000   0.00000  Uiso   1.00
O1239  O     0.43994   0.83334   0.81612   0.00000  Uiso   1.00
O1240  O     0.56006   0.83333   0.68388   0.00000  Uiso   1.00
O1241  O     0.51639   0.83333   0.81612   0.00000  Uiso   1.00
O1242  O     0.48361   0.83334   0.68388   0.00000  Uiso   1.00
Zn1243 Zn    0.44896   0.83334   0.75000   0.00000  Uiso   1.00
Zn1244 Zn    0.55104   0.83333   0.75000   0.00000  Uiso   1.00
C1245  C     0.39607   0.76496   0.70392   0.00000  Uiso   1.00
C1246  C     0.38112   0.73947   0.66858   0.00000  Uiso   1.00
H1247  H     0.34879   0.71994   0.68642   0.00000  Uiso   1.00
H1248  H     0.37367   0.76031   0.64404   0.00000  Uiso   1.00
H1249  H     0.41073   0.71810   0.64849   0.00000  Uiso   1.00
H1250  H     0.43305   0.77600   0.68494   0.00000  Uiso   1.00
H1251  H     0.39605   0.74331   0.73112   0.00000  Uiso   1.00
C1252  C     0.60315   0.89933   0.80108   0.00000  Uiso   1.00
C1253  C     0.60865   0.90997   0.84750   0.00000  Uiso   1.00
H1254  H     0.61004   0.88110   0.86583   0.00000  Uiso   1.00
H1255  H     0.64164   0.92903   0.84232   0.00000  Uiso   1.00
H1256  H     0.57740   0.92868   0.86982   0.00000  Uiso   1.00
H1257  H     0.61080   0.92774   0.77980   0.00000  Uiso   1.00
H1258  H     0.56519   0.89099   0.81016   0.00000  Uiso   1.00
C1259  C     0.83348   0.91327   0.75051   0.00000  Uiso   1.00
C1260  C     0.83313   0.75339   0.74973   0.00000  Uiso   1.00
C1261  C     0.78572   0.78687   0.54343   0.00000  Uiso   1.00
C1262  C     0.89520   0.81967   0.94589   0.00000  Uiso   1.00
C1263  C     0.75221   0.78215   0.52190   0.00000  Uiso   1.00
C1264  C     0.92867   0.82503   0.96723   0.00000  Uiso   1.00
C1265  C     0.87732   0.97896   0.73301   0.00000  Uiso   1.00
C1266  C     0.78931   0.68771   0.76831   0.00000  Uiso   1.00
C1267  C     0.87702   0.68837   0.73210   0.00000  Uiso   1.00
C1268  C     0.78958   0.97828   0.76899   0.00000  Uiso   1.00
C1269  C     0.83299   0.70919   0.74966   0.00000  Uiso   1.00
C1270  C     0.83358   0.95747   0.75117   0.00000  Uiso   1.00
C1271  C     0.98314   0.80258   0.72752   0.00000  Uiso   1.00
C1272  C     0.68375   0.86452   0.77170   0.00000  Uiso   1.00
C1273  C     0.69776   0.80187   0.72727   0.00000  Uiso   1.00
C1274  C     0.96866   0.86421   0.77357   0.00000  Uiso   1.00
C1275  C     0.80332   0.83259   0.83776   0.00000  Uiso   1.00
C1276  C     0.86341   0.83261   0.66222   0.00000  Uiso   1.00
C1277  C     0.78590   0.82480   0.88727   0.00000  Uiso   1.00
C1278  C     0.88207   0.82862   0.61180   0.00000  Uiso   1.00
C1279  C     0.72901   0.79309   0.95569   0.00000  Uiso   1.00
C1280  C     0.94631   0.83441   0.53723   0.00000  Uiso   1.00
C1281  C     0.74044   0.80708   0.91067   0.00000  Uiso   1.00
C1282  C     0.93058   0.83651   0.58539   0.00000  Uiso   1.00
C1283  C     0.81917   0.82889   0.90912   0.00000  Uiso   1.00
C1284  C     0.85018   0.81650   0.59007   0.00000  Uiso   1.00
C1285  C     0.81014   0.81180   0.95228   0.00000  Uiso   1.00
C1286  C     0.86525   0.81341   0.54189   0.00000  Uiso   1.00
C1287  C     0.76351   0.79560   0.97681   0.00000  Uiso   1.00
C1288  C     0.91376   0.82392   0.51528   0.00000  Uiso   1.00
C1289  C     0.84600   0.81195   0.97213   0.00000  Uiso   1.00
C1290  C     0.83219   0.80376   0.51970   0.00000  Uiso   1.00
H1291  H     0.71699   0.76899   0.54103   0.00000  Uiso   1.00
H1292  H     0.96586   0.83184   0.94624   0.00000  Uiso   1.00
H1293  H     0.81288   0.81172   0.61135   0.00000  Uiso   1.00
H1294  H     0.85252   0.84538   0.89155   0.00000  Uiso   1.00
H1295  H     0.95588   0.84555   0.60185   0.00000  Uiso   1.00
H1296  H     0.71451   0.80295   0.89380   0.00000  Uiso   1.00
H1297  H     0.69374   0.77949   0.97355   0.00000  Uiso   1.00
H1298  H     0.98342   0.84241   0.51723   0.00000  Uiso   1.00
H1299  H     0.77504   0.77574   0.57819   0.00000  Uiso   1.00
H1300  H     0.90882   0.82062   0.90857   0.00000  Uiso   1.00
H1301  H     0.91137   0.96278   0.71885   0.00000  Uiso   1.00
H1302  H     0.75532   0.70388   0.78297   0.00000  Uiso   1.00
H1303  H     0.91099   0.70507   0.71744   0.00000  Uiso   1.00
H1304  H     0.75563   0.96156   0.78366   0.00000  Uiso   1.00
H1305  H     0.96948   0.77834   0.71054   0.00000  Uiso   1.00
H1306  H     0.69709   0.88935   0.78831   0.00000  Uiso   1.00
N1307  N     0.71426   0.83334   0.75001   0.00000  Uiso   1.00
N1308  N     0.95241   0.83332   0.74999   0.00000  Uiso   1.00
O1309  O     0.79512   0.89442   0.75000   0.00000  Uiso   1.00
O1310  O     0.87154   0.77225   0.75000   0.00000  Uiso   1.00
O1311  O     0.87157   0.89441   0.75000   0.00000  Uiso   1.00
O1312  O     0.79510   0.77226   0.75000   0.00000  Uiso   1.00
O1313  O     0.77328   0.83334   0.81612   0.00000  Uiso   1.00
O1314  O     0.89339   0.83333   0.68388   0.00000  Uiso   1.00
O1315  O     0.84972   0.83333   0.81612   0.00000  Uiso   1.00
O1316  O     0.81695   0.83334   0.68388   0.00000  Uiso   1.00
Zn1317 Zn    0.78229   0.83334   0.75000   0.00000  Uiso   1.00
Zn1318 Zn    0.88438   0.83333   0.75000   0.00000  Uiso   1.00
C1319  C     0.72941   0.76496   0.70392   0.00000  Uiso   1.00
C1320  C     0.71446   0.73947   0.66858   0.00000  Uiso   1.00
H1321  H     0.68213   0.71994   0.68642   0.00000  Uiso   1.00
H1322  H     0.70700   0.76031   0.64404   0.00000  Uiso   1.00
H1323  H     0.74406   0.71810   0.64849   0.00000  Uiso   1.00
H1324  H     0.76638   0.77600   0.68494   0.00000  Uiso   1.00
H1325  H     0.72938   0.74331   0.73112   0.00000  Uiso   1.00
C1326  C     0.93649   0.89933   0.80108   0.00000  Uiso   1.00
C1327  C     0.94198   0.90997   0.84750   0.00000  Uiso   1.00
H1328  H     0.94338   0.88110   0.86583   0.00000  Uiso   1.00
H1329  H     0.97497   0.92903   0.84232   0.00000  Uiso   1.00
H1330  H     0.91073   0.92868   0.86982   0.00000  Uiso   1.00
H1331  H     0.94414   0.92774   0.77980   0.00000  Uiso   1.00
H1332  H     0.89853   0.89099   0.81016   0.00000  Uiso   1.00
loop_
_geom_bond_atom_site_label_1
_geom_bond_atom_site_label_2
_geom_bond_distance
_geom_bond_site_symmetry_2
_ccdc_geom_bond_type
C1     O51     1.286   .     A
C1     C12     1.415   .     S
C1     O53     1.291   .     A
C2     O52     1.286   .     A
C2     C11     1.416   .     S
C2     O54     1.292   .     A
C3     C5      1.391   .     A
C3     C32     1.416   .     A
C3     H41     1.076   .     S
C4     H42     1.079   .     S
C4     C6      1.388   .     A
C4     C31     1.415   .     A
C5     H33     1.084   .     S
C5     C695    1.393   1_554 S
C6     H34     1.083   .     S
C6     C696    1.392   .     S
C7     H43     1.084   .     S
C7     C12     1.394   .     A
C7     C231    1.371   .     S
C8     H44     1.083   .     S
C8     C11     1.394   .     A
C8     C454    1.371   1_545 S
C9     H45     1.084   .     S
C9     C11     1.399   .     A
C9     C451    1.371   1_545 S
C10    H46     1.084   .     S
C10    C12     1.398   .     A
C10    C230    1.371   .     S
C13    N50     1.351   .     A
C13    H47     1.078   .     S
C13    C89     1.426   .     S
C14    N49     1.352   .     A
C14    H48     1.080   .     S
C14    C164    1.423   1_455 S
C15    C61     1.519   .     S
C15    N49     1.394   .     A
C15    C161    1.426   1_455 S
C16    C68     1.518   .     S
C16    N50     1.393   .     A
C16    C88     1.423   .     S
C17    C19     1.458   .     S
C17    O55     1.299   .     A
C17    O57     1.299   .     A
C18    O56     1.297   .     A
C18    C20     1.458   .     S
C18    O58     1.301   .     A
C19    C25     1.391   .     A
C19    C23     1.401   .     A
C20    C24     1.400   .     A
C20    C26     1.393   .     A
C21    C29     1.405   .     A
C21    C23     1.396   .     A
C21    H39     1.083   .     S
C22    H40     1.083   .     S
C22    C30     1.403   .     A
C22    C24     1.392   .     A
C23    H38     1.083   .     S
C24    H37     1.083   .     S
C25    H36     1.080   .     S
C25    C27     1.392   .     A
C26    H35     1.077   .     S
C26    C28     1.395   .     A
C27    C31     1.413   .     A
C27    C29     1.416   .     A
C28    C30     1.419   .     A
C28    C32     1.416   .     A
C29    C671    1.393   .     S
C30    C672    1.392   1_554 S
C31    C698    1.410   .     S
C32    C697    1.410   1_554 S
N49    Zn59    2.027   .     S
N50    Zn60    2.027   .     S
O51    Zn59    1.986   .     S
O52    Zn60    1.986   .     S
O53    Zn60    2.001   .     S
O54    Zn59    2.001   .     S
O55    Zn59    1.967   .     S
O56    Zn60    1.967   .     S
O57    Zn60    1.931   .     S
O58    Zn59    1.931   .     S
C61    H67     1.107   .     S
C61    C62     1.533   .     S
C61    H66     1.100   .     S
C62    H63     1.111   .     S
C62    H64     1.110   .     S
C62    H65     1.111   .     S
C68    H74     1.091   .     S
C68    H73     1.111   .     S
C68    C69     1.533   .     S
C69    H72     1.111   .     S
C69    H70     1.109   .     S
C69    H71     1.110   .     S
C75    O125    1.286   .     A
C75    C86     1.415   .     S
C75    O127    1.291   .     A
C76    O126    1.286   .     A
C76    C85     1.416   .     S
C76    O128    1.292   .     A
C77    C79     1.391   .     A
C77    C106    1.416   .     A
C77    H115    1.076   .     S
C78    H116    1.079   .     S
C78    C80     1.388   .     A
C78    C105    1.415   .     A
C79    H107    1.084   .     S
C79    C769    1.393   1_554 S
C80    H108    1.083   .     S
C80    C770    1.392   .     S
C81    H117    1.084   .     S
C81    C86     1.394   .     A
C81    C305    1.371   .     S
C82    H118    1.083   .     S
C82    C85     1.394   .     A
C82    C528    1.371   1_545 S
C83    H119    1.084   .     S
C83    C85     1.399   .     A
C83    C525    1.371   1_545 S
C84    H120    1.084   .     S
C84    C86     1.398   .     A
C84    C304    1.371   .     S
C87    N124    1.351   .     A
C87    H121    1.078   .     S
C87    C163    1.426   .     S
C88    N123    1.352   .     A
C88    H122    1.080   .     S
C89    C135    1.519   .     S
C89    N123    1.394   .     A
C90    C142    1.518   .     S
C90    N124    1.393   .     A
C90    C162    1.423   .     S
C91    C93     1.458   .     S
C91    O129    1.299   .     A
C91    O131    1.299   .     A
C92    O130    1.297   .     A
C92    C94     1.458   .     S
C92    O132    1.301   .     A
C93    C99     1.391   .     A
C93    C97     1.401   .     A
C94    C98     1.400   .     A
C94    C100    1.393   .     A
C95    C103    1.405   .     A
C95    C97     1.396   .     A
C95    H113    1.083   .     S
C96    H114    1.083   .     S
C96    C104    1.403   .     A
C96    C98     1.392   .     A
C97    H112    1.083   .     S
C98    H111    1.083   .     S
C99    H110    1.080   .     S
C99    C101    1.392   .     A
C100   H109    1.077   .     S
C100   C102    1.395   .     A
C101   C105    1.413   .     A
C101   C103    1.416   .     A
C102   C104    1.419   .     A
C102   C106    1.416   .     A
C103   C745    1.393   .     S
C104   C746    1.392   1_554 S
C105   C772    1.410   .     S
C106   C771    1.410   1_554 S
N123   Zn133   2.027   .     S
N124   Zn134   2.027   .     S
O125   Zn133   1.986   .     S
O126   Zn134   1.986   .     S
O127   Zn134   2.001   .     S
O128   Zn133   2.001   .     S
O129   Zn133   1.967   .     S
O130   Zn134   1.967   .     S
O131   Zn134   1.931   .     S
O132   Zn133   1.931   .     S
C135   H141    1.107   .     S
C135   C136    1.533   .     S
C135   H140    1.100   .     S
C136   H137    1.111   .     S
C136   H138    1.110   .     S
C136   H139    1.111   .     S
C142   H148    1.091   .     S
C142   H147    1.111   .     S
C142   C143    1.533   .     S
C143   H146    1.111   .     S
C143   H144    1.109   .     S
C143   H145    1.110   .     S
C149   O199    1.286   .     A
C149   C160    1.415   .     S
C149   O201    1.291   .     A
C150   O200    1.286   .     A
C150   C159    1.416   .     S
C150   O202    1.292   .     A
C151   C153    1.391   .     A
C151   C180    1.416   .     A
C151   H189    1.076   .     S
C152   H190    1.079   .     S
C152   C154    1.388   .     A
C152   C179    1.415   .     A
C153   H181    1.084   .     S
C153   C843    1.393   1_554 S
C154   H182    1.083   .     S
C154   C844    1.392   .     S
C155   H191    1.084   .     S
C155   C160    1.394   .     A
C155   C379    1.371   .     S
C156   H192    1.083   .     S
C156   C159    1.394   .     A
C156   C602    1.371   1_545 S
C157   H193    1.084   .     S
C157   C159    1.399   .     A
C157   C599    1.371   1_545 S
C158   H194    1.084   .     S
C158   C160    1.398   .     A
C158   C378    1.371   .     S
C161   N198    1.351   .     A
C161   H195    1.078   .     S
C161   C15     1.426   1_655 S
C162   N197    1.352   .     A
C162   H196    1.080   .     S
C163   C209    1.519   .     S
C163   N197    1.394   .     A
C164   C216    1.518   .     S
C164   N198    1.393   .     A
C164   C14     1.423   1_655 S
C165   C167    1.458   .     S
C165   O203    1.299   .     A
C165   O205    1.299   .     A
C166   O204    1.297   .     A
C166   C168    1.458   .     S
C166   O206    1.301   .     A
C167   C173    1.391   .     A
C167   C171    1.401   .     A
C168   C172    1.400   .     A
C168   C174    1.393   .     A
C169   C177    1.405   .     A
C169   C171    1.396   .     A
C169   H187    1.083   .     S
C170   H188    1.083   .     S
C170   C178    1.403   .     A
C170   C172    1.392   .     A
C171   H186    1.083   .     S
C172   H185    1.083   .     S
C173   H184    1.080   .     S
C173   C175    1.392   .     A
C174   H183    1.077   .     S
C174   C176    1.395   .     A
C175   C179    1.413   .     A
C175   C177    1.416   .     A
C176   C178    1.419   .     A
C176   C180    1.416   .     A
C177   C819    1.393   .     S
C178   C820    1.392   1_554 S
C179   C846    1.410   .     S
C180   C845    1.410   1_554 S
N197   Zn207   2.027   .     S
N198   Zn208   2.027   .     S
O199   Zn207   1.986   .     S
O200   Zn208   1.986   .     S
O201   Zn208   2.001   .     S
O202   Zn207   2.001   .     S
O203   Zn207   1.967   .     S
O204   Zn208   1.967   .     S
O205   Zn208   1.931   .     S
O206   Zn207   1.931   .     S
C209   H215    1.107   .     S
C209   C210    1.533   .     S
C209   H214    1.100   .     S
C210   H211    1.111   .     S
C210   H212    1.110   .     S
C210   H213    1.111   .     S
C216   H222    1.091   .     S
C216   H221    1.111   .     S
C216   C217    1.533   .     S
C217   H220    1.111   .     S
C217   H218    1.109   .     S
C217   H219    1.110   .     S
C223   O273    1.286   .     A
C223   C234    1.415   .     S
C223   O275    1.291   .     A
C224   O274    1.286   .     A
C224   C233    1.416   .     S
C224   O276    1.292   .     A
C225   C227    1.391   .     A
C225   C254    1.416   .     A
C225   H263    1.076   .     S
C226   H264    1.079   .     S
C226   C228    1.388   .     A
C226   C253    1.415   .     A
C227   H255    1.084   .     S
C227   C917    1.393   1_554 S
C228   H256    1.083   .     S
C228   C918    1.392   .     S
C229   H265    1.084   .     S
C229   C234    1.394   .     A
C229   C453    1.371   .     S
C230   H266    1.083   .     S
C230   C233    1.394   .     A
C231   H267    1.084   .     S
C231   C233    1.399   .     A
C232   H268    1.084   .     S
C232   C234    1.398   .     A
C232   C452    1.371   .     S
C235   N272    1.351   .     A
C235   H269    1.078   .     S
C235   C311    1.426   .     S
C236   N271    1.352   .     A
C236   H270    1.080   .     S
C236   C386    1.423   1_455 S
C237   C283    1.519   .     S
C237   N271    1.394   .     A
C237   C383    1.426   1_455 S
C238   C290    1.518   .     S
C238   N272    1.393   .     A
C238   C310    1.423   .     S
C239   C241    1.458   .     S
C239   O277    1.299   .     A
C239   O279    1.299   .     A
C240   O278    1.297   .     A
C240   C242    1.458   .     S
C240   O280    1.301   .     A
C241   C247    1.391   .     A
C241   C245    1.401   .     A
C242   C246    1.400   .     A
C242   C248    1.393   .     A
C243   C251    1.405   .     A
C243   C245    1.396   .     A
C243   H261    1.083   .     S
C244   H262    1.083   .     S
C244   C252    1.403   .     A
C244   C246    1.392   .     A
C245   H260    1.083   .     S
C246   H259    1.083   .     S
C247   H258    1.080   .     S
C247   C249    1.392   .     A
C248   H257    1.077   .     S
C248   C250    1.395   .     A
C249   C253    1.413   .     A
C249   C251    1.416   .     A
C250   C252    1.419   .     A
C250   C254    1.416   .     A
C251   C893    1.393   .     S
C252   C894    1.392   1_554 S
C253   C920    1.410   .     S
C254   C919    1.410   1_554 S
N271   Zn281   2.027   .     S
N272   Zn282   2.027   .     S
O273   Zn281   1.986   .     S
O274   Zn282   1.986   .     S
O275   Zn282   2.001   .     S
O276   Zn281   2.001   .     S
O277   Zn281   1.967   .     S
O278   Zn282   1.967   .     S
O279   Zn282   1.931   .     S
O280   Zn281   1.931   .     S
C283   H289    1.107   .     S
C283   C284    1.533   .     S
C283   H288    1.100   .     S
C284   H285    1.111   .     S
C284   H286    1.110   .     S
C284   H287    1.111   .     S
C290   H296    1.091   .     S
C290   H295    1.111   .     S
C290   C291    1.533   .     S
C291   H294    1.111   .     S
C291   H292    1.109   .     S
C291   H293    1.110   .     S
C297   O347    1.286   .     A
C297   C308    1.415   .     S
C297   O349    1.291   .     A
C298   O348    1.286   .     A
C298   C307    1.416   .     S
C298   O350    1.292   .     A
C299   C301    1.391   .     A
C299   C328    1.416   .     A
C299   H337    1.076   .     S
C300   H338    1.079   .     S
C300   C302    1.388   .     A
C300   C327    1.415   .     A
C301   H329    1.084   .     S
C301   C991    1.393   1_554 S
C302   H330    1.083   .     S
C302   C992    1.392   .     S
C303   H339    1.084   .     S
C303   C308    1.394   .     A
C303   C527    1.371   .     S
C304   H340    1.083   .     S
C304   C307    1.394   .     A
C305   H341    1.084   .     S
C305   C307    1.399   .     A
C306   H342    1.084   .     S
C306   C308    1.398   .     A
C306   C526    1.371   .     S
C309   N346    1.351   .     A
C309   H343    1.078   .     S
C309   C385    1.426   .     S
C310   N345    1.352   .     A
C310   H344    1.080   .     S
C311   C357    1.519   .     S
C311   N345    1.394   .     A
C312   C364    1.518   .     S
C312   N346    1.393   .     A
C312   C384    1.423   .     S
C313   C315    1.458   .     S
C313   O351    1.299   .     A
C313   O353    1.299   .     A
C314   O352    1.297   .     A
C314   C316    1.458   .     S
C314   O354    1.301   .     A
C315   C321    1.391   .     A
C315   C319    1.401   .     A
C316   C320    1.400   .     A
C316   C322    1.393   .     A
C317   C325    1.405   .     A
C317   C319    1.396   .     A
C317   H335    1.083   .     S
C318   H336    1.083   .     S
C318   C326    1.403   .     A
C318   C320    1.392   .     A
C319   H334    1.083   .     S
C320   H333    1.083   .     S
C321   H332    1.080   .     S
C321   C323    1.392   .     A
C322   H331    1.077   .     S
C322   C324    1.395   .     A
C323   C327    1.413   .     A
C323   C325    1.416   .     A
C324   C326    1.419   .     A
C324   C328    1.416   .     A
C325   C967    1.393   .     S
C326   C968    1.392   1_554 S
C327   C994    1.410   .     S
C328   C993    1.410   1_554 S
N345   Zn355   2.027   .     S
N346   Zn356   2.027   .     S
O347   Zn355   1.986   .     S
O348   Zn356   1.986   .     S
O349   Zn356   2.001   .     S
O350   Zn355   2.001   .     S
O351   Zn355   1.967   .     S
O352   Zn356   1.967   .     S
O353   Zn356   1.931   .     S
O354   Zn355   1.931   .     S
C357   H363    1.107   .     S
C357   C358    1.533   .     S
C357   H362    1.100   .     S
C358   H359    1.111   .     S
C358   H360    1.110   .     S
C358   H361    1.111   .     S
C364   H370    1.091   .     S
C364   H369    1.111   .     S
C364   C365    1.533   .     S
C365   H368    1.111   .     S
C365   H366    1.109   .     S
C365   H367    1.110   .     S
C371   O421    1.286   .     A
C371   C382    1.415   .     S
C371   O423    1.291   .     A
C372   O422    1.286   .     A
C372   C381    1.416   .     S
C372   O424    1.292   .     A
C373   C375    1.391   .     A
C373   C402    1.416   .     A
C373   H411    1.076   .     S
C374   H412    1.079   .     S
C374   C376    1.388   .     A
C374   C401    1.415   .     A
C375   H403    1.084   .     S
C375   C1065   1.393   1_554 S
C376   H404    1.083   .     S
C376   C1066   1.392   .     S
C377   H413    1.084   .     S
C377   C382    1.394   .     A
C377   C601    1.371   .     S
C378   H414    1.083   .     S
C378   C381    1.394   .     A
C379   H415    1.084   .     S
C379   C381    1.399   .     A
C380   H416    1.084   .     S
C380   C382    1.398   .     A
C380   C600    1.371   .     S
C383   N420    1.351   .     A
C383   H417    1.078   .     S
C383   C237    1.426   1_655 S
C384   N419    1.352   .     A
C384   H418    1.080   .     S
C385   C431    1.519   .     S
C385   N419    1.394   .     A
C386   C438    1.518   .     S
C386   N420    1.393   .     A
C386   C236    1.423   1_655 S
C387   C389    1.458   .     S
C387   O425    1.299   .     A
C387   O427    1.299   .     A
C388   O426    1.297   .     A
C388   C390    1.458   .     S
C388   O428    1.301   .     A
C389   C395    1.391   .     A
C389   C393    1.401   .     A
C390   C394    1.400   .     A
C390   C396    1.393   .     A
C391   C399    1.405   .     A
C391   C393    1.396   .     A
C391   H409    1.083   .     S
C392   H410    1.083   .     S
C392   C400    1.403   .     A
C392   C394    1.392   .     A
C393   H408    1.083   .     S
C394   H407    1.083   .     S
C395   H406    1.080   .     S
C395   C397    1.392   .     A
C396   H405    1.077   .     S
C396   C398    1.395   .     A
C397   C401    1.413   .     A
C397   C399    1.416   .     A
C398   C400    1.419   .     A
C398   C402    1.416   .     A
C399   C1041   1.393   .     S
C400   C1042   1.392   1_554 S
C401   C1068   1.410   .     S
C402   C1067   1.410   1_554 S
N419   Zn429   2.027   .     S
N420   Zn430   2.027   .     S
O421   Zn429   1.986   .     S
O422   Zn430   1.986   .     S
O423   Zn430   2.001   .     S
O424   Zn429   2.001   .     S
O425   Zn429   1.967   .     S
O426   Zn430   1.967   .     S
O427   Zn430   1.931   .     S
O428   Zn429   1.931   .     S
C431   H437    1.107   .     S
C431   C432    1.533   .     S
C431   H436    1.100   .     S
C432   H433    1.111   .     S
C432   H434    1.110   .     S
C432   H435    1.111   .     S
C438   H444    1.091   .     S
C438   H443    1.111   .     S
C438   C439    1.533   .     S
C439   H442    1.111   .     S
C439   H440    1.109   .     S
C439   H441    1.110   .     S
C445   O495    1.286   .     A
C445   C456    1.415   .     S
C445   O497    1.291   .     A
C446   O496    1.286   .     A
C446   C455    1.416   .     S
C446   O498    1.292   .     A
C447   C449    1.391   .     A
C447   C476    1.416   .     A
C447   H485    1.076   .     S
C448   H486    1.079   .     S
C448   C450    1.388   .     A
C448   C475    1.415   .     A
C449   H477    1.084   .     S
C449   C1139   1.393   1_554 S
C450   H478    1.083   .     S
C450   C1140   1.392   .     S
C451   H487    1.084   .     S
C451   C456    1.394   .     A
C451   C9      1.371   1_565 S
C452   H488    1.083   .     S
C452   C455    1.394   .     A
C453   H489    1.084   .     S
C453   C455    1.399   .     A
C454   H490    1.084   .     S
C454   C456    1.398   .     A
C454   C8      1.371   1_565 S
C457   N494    1.351   .     A
C457   H491    1.078   .     S
C457   C533    1.426   .     S
C458   N493    1.352   .     A
C458   H492    1.080   .     S
C458   C608    1.423   1_455 S
C459   C505    1.519   .     S
C459   N493    1.394   .     A
C459   C605    1.426   1_455 S
C460   C512    1.518   .     S
C460   N494    1.393   .     A
C460   C532    1.423   .     S
C461   C463    1.458   .     S
C461   O499    1.299   .     A
C461   O501    1.299   .     A
C462   O500    1.297   .     A
C462   C464    1.458   .     S
C462   O502    1.301   .     A
C463   C469    1.391   .     A
C463   C467    1.401   .     A
C464   C468    1.400   .     A
C464   C470    1.393   .     A
C465   C473    1.405   .     A
C465   C467    1.396   .     A
C465   H483    1.083   .     S
C466   H484    1.083   .     S
C466   C474    1.403   .     A
C466   C468    1.392   .     A
C467   H482    1.083   .     S
C468   H481    1.083   .     S
C469   H480    1.080   .     S
C469   C471    1.392   .     A
C470   H479    1.077   .     S
C470   C472    1.395   .     A
C471   C475    1.413   .     A
C471   C473    1.416   .     A
C472   C474    1.419   .     A
C472   C476    1.416   .     A
C473   C1115   1.393   .     S
C474   C1116   1.392   1_554 S
C475   C1142   1.410   .     S
C476   C1141   1.410   1_554 S
N493   Zn503   2.027   .     S
N494   Zn504   2.027   .     S
O495   Zn503   1.986   .     S
O496   Zn504   1.986   .     S
O497   Zn504   2.001   .     S
O498   Zn503   2.001   .     S
O499   Zn503   1.967   .     S
O500   Zn504   1.967   .     S
O501   Zn504   1.931   .     S
O502   Zn503   1.931   .     S
C505   H511    1.107   .     S
C505   C506    1.533   .     S
C505   H510    1.100   .     S
C506   H507    1.111   .     S
C506   H508    1.110   .     S
C506   H509    1.111   .     S
C512   H518    1.091   .     S
C512   H517    1.111   .     S
C512   C513    1.533   .     S
C513   H516    1.111   .     S
C513   H514    1.109   .     S
C513   H515    1.110   .     S
C519   O569    1.286   .     A
C519   C530    1.415   .     S
C519   O571    1.291   .     A
C520   O570    1.286   .     A
C520   C529    1.416   .     S
C520   O572    1.292   .     A
C521   C523    1.391   .     A
C521   C550    1.416   .     A
C521   H559    1.076   .     S
C522   H560    1.079   .     S
C522   C524    1.388   .     A
C522   C549    1.415   .     A
C523   H551    1.084   .     S
C523   C1213   1.393   1_554 S
C524   H552    1.083   .     S
C524   C1214   1.392   .     S
C525   H561    1.084   .     S
C525   C530    1.394   .     A
C525   C83     1.371   1_565 S
C526   H562    1.083   .     S
C526   C529    1.394   .     A
C527   H563    1.084   .     S
C527   C529    1.399   .     A
C528   H564    1.084   .     S
C528   C530    1.398   .     A
C528   C82     1.371   1_565 S
C531   N568    1.351   .     A
C531   H565    1.078   .     S
C531   C607    1.426   .     S
C532   N567    1.352   .     A
C532   H566    1.080   .     S
C533   C579    1.519   .     S
C533   N567    1.394   .     A
C534   C586    1.518   .     S
C534   N568    1.393   .     A
C534   C606    1.423   .     S
C535   C537    1.458   .     S
C535   O573    1.299   .     A
C535   O575    1.299   .     A
C536   O574    1.297   .     A
C536   C538    1.458   .     S
C536   O576    1.301   .     A
C537   C543    1.391   .     A
C537   C541    1.401   .     A
C538   C542    1.400   .     A
C538   C544    1.393   .     A
C539   C547    1.405   .     A
C539   C541    1.396   .     A
C539   H557    1.083   .     S
C540   H558    1.083   .     S
C540   C548    1.403   .     A
C540   C542    1.392   .     A
C541   H556    1.083   .     S
C542   H555    1.083   .     S
C543   H554    1.080   .     S
C543   C545    1.392   .     A
C544   H553    1.077   .     S
C544   C546    1.395   .     A
C545   C549    1.413   .     A
C545   C547    1.416   .     A
C546   C548    1.419   .     A
C546   C550    1.416   .     A
C547   C1189   1.393   .     S
C548   C1190   1.392   1_554 S
C549   C1216   1.410   .     S
C550   C1215   1.410   1_554 S
N567   Zn577   2.027   .     S
N568   Zn578   2.027   .     S
O569   Zn577   1.986   .     S
O570   Zn578   1.986   .     S
O571   Zn578   2.001   .     S
O572   Zn577   2.001   .     S
O573   Zn577   1.967   .     S
O574   Zn578   1.967   .     S
O575   Zn578   1.931   .     S
O576   Zn577   1.931   .     S
C579   H585    1.107   .     S
C579   C580    1.533   .     S
C579   H584    1.100   .     S
C580   H581    1.111   .     S
C580   H582    1.110   .     S
C580   H583    1.111   .     S
C586   H592    1.091   .     S
C586   H591    1.111   .     S
C586   C587    1.533   .     S
C587   H590    1.111   .     S
C587   H588    1.109   .     S
C587   H589    1.110   .     S
C593   O643    1.286   .     A
C593   C604    1.415   .     S
C593   O645    1.291   .     A
C594   O644    1.286   .     A
C594   C603    1.416   .     S
C594   O646    1.292   .     A
C595   C597    1.391   .     A
C595   C624    1.416   .     A
C595   H633    1.076   .     S
C596   H634    1.079   .     S
C596   C598    1.388   .     A
C596   C623    1.415   .     A
C597   H625    1.084   .     S
C597   C1287   1.393   1_554 S
C598   H626    1.083   .     S
C598   C1288   1.392   .     S
C599   H635    1.084   .     S
C599   C604    1.394   .     A
C599   C157    1.371   1_565 S
C600   H636    1.083   .     S
C600   C603    1.394   .     A
C601   H637    1.084   .     S
C601   C603    1.399   .     A
C602   H638    1.084   .     S
C602   C604    1.398   .     A
C602   C156    1.371   1_565 S
C605   N642    1.351   .     A
C605   H639    1.078   .     S
C605   C459    1.426   1_655 S
C606   N641    1.352   .     A
C606   H640    1.080   .     S
C607   C653    1.519   .     S
C607   N641    1.394   .     A
C608   C660    1.518   .     S
C608   N642    1.393   .     A
C608   C458    1.423   1_655 S
C609   C611    1.458   .     S
C609   O647    1.299   .     A
C609   O649    1.299   .     A
C610   O648    1.297   .     A
C610   C612    1.458   .     S
C610   O650    1.301   .     A
C611   C617    1.391   .     A
C611   C615    1.401   .     A
C612   C616    1.400   .     A
C612   C618    1.393   .     A
C613   C621    1.405   .     A
C613   C615    1.396   .     A
C613   H631    1.083   .     S
C614   H632    1.083   .     S
C614   C622    1.403   .     A
C614   C616    1.392   .     A
C615   H630    1.083   .     S
C616   H629    1.083   .     S
C617   H628    1.080   .     S
C617   C619    1.392   .     A
C618   H627    1.077   .     S
C618   C620    1.395   .     A
C619   C623    1.413   .     A
C619   C621    1.416   .     A
C620   C622    1.419   .     A
C620   C624    1.416   .     A
C621   C1263   1.393   .     S
C622   C1264   1.392   1_554 S
C623   C1290   1.410   .     S
C624   C1289   1.410   1_554 S
N641   Zn651   2.027   .     S
N642   Zn652   2.027   .     S
O643   Zn651   1.986   .     S
O644   Zn652   1.986   .     S
O645   Zn652   2.001   .     S
O646   Zn651   2.001   .     S
O647   Zn651   1.967   .     S
O648   Zn652   1.967   .     S
O649   Zn652   1.931   .     S
O650   Zn651   1.931   .     S
C653   H659    1.107   .     S
C653   C654    1.533   .     S
C653   H658    1.100   .     S
C654   H655    1.111   .     S
C654   H656    1.110   .     S
C654   H657    1.111   .     S
C660   H666    1.091   .     S
C660   H665    1.111   .     S
C660   C661    1.533   .     S
C661   H664    1.111   .     S
C661   H662    1.109   .     S
C661   H663    1.110   .     S
C667   O717    1.286   .     A
C667   C678    1.415   .     S
C667   O719    1.291   .     A
C668   O718    1.286   .     A
C668   C677    1.416   .     S
C668   O720    1.292   .     A
C669   C671    1.391   .     A
C669   C698    1.416   .     A
C669   H707    1.076   .     S
C670   H708    1.079   .     S
C670   C672    1.388   .     A
C670   C697    1.415   .     A
C671   H699    1.084   .     S
C672   H700    1.083   .     S
C672   C30     1.392   1_556 S
C673   H709    1.084   .     S
C673   C678    1.394   .     A
C673   C897    1.371   .     S
C674   H710    1.083   .     S
C674   C677    1.394   .     A
C674   C1120   1.371   1_545 S
C675   H711    1.084   .     S
C675   C677    1.399   .     A
C675   C1117   1.371   1_545 S
C676   H712    1.084   .     S
C676   C678    1.398   .     A
C676   C896    1.371   .     S
C679   N716    1.351   .     A
C679   H713    1.078   .     S
C679   C755    1.426   .     S
C680   N715    1.352   .     A
C680   H714    1.080   .     S
C680   C830    1.423   1_455 S
C681   C727    1.519   .     S
C681   N715    1.394   .     A
C681   C827    1.426   1_455 S
C682   C734    1.518   .     S
C682   N716    1.393   .     A
C682   C754    1.423   .     S
C683   C685    1.458   .     S
C683   O721    1.299   .     A
C683   O723    1.299   .     A
C684   O722    1.297   .     A
C684   C686    1.458   .     S
C684   O724    1.301   .     A
C685   C691    1.391   .     A
C685   C689    1.401   .     A
C686   C690    1.400   .     A
C686   C692    1.393   .     A
C687   C695    1.405   .     A
C687   C689    1.396   .     A
C687   H705    1.083   .     S
C688   H706    1.083   .     S
C688   C696    1.403   .     A
C688   C690    1.392   .     A
C689   H704    1.083   .     S
C690   H703    1.083   .     S
C691   H702    1.080   .     S
C691   C693    1.392   .     A
C692   H701    1.077   .     S
C692   C694    1.395   .     A
C693   C697    1.413   .     A
C693   C695    1.416   .     A
C694   C696    1.419   .     A
C694   C698    1.416   .     A
C695   C5      1.393   1_556 S
C697   C32     1.410   1_556 S
N715   Zn725   2.027   .     S
N716   Zn726   2.027   .     S
O717   Zn725   1.986   .     S
O718   Zn726   1.986   .     S
O719   Zn726   2.001   .     S
O720   Zn725   2.001   .     S
O721   Zn725   1.967   .     S
O722   Zn726   1.967   .     S
O723   Zn726   1.931   .     S
O724   Zn725   1.931   .     S
C727   H733    1.107   .     S
C727   C728    1.533   .     S
C727   H732    1.100   .     S
C728   H729    1.111   .     S
C728   H730    1.110   .     S
C728   H731    1.111   .     S
C734   H740    1.091   .     S
C734   H739    1.111   .     S
C734   C735    1.533   .     S
C735   H738    1.111   .     S
C735   H736    1.109   .     S
C735   H737    1.110   .     S
C741   O791    1.286   .     A
C741   C752    1.415   .     S
C741   O793    1.291   .     A
C742   O792    1.286   .     A
C742   C751    1.416   .     S
C742   O794    1.292   .     A
C743   C745    1.391   .     A
C743   C772    1.416   .     A
C743   H781    1.076   .     S
C744   H782    1.079   .     S
C744   C746    1.388   .     A
C744   C771    1.415   .     A
C745   H773    1.084   .     S
C746   H774    1.083   .     S
C746   C104    1.392   1_556 S
C747   H783    1.084   .     S
C747   C752    1.394   .     A
C747   C971    1.371   .     S
C748   H784    1.083   .     S
C748   C751    1.394   .     A
C748   C1194   1.371   1_545 S
C749   H785    1.084   .     S
C749   C751    1.399   .     A
C749   C1191   1.371   1_545 S
C750   H786    1.084   .     S
C750   C752    1.398   .     A
C750   C970    1.371   .     S
C753   N790    1.351   .     A
C753   H787    1.078   .     S
C753   C829    1.426   .     S
C754   N789    1.352   .     A
C754   H788    1.080   .     S
C755   C801    1.519   .     S
C755   N789    1.394   .     A
C756   C808    1.518   .     S
C756   N790    1.393   .     A
C756   C828    1.423   .     S
C757   C759    1.458   .     S
C757   O795    1.299   .     A
C757   O797    1.299   .     A
C758   O796    1.297   .     A
C758   C760    1.458   .     S
C758   O798    1.301   .     A
C759   C765    1.391   .     A
C759   C763    1.401   .     A
C760   C764    1.400   .     A
C760   C766    1.393   .     A
C761   C769    1.405   .     A
C761   C763    1.396   .     A
C761   H779    1.083   .     S
C762   H780    1.083   .     S
C762   C770    1.403   .     A
C762   C764    1.392   .     A
C763   H778    1.083   .     S
C764   H777    1.083   .     S
C765   H776    1.080   .     S
C765   C767    1.392   .     A
C766   H775    1.077   .     S
C766   C768    1.395   .     A
C767   C771    1.413   .     A
C767   C769    1.416   .     A
C768   C770    1.419   .     A
C768   C772    1.416   .     A
C769   C79     1.393   1_556 S
C771   C106    1.410   1_556 S
N789   Zn799   2.027   .     S
N790   Zn800   2.027   .     S
O791   Zn799   1.986   .     S
O792   Zn800   1.986   .     S
O793   Zn800   2.001   .     S
O794   Zn799   2.001   .     S
O795   Zn799   1.967   .     S
O796   Zn800   1.967   .     S
O797   Zn800   1.931   .     S
O798   Zn799   1.931   .     S
C801   H807    1.107   .     S
C801   C802    1.533   .     S
C801   H806    1.100   .     S
C802   H803    1.111   .     S
C802   H804    1.110   .     S
C802   H805    1.111   .     S
C808   H814    1.091   .     S
C808   H813    1.111   .     S
C808   C809    1.533   .     S
C809   H812    1.111   .     S
C809   H810    1.109   .     S
C809   H811    1.110   .     S
C815   O865    1.286   .     A
C815   C826    1.415   .     S
C815   O867    1.291   .     A
C816   O866    1.286   .     A
C816   C825    1.416   .     S
C816   O868    1.292   .     A
C817   C819    1.391   .     A
C817   C846    1.416   .     A
C817   H855    1.076   .     S
C818   H856    1.079   .     S
C818   C820    1.388   .     A
C818   C845    1.415   .     A
C819   H847    1.084   .     S
C820   H848    1.083   .     S
C820   C178    1.392   1_556 S
C821   H857    1.084   .     S
C821   C826    1.394   .     A
C821   C1045   1.371   .     S
C822   H858    1.083   .     S
C822   C825    1.394   .     A
C822   C1268   1.371   1_545 S
C823   H859    1.084   .     S
C823   C825    1.399   .     A
C823   C1265   1.371   1_545 S
C824   H860    1.084   .     S
C824   C826    1.398   .     A
C824   C1044   1.371   .     S
C827   N864    1.351   .     A
C827   H861    1.078   .     S
C827   C681    1.426   1_655 S
C828   N863    1.352   .     A
C828   H862    1.080   .     S
C829   C875    1.519   .     S
C829   N863    1.394   .     A
C830   C882    1.518   .     S
C830   N864    1.393   .     A
C830   C680    1.423   1_655 S
C831   C833    1.458   .     S
C831   O869    1.299   .     A
C831   O871    1.299   .     A
C832   O870    1.297   .     A
C832   C834    1.458   .     S
C832   O872    1.301   .     A
C833   C839    1.391   .     A
C833   C837    1.401   .     A
C834   C838    1.400   .     A
C834   C840    1.393   .     A
C835   C843    1.405   .     A
C835   C837    1.396   .     A
C835   H853    1.083   .     S
C836   H854    1.083   .     S
C836   C844    1.403   .     A
C836   C838    1.392   .     A
C837   H852    1.083   .     S
C838   H851    1.083   .     S
C839   H850    1.080   .     S
C839   C841    1.392   .     A
C840   H849    1.077   .     S
C840   C842    1.395   .     A
C841   C845    1.413   .     A
C841   C843    1.416   .     A
C842   C844    1.419   .     A
C842   C846    1.416   .     A
C843   C153    1.393   1_556 S
C845   C180    1.410   1_556 S
N863   Zn873   2.027   .     S
N864   Zn874   2.027   .     S
O865   Zn873   1.986   .     S
O866   Zn874   1.986   .     S
O867   Zn874   2.001   .     S
O868   Zn873   2.001   .     S
O869   Zn873   1.967   .     S
O870   Zn874   1.967   .     S
O871   Zn874   1.931   .     S
O872   Zn873   1.931   .     S
C875   H881    1.107   .     S
C875   C876    1.533   .     S
C875   H880    1.100   .     S
C876   H877    1.111   .     S
C876   H878    1.110   .     S
C876   H879    1.111   .     S
C882   H888    1.091   .     S
C882   H887    1.111   .     S
C882   C883    1.533   .     S
C883   H886    1.111   .     S
C883   H884    1.109   .     S
C883   H885    1.110   .     S
C889   O939    1.286   .     A
C889   C900    1.415   .     S
C889   O941    1.291   .     A
C890   O940    1.286   .     A
C890   C899    1.416   .     S
C890   O942    1.292   .     A
C891   C893    1.391   .     A
C891   C920    1.416   .     A
C891   H929    1.076   .     S
C892   H930    1.079   .     S
C892   C894    1.388   .     A
C892   C919    1.415   .     A
C893   H921    1.084   .     S
C894   H922    1.083   .     S
C894   C252    1.392   1_556 S
C895   H931    1.084   .     S
C895   C900    1.394   .     A
C895   C1119   1.371   .     S
C896   H932    1.083   .     S
C896   C899    1.394   .     A
C897   H933    1.084   .     S
C897   C899    1.399   .     A
C898   H934    1.084   .     S
C898   C900    1.398   .     A
C898   C1118   1.371   .     S
C901   N938    1.351   .     A
C901   H935    1.078   .     S
C901   C977    1.426   .     S
C902   N937    1.352   .     A
C902   H936    1.080   .     S
C902   C1052   1.423   1_455 S
C903   C949    1.519   .     S
C903   N937    1.394   .     A
C903   C1049   1.426   1_455 S
C904   C956    1.518   .     S
C904   N938    1.393   .     A
C904   C976    1.423   .     S
C905   C907    1.458   .     S
C905   O943    1.299   .     A
C905   O945    1.299   .     A
C906   O944    1.297   .     A
C906   C908    1.458   .     S
C906   O946    1.301   .     A
C907   C913    1.391   .     A
C907   C911    1.401   .     A
C908   C912    1.400   .     A
C908   C914    1.393   .     A
C909   C917    1.405   .     A
C909   C911    1.396   .     A
C909   H927    1.083   .     S
C910   H928    1.083   .     S
C910   C918    1.403   .     A
C910   C912    1.392   .     A
C911   H926    1.083   .     S
C912   H925    1.083   .     S
C913   H924    1.080   .     S
C913   C915    1.392   .     A
C914   H923    1.077   .     S
C914   C916    1.395   .     A
C915   C919    1.413   .     A
C915   C917    1.416   .     A
C916   C918    1.419   .     A
C916   C920    1.416   .     A
C917   C227    1.393   1_556 S
C919   C254    1.410   1_556 S
N937   Zn947   2.027   .     S
N938   Zn948   2.027   .     S
O939   Zn947   1.986   .     S
O940   Zn948   1.986   .     S
O941   Zn948   2.001   .     S
O942   Zn947   2.001   .     S
O943   Zn947   1.967   .     S
O944   Zn948   1.967   .     S
O945   Zn948   1.931   .     S
O946   Zn947   1.931   .     S
C949   H955    1.107   .     S
C949   C950    1.533   .     S
C949   H954    1.100   .     S
C950   H951    1.111   .     S
C950   H952    1.110   .     S
C950   H953    1.111   .     S
C956   H962    1.091   .     S
C956   H961    1.111   .     S
C956   C957    1.533   .     S
C957   H960    1.111   .     S
C957   H958    1.109   .     S
C957   H959    1.110   .     S
C963   O1013   1.286   .     A
C963   C974    1.415   .     S
C963   O1015   1.291   .     A
C964   O1014   1.286   .     A
C964   C973    1.416   .     S
C964   O1016   1.292   .     A
C965   C967    1.391   .     A
C965   C994    1.416   .     A
C965   H1003   1.076   .     S
C966   H1004   1.079   .     S
C966   C968    1.388   .     A
C966   C993    1.415   .     A
C967   H995    1.084   .     S
C968   H996    1.083   .     S
C968   C326    1.392   1_556 S
C969   H1005   1.084   .     S
C969   C974    1.394   .     A
C969   C1193   1.371   .     S
C970   H1006   1.083   .     S
C970   C973    1.394   .     A
C971   H1007   1.084   .     S
C971   C973    1.399   .     A
C972   H1008   1.084   .     S
C972   C974    1.398   .     A
C972   C1192   1.371   .     S
C975   N1012   1.351   .     A
C975   H1009   1.078   .     S
C975   C1051   1.426   .     S
C976   N1011   1.352   .     A
C976   H1010   1.080   .     S
C977   C1023   1.519   .     S
C977   N1011   1.394   .     A
C978   C1030   1.518   .     S
C978   N1012   1.393   .     A
C978   C1050   1.423   .     S
C979   C981    1.458   .     S
C979   O1017   1.299   .     A
C979   O1019   1.299   .     A
C980   O1018   1.297   .     A
C980   C982    1.458   .     S
C980   O1020   1.301   .     A
C981   C987    1.391   .     A
C981   C985    1.401   .     A
C982   C986    1.400   .     A
C982   C988    1.393   .     A
C983   C991    1.405   .     A
C983   C985    1.396   .     A
C983   H1001   1.083   .     S
C984   H1002   1.083   .     S
C984   C992    1.403   .     A
C984   C986    1.392   .     A
C985   H1000   1.083   .     S
C986   H999    1.083   .     S
C987   H998    1.080   .     S
C987   C989    1.392   .     A
C988   H997    1.077   .     S
C988   C990    1.395   .     A
C989   C993    1.413   .     A
C989   C991    1.416   .     A
C990   C992    1.419   .     A
C990   C994    1.416   .     A
C991   C301    1.393   1_556 S
C993   C328    1.410   1_556 S
N1011  Zn1021  2.027   .     S
N1012  Zn1022  2.027   .     S
O1013  Zn1021  1.986   .     S
O1014  Zn1022  1.986   .     S
O1015  Zn1022  2.001   .     S
O1016  Zn1021  2.001   .     S
O1017  Zn1021  1.967   .     S
O1018  Zn1022  1.967   .     S
O1019  Zn1022  1.931   .     S
O1020  Zn1021  1.931   .     S
C1023  H1029   1.107   .     S
C1023  C1024   1.533   .     S
C1023  H1028   1.100   .     S
C1024  H1025   1.111   .     S
C1024  H1026   1.110   .     S
C1024  H1027   1.111   .     S
C1030  H1036   1.091   .     S
C1030  H1035   1.111   .     S
C1030  C1031   1.533   .     S
C1031  H1034   1.111   .     S
C1031  H1032   1.109   .     S
C1031  H1033   1.110   .     S
C1037  O1087   1.286   .     A
C1037  C1048   1.415   .     S
C1037  O1089   1.291   .     A
C1038  O1088   1.286   .     A
C1038  C1047   1.416   .     S
C1038  O1090   1.292   .     A
C1039  C1041   1.391   .     A
C1039  C1068   1.416   .     A
C1039  H1077   1.076   .     S
C1040  H1078   1.079   .     S
C1040  C1042   1.388   .     A
C1040  C1067   1.415   .     A
C1041  H1069   1.084   .     S
C1042  H1070   1.083   .     S
C1042  C400    1.392   1_556 S
C1043  H1079   1.084   .     S
C1043  C1048   1.394   .     A
C1043  C1267   1.371   .     S
C1044  H1080   1.083   .     S
C1044  C1047   1.394   .     A
C1045  H1081   1.084   .     S
C1045  C1047   1.399   .     A
C1046  H1082   1.084   .     S
C1046  C1048   1.398   .     A
C1046  C1266   1.371   .     S
C1049  N1086   1.351   .     A
C1049  H1083   1.078   .     S
C1049  C903    1.426   1_655 S
C1050  N1085   1.352   .     A
C1050  H1084   1.080   .     S
C1051  C1097   1.519   .     S
C1051  N1085   1.394   .     A
C1052  C1104   1.518   .     S
C1052  N1086   1.393   .     A
C1052  C902    1.423   1_655 S
C1053  C1055   1.458   .     S
C1053  O1091   1.299   .     A
C1053  O1093   1.299   .     A
C1054  O1092   1.297   .     A
C1054  C1056   1.458   .     S
C1054  O1094   1.301   .     A
C1055  C1061   1.391   .     A
C1055  C1059   1.401   .     A
C1056  C1060   1.400   .     A
C1056  C1062   1.393   .     A
C1057  C1065   1.405   .     A
C1057  C1059   1.396   .     A
C1057  H1075   1.083   .     S
C1058  H1076   1.083   .     S
C1058  C1066   1.403   .     A
C1058  C1060   1.392   .     A
C1059  H1074   1.083   .     S
C1060  H1073   1.083   .     S
C1061  H1072   1.080   .     S
C1061  C1063   1.392   .     A
C1062  H1071   1.077   .     S
C1062  C1064   1.395   .     A
C1063  C1067   1.413   .     A
C1063  C1065   1.416   .     A
C1064  C1066   1.419   .     A
C1064  C1068   1.416   .     A
C1065  C375    1.393   1_556 S
C1067  C402    1.410   1_556 S
N1085  Zn1095  2.027   .     S
N1086  Zn1096  2.027   .     S
O1087  Zn1095  1.986   .     S
O1088  Zn1096  1.986   .     S
O1089  Zn1096  2.001   .     S
O1090  Zn1095  2.001   .     S
O1091  Zn1095  1.967   .     S
O1092  Zn1096  1.967   .     S
O1093  Zn1096  1.931   .     S
O1094  Zn1095  1.931   .     S
C1097  H1103   1.107   .     S
C1097  C1098   1.533   .     S
C1097  H1102   1.100   .     S
C1098  H1099   1.111   .     S
C1098  H1100   1.110   .     S
C1098  H1101   1.111   .     S
C1104  H1110   1.091   .     S
C1104  H1109   1.111   .     S
C1104  C1105   1.533   .     S
C1105  H1108   1.111   .     S
C1105  H1106   1.109   .     S
C1105  H1107   1.110   .     S
C1111  O1161   1.286   .     A
C1111  C1122   1.415   .     S
C1111  O1163   1.291   .     A
C1112  O1162   1.286   .     A
C1112  C1121   1.416   .     S
C1112  O1164   1.292   .     A
C1113  C1115   1.391   .     A
C1113  C1142   1.416   .     A
C1113  H1151   1.076   .     S
C1114  H1152   1.079   .     S
C1114  C1116   1.388   .     A
C1114  C1141   1.415   .     A
C1115  H1143   1.084   .     S
C1116  H1144   1.083   .     S
C1116  C474    1.392   1_556 S
C1117  H1153   1.084   .     S
C1117  C1122   1.394   .     A
C1117  C675    1.371   1_565 S
C1118  H1154   1.083   .     S
C1118  C1121   1.394   .     A
C1119  H1155   1.084   .     S
C1119  C1121   1.399   .     A
C1120  H1156   1.084   .     S
C1120  C1122   1.398   .     A
C1120  C674    1.371   1_565 S
C1123  N1160   1.351   .     A
C1123  H1157   1.078   .     S
C1123  C1199   1.426   .     S
C1124  N1159   1.352   .     A
C1124  H1158   1.080   .     S
C1124  C1274   1.423   1_455 S
C1125  C1171   1.519   .     S
C1125  N1159   1.394   .     A
C1125  C1271   1.426   1_455 S
C1126  C1178   1.518   .     S
C1126  N1160   1.393   .     A
C1126  C1198   1.423   .     S
C1127  C1129   1.458   .     S
C1127  O1165   1.299   .     A
C1127  O1167   1.299   .     A
C1128  O1166   1.297   .     A
C1128  C1130   1.458   .     S
C1128  O1168   1.301   .     A
C1129  C1135   1.391   .     A
C1129  C1133   1.401   .     A
C1130  C1134   1.400   .     A
C1130  C1136   1.393   .     A
C1131  C1139   1.405   .     A
C1131  C1133   1.396   .     A
C1131  H1149   1.083   .     S
C1132  H1150   1.083   .     S
C1132  C1140   1.403   .     A
C1132  C1134   1.392   .     A
C1133  H1148   1.083   .     S
C1134  H1147   1.083   .     S
C1135  H1146   1.080   .     S
C1135  C1137   1.392   .     A
C1136  H1145   1.077   .     S
C1136  C1138   1.395   .     A
C1137  C1141   1.413   .     A
C1137  C1139   1.416   .     A
C1138  C1140   1.419   .     A
C1138  C1142   1.416   .     A
C1139  C449    1.393   1_556 S
C1141  C476    1.410   1_556 S
N1159  Zn1169  2.027   .     S
N1160  Zn1170  2.027   .     S
O1161  Zn1169  1.986   .     S
O1162  Zn1170  1.986   .     S
O1163  Zn1170  2.001   .     S
O1164  Zn1169  2.001   .     S
O1165  Zn1169  1.967   .     S
O1166  Zn1170  1.967   .     S
O1167  Zn1170  1.931   .     S
O1168  Zn1169  1.931   .     S
C1171  H1177   1.107   .     S
C1171  C1172   1.533   .     S
C1171  H1176   1.100   .     S
C1172  H1173   1.111   .     S
C1172  H1174   1.110   .     S
C1172  H1175   1.111   .     S
C1178  H1184   1.091   .     S
C1178  H1183   1.111   .     S
C1178  C1179   1.533   .     S
C1179  H1182   1.111   .     S
C1179  H1180   1.109   .     S
C1179  H1181   1.110   .     S
C1185  O1235   1.286   .     A
C1185  C1196   1.415   .     S
C1185  O1237   1.291   .     A
C1186  O1236   1.286   .     A
C1186  C1195   1.416   .     S
C1186  O1238   1.292   .     A
C1187  C1189   1.391   .     A
C1187  C1216   1.416   .     A
C1187  H1225   1.076   .     S
C1188  H1226   1.079   .     S
C1188  C1190   1.388   .     A
C1188  C1215   1.415   .     A
C1189  H1217   1.084   .     S
C1190  H1218   1.083   .     S
C1190  C548    1.392   1_556 S
C1191  H1227   1.084   .     S
C1191  C1196   1.394   .     A
C1191  C749    1.371   1_565 S
C1192  H1228   1.083   .     S
C1192  C1195   1.394   .     A
C1193  H1229   1.084   .     S
C1193  C1195   1.399   .     A
C1194  H1230   1.084   .     S
C1194  C1196   1.398   .     A
C1194  C748    1.371   1_565 S
C1197  N1234   1.351   .     A
C1197  H1231   1.078   .     S
C1197  C1273   1.426   .     S
C1198  N1233   1.352   .     A
C1198  H1232   1.080   .     S
C1199  C1245   1.519   .     S
C1199  N1233   1.394   .     A
C1200  C1252   1.518   .     S
C1200  N1234   1.393   .     A
C1200  C1272   1.423   .     S
C1201  C1203   1.458   .     S
C1201  O1239   1.299   .     A
C1201  O1241   1.299   .     A
C1202  O1240   1.297   .     A
C1202  C1204   1.458   .     S
C1202  O1242   1.301   .     A
C1203  C1209   1.391   .     A
C1203  C1207   1.401   .     A
C1204  C1208   1.400   .     A
C1204  C1210   1.393   .     A
C1205  C1213   1.405   .     A
C1205  C1207   1.396   .     A
C1205  H1223   1.083   .     S
C1206  H1224   1.083   .     S
C1206  C1214   1.403   .     A
C1206  C1208   1.392   .     A
C1207  H1222   1.083   .     S
C1208  H1221   1.083   .     S
C1209  H1220   1.080   .     S
C1209  C1211   1.392   .     A
C1210  H1219   1.077   .     S
C1210  C1212   1.395   .     A
C1211  C1215   1.413   .     A
C1211  C1213   1.416   .     A
C1212  C1214   1.419   .     A
C1212  C1216   1.416   .     A
C1213  C523    1.393   1_556 S
C1215  C550    1.410   1_556 S
N1233  Zn1243  2.027   .     S
N1234  Zn1244  2.027   .     S
O1235  Zn1243  1.986   .     S
O1236  Zn1244  1.986   .     S
O1237  Zn1244  2.001   .     S
O1238  Zn1243  2.001   .     S
O1239  Zn1243  1.967   .     S
O1240  Zn1244  1.967   .     S
O1241  Zn1244  1.931   .     S
O1242  Zn1243  1.931   .     S
C1245  H1251   1.107   .     S
C1245  C1246   1.533   .     S
C1245  H1250   1.100   .     S
C1246  H1247   1.111   .     S
C1246  H1248   1.110   .     S
C1246  H1249   1.111   .     S
C1252  H1258   1.091   .     S
C1252  H1257   1.111   .     S
C1252  C1253   1.533   .     S
C1253  H1256   1.111   .     S
C1253  H1254   1.109   .     S
C1253  H1255   1.110   .     S
C1259  O1309   1.286   .     A
C1259  C1270   1.415   .     S
C1259  O1311   1.291   .     A
C1260  O1310   1.286   .     A
C1260  C1269   1.416   .     S
C1260  O1312   1.292   .     A
C1261  C1263   1.391   .     A
C1261  C1290   1.416   .     A
C1261  H1299   1.076   .     S
C1262  H1300   1.079   .     S
C1262  C1264   1.388   .     A
C1262  C1289   1.415   .     A
C1263  H1291   1.084   .     S
C1264  H1292   1.083   .     S
C1264  C622    1.392   1_556 S
C1265  H1301   1.084   .     S
C1265  C1270   1.394   .     A
C1265  C823    1.371   1_565 S
C1266  H1302   1.083   .     S
C1266  C1269   1.394   .     A
C1267  H1303   1.084   .     S
C1267  C1269   1.399   .     A
C1268  H1304   1.084   .     S
C1268  C1270   1.398   .     A
C1268  C822    1.371   1_565 S
C1271  N1308   1.351   .     A
C1271  H1305   1.078   .     S
C1271  C1125   1.426   1_655 S
C1272  N1307   1.352   .     A
C1272  H1306   1.080   .     S
C1273  C1319   1.519   .     S
C1273  N1307   1.394   .     A
C1274  C1326   1.518   .     S
C1274  N1308   1.393   .     A
C1274  C1124   1.423   1_655 S
C1275  C1277   1.458   .     S
C1275  O1313   1.299   .     A
C1275  O1315   1.299   .     A
C1276  O1314   1.297   .     A
C1276  C1278   1.458   .     S
C1276  O1316   1.301   .     A
C1277  C1283   1.391   .     A
C1277  C1281   1.401   .     A
C1278  C1282   1.400   .     A
C1278  C1284   1.393   .     A
C1279  C1287   1.405   .     A
C1279  C1281   1.396   .     A
C1279  H1297   1.083   .     S
C1280  H1298   1.083   .     S
C1280  C1288   1.403   .     A
C1280  C1282   1.392   .     A
C1281  H1296   1.083   .     S
C1282  H1295   1.083   .     S
C1283  H1294   1.080   .     S
C1283  C1285   1.392   .     A
C1284  H1293   1.077   .     S
C1284  C1286   1.395   .     A
C1285  C1289   1.413   .     A
C1285  C1287   1.416   .     A
C1286  C1288   1.419   .     A
C1286  C1290   1.416   .     A
C1287  C597    1.393   1_556 S
C1289  C624    1.410   1_556 S
N1307  Zn1317  2.027   .     S
N1308  Zn1318  2.027   .     S
O1309  Zn1317  1.986   .     S
O1310  Zn1318  1.986   .     S
O1311  Zn1318  2.001   .     S
O1312  Zn1317  2.001   .     S
O1313  Zn1317  1.967   .     S
O1314  Zn1318  1.967   .     S
O1315  Zn1318  1.931   .     S
O1316  Zn1317  1.931   .     S
C1319  H1325   1.107   .     S
C1319  C1320   1.533   .     S
C1319  H1324   1.100   .     S
C1320  H1321   1.111   .     S
C1320  H1322   1.110   .     S
C1320  H1323   1.111   .     S
C1326  H1332   1.091   .     S
C1326  H1331   1.111   .     S
C1326  C1327   1.533   .     S
C1327  H1330   1.111   .     S
C1327  H1328   1.109   .     S
C1327  H1329   1.110   .     S
