data_str_m1_o1_o2_pcu_sym.72
_audit_creation_date              2020-01-03
_audit_creation_method            'Materials Studio'
_symmetry_space_group_name_H-M    'P1'
_symmetry_Int_Tables_number       1
_symmetry_cell_setting            triclinic
loop_
_symmetry_equiv_pos_as_xyz
  x,y,z
_cell_length_a                    36.7284
_cell_length_b                    36.7668
_cell_length_c                    34.3791
_cell_angle_alpha                 90.0227
_cell_angle_beta                  89.9949
_cell_angle_gamma                 90.0190
loop_
_atom_site_label
_atom_site_type_symbol
_atom_site_fract_x
_atom_site_fract_y
_atom_site_fract_z
_atom_site_U_iso_or_equiv
_atom_site_adp_type
_atom_site_occupancy
C1     C     0.22520   0.47985   0.04065   0.00000  Uiso   1.00
C2     C     0.01895   0.22300   0.45877   0.00000  Uiso   1.00
C3     C     0.34760   0.40107   0.75034   0.00000  Uiso   1.00
C4     C     0.40172   0.15177   0.24997   0.00000  Uiso   1.00
C5     C     0.09825   0.34818   0.74999   0.00000  Uiso   1.00
C6     C     0.34778   0.40189   0.24989   0.00000  Uiso   1.00
C7     C     0.15295   0.09937   0.75111   0.00000  Uiso   1.00
C8     C     0.09874   0.15266   0.75074   0.00000  Uiso   1.00
C9     C     0.40171   0.34833   0.25006   0.00000  Uiso   1.00
C10    C     0.15197   0.40196   0.75005   0.00000  Uiso   1.00
C11    C     0.34797   0.09801   0.24997   0.00000  Uiso   1.00
C12    C     0.40169   0.34778   0.75016   0.00000  Uiso   1.00
C13    C     0.28211   0.49205   0.54179   0.00000  Uiso   1.00
C14    C     0.09837   0.15177   0.24993   0.00000  Uiso   1.00
C15    C     0.34843   0.09766   0.74985   0.00000  Uiso   1.00
C16    C     0.15199   0.40203   0.25004   0.00000  Uiso   1.00
C17    C     0.24993   0.00083   0.10218   0.00000  Uiso   1.00
C18    C     0.25004   0.00067   0.89768   0.00000  Uiso   1.00
C19    C     0.49987   0.25000   0.10236   0.00000  Uiso   1.00
C20    C     0.00000   0.24997   0.89752   0.00000  Uiso   1.00
C21    C     0.49992   0.25011   0.60249   0.00000  Uiso   1.00
C22    C     0.00001   0.25001   0.39766   0.00000  Uiso   1.00
C23    C     0.25003   0.00000   0.60272   0.00000  Uiso   1.00
C24    C     0.27479   0.02184   0.45883   0.00000  Uiso   1.00
C25    C     0.25000   0.00002   0.39771   0.00000  Uiso   1.00
C26    C     0.09206   0.46398   0.25088   0.00000  Uiso   1.00
C27    C     0.08283   0.00188   0.23564   0.00000  Uiso   1.00
C28    C     0.06598   0.02565   0.26725   0.00000  Uiso   1.00
C29    C     0.33821   0.10029   0.84098   0.00000  Uiso   1.00
C30    C     0.33273   0.07702   0.87735   0.00000  Uiso   1.00
C31    C     0.30276   0.09230   0.90337   0.00000  Uiso   1.00
C32    C     0.05220   0.11195   0.18339   0.00000  Uiso   1.00
C33    C     0.05893   0.07683   0.16050   0.00000  Uiso   1.00
C34    C     0.02373   0.05544   0.15476   0.00000  Uiso   1.00
C35    C     0.01672   0.27856   0.54148   0.00000  Uiso   1.00
C36    C     0.40068   0.34163   0.84190   0.00000  Uiso   1.00
C37    C     0.42433   0.33714   0.87815   0.00000  Uiso   1.00
C38    C     0.40752   0.31028   0.90680   0.00000  Uiso   1.00
C39    C     0.40830   0.03623   0.25083   0.00000  Uiso   1.00
C40    C     0.41741   0.49824   0.23571   0.00000  Uiso   1.00
C41    C     0.43500   0.47482   0.26714   0.00000  Uiso   1.00
C42    C     0.17184   0.39682   0.83699   0.00000  Uiso   1.00
C43    C     0.16064   0.36814   0.86698   0.00000  Uiso   1.00
C44    C     0.19333   0.35512   0.89055   0.00000  Uiso   1.00
C45    C     0.44734   0.38802   0.18316   0.00000  Uiso   1.00
C46    C     0.48116   0.27711   0.45878   0.00000  Uiso   1.00
C47    C     0.43999   0.42313   0.16052   0.00000  Uiso   1.00
C48    C     0.47485   0.44511   0.15486   0.00000  Uiso   1.00
C49    C     0.09236   0.16110   0.84005   0.00000  Uiso   1.00
C50    C     0.11579   0.14577   0.87299   0.00000  Uiso   1.00
C51    C     0.12450   0.17493   0.90319   0.00000  Uiso   1.00
C52    C     0.10303   0.05112   0.81060   0.00000  Uiso   1.00
C53    C     0.10840   0.02336   0.84313   0.00000  Uiso   1.00
C54    C     0.07895   0.49414   0.84211   0.00000  Uiso   1.00
C55    C     0.32742   0.39502   0.16355   0.00000  Uiso   1.00
C56    C     0.33836   0.36273   0.13788   0.00000  Uiso   1.00
C57    C     0.21797   0.00806   0.54180   0.00000  Uiso   1.00
C58    C     0.30592   0.34837   0.11478   0.00000  Uiso   1.00
C59    C     0.05846   0.38959   0.82239   0.00000  Uiso   1.00
C60    C     0.03294   0.37906   0.85562   0.00000  Uiso   1.00
C61    C     0.00335   0.40765   0.86161   0.00000  Uiso   1.00
C62    C     0.43635   0.12172   0.17152   0.00000  Uiso   1.00
C63    C     0.42234   0.09026   0.14633   0.00000  Uiso   1.00
C64    C     0.42591   0.09892   0.10309   0.00000  Uiso   1.00
C65    C     0.39546   0.44729   0.81340   0.00000  Uiso   1.00
C66    C     0.38746   0.47579   0.84460   0.00000  Uiso   1.00
C67    C     0.41612   0.00580   0.84457   0.00000  Uiso   1.00
C68    C     0.22525   0.47823   0.45884   0.00000  Uiso   1.00
C69    C     0.16813   0.10523   0.16152   0.00000  Uiso   1.00
C70    C     0.17640   0.08468   0.12389   0.00000  Uiso   1.00
C71    C     0.20891   0.10108   0.10253   0.00000  Uiso   1.00
C72    C     0.44456   0.10885   0.81963   0.00000  Uiso   1.00
C73    C     0.47186   0.12019   0.85092   0.00000  Uiso   1.00
C74    C     0.00210   0.09206   0.85530   0.00000  Uiso   1.00
C75    C     0.06334   0.37846   0.17173   0.00000  Uiso   1.00
C76    C     0.07681   0.41013   0.14652   0.00000  Uiso   1.00
C77    C     0.07289   0.40157   0.10329   0.00000  Uiso   1.00
C78    C     0.35797   0.19386   0.68089   0.00000  Uiso   1.00
C79    C     0.22497   0.47905   0.08114   0.00000  Uiso   1.00
C80    C     0.36774   0.22033   0.64828   0.00000  Uiso   1.00
C81    C     0.33974   0.25079   0.64518   0.00000  Uiso   1.00
C82    C     0.12808   0.31393   0.32871   0.00000  Uiso   1.00
C83    C     0.15949   0.32803   0.35395   0.00000  Uiso   1.00
C84    C     0.15081   0.32433   0.39717   0.00000  Uiso   1.00
C85    C     0.30859   0.34768   0.67578   0.00000  Uiso   1.00
C86    C     0.29136   0.32478   0.70868   0.00000  Uiso   1.00
C87    C     0.26074   0.34460   0.72997   0.00000  Uiso   1.00
C88    C     0.14392   0.08262   0.33862   0.00000  Uiso   1.00
C89    C     0.16431   0.07392   0.37623   0.00000  Uiso   1.00
C90    C     0.27275   0.47659   0.91861   0.00000  Uiso   1.00
C91    C     0.14621   0.04286   0.39841   0.00000  Uiso   1.00
C92    C     0.13847   0.31000   0.67482   0.00000  Uiso   1.00
C93    C     0.12903   0.28958   0.63745   0.00000  Uiso   1.00
C94    C     0.15683   0.25996   0.62862   0.00000  Uiso   1.00
C95    C     0.37146   0.18667   0.32823   0.00000  Uiso   1.00
C96    C     0.33985   0.17305   0.35348   0.00000  Uiso   1.00
C97    C     0.34857   0.17673   0.39670   0.00000  Uiso   1.00
C98    C     0.20771   0.14627   0.70081   0.00000  Uiso   1.00
C99    C     0.20447   0.18517   0.68535   0.00000  Uiso   1.00
C100   C     0.24041   0.20576   0.68912   0.00000  Uiso   1.00
C101   C     0.02703   0.23083   0.08172   0.00000  Uiso   1.00
C102   C     0.35722   0.41862   0.33819   0.00000  Uiso   1.00
C103   C     0.33728   0.42802   0.37589   0.00000  Uiso   1.00
C104   C     0.35585   0.45924   0.39738   0.00000  Uiso   1.00
C105   C     0.36241   0.30283   0.31743   0.00000  Uiso   1.00
C106   C     0.32728   0.30992   0.34022   0.00000  Uiso   1.00
C107   C     0.30570   0.27489   0.34625   0.00000  Uiso   1.00
C108   C     0.09725   0.15509   0.65906   0.00000  Uiso   1.00
C109   C     0.09335   0.18025   0.62393   0.00000  Uiso   1.00
C110   C     0.06679   0.16485   0.59404   0.00000  Uiso   1.00
C111   C     0.28589   0.15770   0.24876   0.00000  Uiso   1.00
C112   C     0.27273   0.47748   0.95910   0.00000  Uiso   1.00
C113   C     0.02821   0.26762   0.91806   0.00000  Uiso   1.00
C114   C     0.24792   0.16702   0.26388   0.00000  Uiso   1.00
C115   C     0.22414   0.18350   0.23207   0.00000  Uiso   1.00
C116   C     0.14571   0.42207   0.66307   0.00000  Uiso   1.00
C117   C     0.11627   0.41043   0.63405   0.00000  Uiso   1.00
C118   C     0.10348   0.44243   0.60935   0.00000  Uiso   1.00
C119   C     0.13826   0.19795   0.31638   0.00000  Uiso   1.00
C120   C     0.17335   0.19128   0.33937   0.00000  Uiso   1.00
C121   C     0.19487   0.22643   0.34486   0.00000  Uiso   1.00
C122   C     0.40854   0.35250   0.65893   0.00000  Uiso   1.00
C123   C     0.41645   0.32987   0.62261   0.00000  Uiso   1.00
C124   C     0.27470   0.02341   0.08185   0.00000  Uiso   1.00
C125   C     0.44185   0.34986   0.59476   0.00000  Uiso   1.00
C126   C     0.21352   0.34076   0.25010   0.00000  Uiso   1.00
C127   C     0.25139   0.33150   0.26553   0.00000  Uiso   1.00
C128   C     0.27424   0.31184   0.23500   0.00000  Uiso   1.00
C129   C     0.35031   0.08167   0.66171   0.00000  Uiso   1.00
C130   C     0.37821   0.09442   0.63153   0.00000  Uiso   1.00
C131   C     0.38984   0.06329   0.60494   0.00000  Uiso   1.00
C132   C     0.19971   0.45472   0.10021   0.00000  Uiso   1.00
C133   C     0.29505   0.44966   0.89937   0.00000  Uiso   1.00
C134   C     0.05571   0.21125   0.10146   0.00000  Uiso   1.00
C135   C     0.22749   0.02542   0.91797   0.00000  Uiso   1.00
C136   C     0.05820   0.28504   0.89819   0.00000  Uiso   1.00
C137   C     0.29977   0.04739   0.10172   0.00000  Uiso   1.00
C138   C     0.20472   0.05147   0.89800   0.00000  Uiso   1.00
C139   C     0.44396   0.28866   0.10174   0.00000  Uiso   1.00
C140   C     0.44243   0.21387   0.89813   0.00000  Uiso   1.00
C141   C     0.46462   0.19209   0.60183   0.00000  Uiso   1.00
C142   C     0.03906   0.19441   0.39842   0.00000  Uiso   1.00
C143   C     0.31569   0.48307   0.60245   0.00000  Uiso   1.00
C144   C     0.30107   0.04502   0.39863   0.00000  Uiso   1.00
C145   C     0.03396   0.30887   0.60190   0.00000  Uiso   1.00
C146   C     0.47267   0.26923   0.08186   0.00000  Uiso   1.00
C147   C     0.46103   0.30566   0.39845   0.00000  Uiso   1.00
C148   C     0.18443   0.01720   0.60247   0.00000  Uiso   1.00
C149   C     0.19892   0.45506   0.39865   0.00000  Uiso   1.00
C150   C     0.47185   0.23221   0.91803   0.00000  Uiso   1.00
C151   C     0.48253   0.22176   0.58196   0.00000  Uiso   1.00
C152   C     0.01939   0.22298   0.41823   0.00000  Uiso   1.00
C153   C     0.28223   0.49167   0.58232   0.00000  Uiso   1.00
C154   C     0.27476   0.02228   0.41832   0.00000  Uiso   1.00
C155   C     0.01708   0.27862   0.58200   0.00000  Uiso   1.00
C156   C     0.02701   0.23138   0.04119   0.00000  Uiso   1.00
C157   C     0.48067   0.27708   0.41824   0.00000  Uiso   1.00
C158   C     0.21784   0.00842   0.58233   0.00000  Uiso   1.00
C159   C     0.22526   0.47778   0.41833   0.00000  Uiso   1.00
C160   C     0.24992   0.00199   0.02098   0.00000  Uiso   1.00
C161   C     0.25033   0.00196   0.97880   0.00000  Uiso   1.00
C162   C     0.49983   0.25017   0.02110   0.00000  Uiso   1.00
C163   C     0.49982   0.25022   0.97872   0.00000  Uiso   1.00
C164   C     0.00004   0.25007   0.52130   0.00000  Uiso   1.00
C165   C     0.00006   0.25006   0.47893   0.00000  Uiso   1.00
C166   C     0.25004   0.00004   0.52155   0.00000  Uiso   1.00
C167   C     0.02808   0.26733   0.95859   0.00000  Uiso   1.00
C168   C     0.25003   0.00004   0.47907   0.00000  Uiso   1.00
C169   C     0.25000   0.00001   0.35514   0.00000  Uiso   1.00
C170   C     0.25002  -0.00000   0.64502   0.00000  Uiso   1.00
C171   C     0.00000   0.25000   0.35513   0.00000  Uiso   1.00
C172   C     0.49999   0.25004   0.64493   0.00000  Uiso   1.00
C173   C     0.00001   0.25000   0.85507   0.00000  Uiso   1.00
C174   C     0.49996   0.25000   0.14489   0.00000  Uiso   1.00
C175   C     0.25000   0.00009   0.85514   0.00000  Uiso   1.00
C176   C     0.24999   0.00015   0.14481   0.00000  Uiso   1.00
C177   C     0.18000   0.06998   0.25000   0.00000  Uiso   1.00
C178   C     0.27449   0.02374   0.04134   0.00000  Uiso   1.00
C179   C     0.31995   0.42974   0.75015   0.00000  Uiso   1.00
C180   C     0.42988   0.17990   0.24999   0.00000  Uiso   1.00
C181   C     0.07008   0.32009   0.74997   0.00000  Uiso   1.00
C182   C     0.31998   0.43001   0.24999   0.00000  Uiso   1.00
C183   C     0.18020   0.07038   0.75034   0.00000  Uiso   1.00
C184   C     0.07009   0.32012   0.25004   0.00000  Uiso   1.00
C185   C     0.42988   0.17996   0.75005   0.00000  Uiso   1.00
C186   C     0.17999   0.42998   0.75002   0.00000  Uiso   1.00
C187   C     0.32001   0.07001   0.24999   0.00000  Uiso   1.00
C188   C     0.42997   0.32002   0.74998   0.00000  Uiso   1.00
C189   C     0.22783   0.02584   0.95847   0.00000  Uiso   1.00
C190   C     0.07014   0.17990   0.24998   0.00000  Uiso   1.00
C191   C     0.32010   0.06994   0.74997   0.00000  Uiso   1.00
C192   C     0.18000   0.42999   0.24999   0.00000  Uiso   1.00
C193   C     0.07012   0.18007   0.75010   0.00000  Uiso   1.00
C194   C     0.42990   0.32015   0.25005   0.00000  Uiso   1.00
C195   C     0.11734   0.40968   0.23466   0.00000  Uiso   1.00
C196   C     0.36916   0.10387   0.78371   0.00000  Uiso   1.00
C197   C     0.10358   0.12972   0.21659   0.00000  Uiso   1.00
C198   C     0.39683   0.36982   0.78322   0.00000  Uiso   1.00
C199   C     0.38264   0.09034   0.23465   0.00000  Uiso   1.00
C200   C     0.47265   0.26885   0.04131   0.00000  Uiso   1.00
C201   C     0.13301   0.39397   0.78465   0.00000  Uiso   1.00
C202   C     0.39619   0.37003   0.21655   0.00000  Uiso   1.00
C203   C     0.10257   0.12959   0.78327   0.00000  Uiso   1.00
C204   C     0.12778   0.10127   0.78207   0.00000  Uiso   1.00
C205   C     0.36684   0.39401   0.21541   0.00000  Uiso   1.00
C206   C     0.10445   0.36891   0.78388   0.00000  Uiso   1.00
C207   C     0.40794   0.11826   0.23080   0.00000  Uiso   1.00
C208   C     0.37159   0.39805   0.78222   0.00000  Uiso   1.00
C209   C     0.13251   0.10523   0.21568   0.00000  Uiso   1.00
C210   C     0.39705   0.12967   0.78317   0.00000  Uiso   1.00
C211   C     0.47172   0.23287   0.95856   0.00000  Uiso   1.00
C212   C     0.09200   0.38179   0.23089   0.00000  Uiso   1.00
C213   C     0.37986   0.14668   0.71681   0.00000  Uiso   1.00
C214   C     0.13169   0.34218   0.26938   0.00000  Uiso   1.00
C215   C     0.34993   0.37660   0.71863   0.00000  Uiso   1.00
C216   C     0.14491   0.11766   0.28415   0.00000  Uiso   1.00
C217   C     0.11891   0.35451   0.71608   0.00000  Uiso   1.00
C218   C     0.36815   0.15797   0.26910   0.00000  Uiso   1.00
C219   C     0.15176   0.12539   0.72080   0.00000  Uiso   1.00
C220   C     0.35546   0.38279   0.28433   0.00000  Uiso   1.00
C221   C     0.37990   0.35382   0.28351   0.00000  Uiso   1.00
C222   C     0.48314   0.22170   0.54144   0.00000  Uiso   1.00
C223   C     0.12284   0.14968   0.71900   0.00000  Uiso   1.00
C224   C     0.34025   0.13265   0.26526   0.00000  Uiso   1.00
C225   C     0.14390   0.38315   0.71539   0.00000  Uiso   1.00
C226   C     0.12045   0.14660   0.28325   0.00000  Uiso   1.00
C227   C     0.37930   0.35221   0.71722   0.00000  Uiso   1.00
C228   C     0.15964   0.36746   0.26551   0.00000  Uiso   1.00
C229   C     0.35489   0.11811   0.71587   0.00000  Uiso   1.00
C230   C     0.09820   0.34830   0.25011   0.00000  Uiso   1.00
C231   C     0.40179   0.15181   0.75006   0.00000  Uiso   1.00
C232   C     0.15210   0.09800   0.24994   0.00000  Uiso   1.00
H233   H     0.20639   0.46298   0.02431   0.00000  Uiso   1.00
H234   H     0.03353   0.20214   0.47475   0.00000  Uiso   1.00
H235   H     0.45493   0.10326   0.09523   0.00000  Uiso   1.00
H236   H     0.39636   0.46116   0.78454   0.00000  Uiso   1.00
H237   H     0.42253   0.43497   0.81946   0.00000  Uiso   1.00
H238   H     0.36028   0.48808   0.83916   0.00000  Uiso   1.00
H239   H     0.38701   0.46256   0.87367   0.00000  Uiso   1.00
H240   H     0.44342   0.49434   0.85112   0.00000  Uiso   1.00
H241   H     0.40927   0.02634   0.86710   0.00000  Uiso   1.00
H242   H     0.41686   0.01939   0.81573   0.00000  Uiso   1.00
H243   H     0.19338   0.10622   0.17947   0.00000  Uiso   1.00
H244   H     0.15960   0.13349   0.15408   0.00000  Uiso   1.00
H245   H     0.30684   0.48571   0.52592   0.00000  Uiso   1.00
H246   H     0.18243   0.05578   0.13072   0.00000  Uiso   1.00
H247   H     0.15211   0.08550   0.10462   0.00000  Uiso   1.00
H248   H     0.20338   0.12991   0.09493   0.00000  Uiso   1.00
H249   H     0.21398   0.08559   0.07532   0.00000  Uiso   1.00
H250   H     0.23369   0.09959   0.12098   0.00000  Uiso   1.00
H251   H     0.45951   0.10529   0.79161   0.00000  Uiso   1.00
H252   H     0.43230   0.08247   0.82825   0.00000  Uiso   1.00
H253   H     0.48417   0.14676   0.84294   0.00000  Uiso   1.00
H254   H     0.45756   0.12338   0.87921   0.00000  Uiso   1.00
H255   H     0.49063   0.06555   0.86478   0.00000  Uiso   1.00
H256   H     0.29389   0.03875   0.47474   0.00000  Uiso   1.00
H257   H     0.02204   0.10149   0.87740   0.00000  Uiso   1.00
H258   H     0.01648   0.08839   0.82718   0.00000  Uiso   1.00
H259   H     0.03588   0.37030   0.16145   0.00000  Uiso   1.00
H260   H     0.08123   0.35421   0.16747   0.00000  Uiso   1.00
H261   H     0.06103   0.43510   0.15343   0.00000  Uiso   1.00
H262   H     0.10601   0.41537   0.15267   0.00000  Uiso   1.00
H263   H     0.08890   0.37694   0.09570   0.00000  Uiso   1.00
H264   H     0.08323   0.42482   0.08588   0.00000  Uiso   1.00
H265   H     0.04384   0.39698   0.09574   0.00000  Uiso   1.00
H266   H     0.35540   0.20950   0.70859   0.00000  Uiso   1.00
H267   H     0.02957   0.30054   0.52553   0.00000  Uiso   1.00
H268   H     0.33131   0.18103   0.67396   0.00000  Uiso   1.00
H269   H     0.39492   0.23246   0.65412   0.00000  Uiso   1.00
H270   H     0.36906   0.20542   0.62018   0.00000  Uiso   1.00
H271   H     0.31233   0.23945   0.63888   0.00000  Uiso   1.00
H272   H     0.34749   0.26956   0.62130   0.00000  Uiso   1.00
H273   H     0.33876   0.26633   0.67285   0.00000  Uiso   1.00
H274   H     0.12021   0.28649   0.33923   0.00000  Uiso   1.00
H275   H     0.10356   0.33152   0.33263   0.00000  Uiso   1.00
H276   H     0.18473   0.31257   0.34730   0.00000  Uiso   1.00
H277   H     0.16436   0.35723   0.34756   0.00000  Uiso   1.00
H278   H     0.46660   0.29798   0.47477   0.00000  Uiso   1.00
H279   H     0.12586   0.33999   0.40449   0.00000  Uiso   1.00
H280   H     0.17384   0.33518   0.41460   0.00000  Uiso   1.00
H281   H     0.14665   0.29531   0.40496   0.00000  Uiso   1.00
H282   H     0.32704   0.33075   0.65795   0.00000  Uiso   1.00
H283   H     0.28642   0.35526   0.65537   0.00000  Uiso   1.00
H284   H     0.27969   0.29982   0.69532   0.00000  Uiso   1.00
H285   H     0.31228   0.31568   0.72987   0.00000  Uiso   1.00
H286   H     0.27206   0.36544   0.74982   0.00000  Uiso   1.00
H287   H     0.24521   0.32484   0.74791   0.00000  Uiso   1.00
H288   H     0.24168   0.35748   0.70902   0.00000  Uiso   1.00
H289   H     0.19326   0.01444   0.52594   0.00000  Uiso   1.00
H290   H     0.14209   0.05733   0.32085   0.00000  Uiso   1.00
H291   H     0.11594   0.09209   0.34611   0.00000  Uiso   1.00
H292   H     0.19278   0.06612   0.36925   0.00000  Uiso   1.00
H293   H     0.16502   0.09854   0.39500   0.00000  Uiso   1.00
H294   H     0.11789   0.05032   0.40644   0.00000  Uiso   1.00
H295   H     0.16179   0.03720   0.42542   0.00000  Uiso   1.00
H296   H     0.14579   0.01782   0.38034   0.00000  Uiso   1.00
H297   H     0.14015   0.29014   0.69925   0.00000  Uiso   1.00
H298   H     0.16553   0.32315   0.67097   0.00000  Uiso   1.00
H299   H     0.10171   0.27688   0.64046   0.00000  Uiso   1.00
H300   H     0.20616   0.46133   0.47476   0.00000  Uiso   1.00
H301   H     0.12818   0.30909   0.61277   0.00000  Uiso   1.00
H302   H     0.18466   0.27166   0.62663   0.00000  Uiso   1.00
H303   H     0.15006   0.24679   0.60048   0.00000  Uiso   1.00
H304   H     0.15612   0.23905   0.65183   0.00000  Uiso   1.00
H305   H     0.37949   0.21415   0.33851   0.00000  Uiso   1.00
H306   H     0.39583   0.16893   0.33245   0.00000  Uiso   1.00
H307   H     0.31483   0.18885   0.34679   0.00000  Uiso   1.00
H308   H     0.33459   0.14391   0.34717   0.00000  Uiso   1.00
H309   H     0.37323   0.16064   0.40407   0.00000  Uiso   1.00
H310   H     0.32534   0.16635   0.41415   0.00000  Uiso   1.00
H311   H     0.11090   0.46680   0.27615   0.00000  Uiso   1.00
H312   H     0.35326   0.20569   0.40443   0.00000  Uiso   1.00
H313   H     0.23176   0.13324   0.68698   0.00000  Uiso   1.00
H314   H     0.21333   0.14677   0.73275   0.00000  Uiso   1.00
H315   H     0.19633   0.18443   0.65422   0.00000  Uiso   1.00
H316   H     0.18335   0.19997   0.70218   0.00000  Uiso   1.00
H317   H     0.24914   0.20684   0.72003   0.00000  Uiso   1.00
H318   H     0.23690   0.23402   0.67833   0.00000  Uiso   1.00
H319   H     0.26190   0.19228   0.67155   0.00000  Uiso   1.00
H320   H     0.35894   0.44361   0.31995   0.00000  Uiso   1.00
H321   H     0.38524   0.40916   0.34549   0.00000  Uiso   1.00
H322   H     0.06641   0.45053   0.26058   0.00000  Uiso   1.00
H323   H     0.30880   0.43596   0.36912   0.00000  Uiso   1.00
H324   H     0.33655   0.40368   0.39505   0.00000  Uiso   1.00
H325   H     0.38419   0.45165   0.40519   0.00000  Uiso   1.00
H326   H     0.34059   0.46542   0.42448   0.00000  Uiso   1.00
H327   H     0.35630   0.48402   0.37891   0.00000  Uiso   1.00
H328   H     0.37762   0.28075   0.33228   0.00000  Uiso   1.00
H329   H     0.35580   0.29245   0.28772   0.00000  Uiso   1.00
H330   H     0.33397   0.32195   0.36902   0.00000  Uiso   1.00
H331   H     0.30992   0.32929   0.32397   0.00000  Uiso   1.00
H332   H     0.29937   0.26196   0.31782   0.00000  Uiso   1.00
H333   H     0.10802   0.01517   0.22478   0.00000  Uiso   1.00
H334   H     0.27971   0.28112   0.36134   0.00000  Uiso   1.00
H335   H     0.32152   0.25562   0.36443   0.00000  Uiso   1.00
H336   H     0.06967   0.14982   0.67141   0.00000  Uiso   1.00
H337   H     0.10944   0.12890   0.64920   0.00000  Uiso   1.00
H338   H     0.08340   0.20727   0.63371   0.00000  Uiso   1.00
H339   H     0.12041   0.18397   0.61003   0.00000  Uiso   1.00
H340   H     0.07678   0.13831   0.58289   0.00000  Uiso   1.00
H341   H     0.06422   0.18406   0.56927   0.00000  Uiso   1.00
H342   H     0.03949   0.16106   0.60733   0.00000  Uiso   1.00
H343   H     0.28313   0.13870   0.22363   0.00000  Uiso   1.00
H344   H     0.28981   0.45886   0.97541   0.00000  Uiso   1.00
H345   H     0.06336   0.49940   0.21102   0.00000  Uiso   1.00
H346   H     0.29936   0.18327   0.23889   0.00000  Uiso   1.00
H347   H     0.23464   0.14194   0.27499   0.00000  Uiso   1.00
H348   H     0.25035   0.18671   0.28829   0.00000  Uiso   1.00
H349   H     0.23623   0.20936   0.22147   0.00000  Uiso   1.00
H350   H     0.19662   0.18925   0.24390   0.00000  Uiso   1.00
H351   H     0.22132   0.16425   0.20736   0.00000  Uiso   1.00
H352   H     0.16763   0.43651   0.64700   0.00000  Uiso   1.00
H353   H     0.13430   0.44209   0.68423   0.00000  Uiso   1.00
H354   H     0.12719   0.38886   0.61461   0.00000  Uiso   1.00
H355   H     0.09253   0.39926   0.65011   0.00000  Uiso   1.00
H356   H     0.04000   0.01356   0.27756   0.00000  Uiso   1.00
H357   H     0.09262   0.46444   0.62821   0.00000  Uiso   1.00
H358   H     0.08156   0.43328   0.58938   0.00000  Uiso   1.00
H359   H     0.12639   0.45321   0.59167   0.00000  Uiso   1.00
H360   H     0.12303   0.22030   0.33078   0.00000  Uiso   1.00
H361   H     0.14492   0.20781   0.28649   0.00000  Uiso   1.00
H362   H     0.16662   0.17968   0.36835   0.00000  Uiso   1.00
H363   H     0.19077   0.17168   0.32350   0.00000  Uiso   1.00
H364   H     0.20117   0.23898   0.31624   0.00000  Uiso   1.00
H365   H     0.22088   0.22045   0.36003   0.00000  Uiso   1.00
H366   H     0.17902   0.24591   0.36278   0.00000  Uiso   1.00
H367   H     0.06033   0.05312   0.25535   0.00000  Uiso   1.00
H368   H     0.43485   0.35904   0.67353   0.00000  Uiso   1.00
H369   H     0.39487   0.37822   0.64993   0.00000  Uiso   1.00
H370   H     0.42925   0.30373   0.63126   0.00000  Uiso   1.00
H371   H     0.39048   0.32372   0.60738   0.00000  Uiso   1.00
H372   H     0.42898   0.37548   0.58457   0.00000  Uiso   1.00
H373   H     0.44758   0.33237   0.56914   0.00000  Uiso   1.00
H374   H     0.46800   0.35635   0.60941   0.00000  Uiso   1.00
H375   H     0.21650   0.35849   0.22397   0.00000  Uiso   1.00
H376   H     0.19958   0.31499   0.24167   0.00000  Uiso   1.00
H377   H     0.26555   0.35696   0.27420   0.00000  Uiso   1.00
H378   H     0.08500   0.02850   0.29218   0.00000  Uiso   1.00
H379   H     0.24870   0.31385   0.29162   0.00000  Uiso   1.00
H380   H     0.26136   0.28553   0.22707   0.00000  Uiso   1.00
H381   H     0.30180   0.30638   0.24686   0.00000  Uiso   1.00
H382   H     0.27711   0.32890   0.20855   0.00000  Uiso   1.00
H383   H     0.32750   0.06797   0.64632   0.00000  Uiso   1.00
H384   H     0.36274   0.06075   0.68113   0.00000  Uiso   1.00
H385   H     0.36623   0.11653   0.61358   0.00000  Uiso   1.00
H386   H     0.40266   0.10522   0.64663   0.00000  Uiso   1.00
H387   H     0.40197   0.04087   0.62229   0.00000  Uiso   1.00
H388   H     0.41050   0.07325   0.58390   0.00000  Uiso   1.00
H389   H     0.31161   0.10305   0.82565   0.00000  Uiso   1.00
H390   H     0.36607   0.05275   0.58842   0.00000  Uiso   1.00
H391   H     0.34796   0.12773   0.85004   0.00000  Uiso   1.00
H392   H     0.32534   0.04887   0.86865   0.00000  Uiso   1.00
H393   H     0.35863   0.07584   0.89403   0.00000  Uiso   1.00
H394   H     0.30991   0.12020   0.91314   0.00000  Uiso   1.00
H395   H     0.29949   0.07466   0.92935   0.00000  Uiso   1.00
H396   H     0.04795   0.21695   0.02515   0.00000  Uiso   1.00
H397   H     0.27648   0.09306   0.88741   0.00000  Uiso   1.00
H398   H     0.02989   0.12715   0.16888   0.00000  Uiso   1.00
H399   H     0.04223   0.10537   0.21326   0.00000  Uiso   1.00
H400   H     0.07079   0.08346   0.13161   0.00000  Uiso   1.00
H401   H     0.07836   0.05939   0.17657   0.00000  Uiso   1.00
H402   H     0.01090   0.04927   0.18328   0.00000  Uiso   1.00
H403   H     0.02975   0.02939   0.13972   0.00000  Uiso   1.00
H404   H     0.00444   0.07128   0.13662   0.00000  Uiso   1.00
H405   H     0.39674   0.31442   0.82818   0.00000  Uiso   1.00
H406   H     0.37373   0.35277   0.85088   0.00000  Uiso   1.00
H407   H     0.04984   0.28056   0.97457   0.00000  Uiso   1.00
H408   H     0.45175   0.32724   0.86954   0.00000  Uiso   1.00
H409   H     0.42753   0.36395   0.89270   0.00000  Uiso   1.00
H410   H     0.38071   0.32043   0.91707   0.00000  Uiso   1.00
H411   H     0.42580   0.30702   0.93229   0.00000  Uiso   1.00
H412   H     0.40381   0.28333   0.89278   0.00000  Uiso   1.00
H413   H     0.38976   0.03355   0.27637   0.00000  Uiso   1.00
H414   H     0.43404   0.04978   0.26009   0.00000  Uiso   1.00
H415   H     0.39206   0.48475   0.22557   0.00000  Uiso   1.00
H416   H     0.43636   0.00061   0.21064   0.00000  Uiso   1.00
H417   H     0.46118   0.48707   0.27666   0.00000  Uiso   1.00
H418   H     0.29336   0.04098   0.02553   0.00000  Uiso   1.00
H419   H     0.44046   0.44724   0.25538   0.00000  Uiso   1.00
H420   H     0.41655   0.47219   0.29257   0.00000  Uiso   1.00
H421   H     0.18631   0.41921   0.85226   0.00000  Uiso   1.00
H422   H     0.19177   0.38494   0.81600   0.00000  Uiso   1.00
H423   H     0.14000   0.37984   0.88706   0.00000  Uiso   1.00
H424   H     0.14836   0.34442   0.85186   0.00000  Uiso   1.00
H425   H     0.21411   0.34290   0.87103   0.00000  Uiso   1.00
H426   H     0.18439   0.33420   0.91179   0.00000  Uiso   1.00
H427   H     0.20568   0.37818   0.90674   0.00000  Uiso   1.00
H428   H     0.46968   0.37312   0.16835   0.00000  Uiso   1.00
H429   H     0.21067   0.04478   0.97428   0.00000  Uiso   1.00
H430   H     0.45748   0.39459   0.21297   0.00000  Uiso   1.00
H431   H     0.42823   0.41643   0.13160   0.00000  Uiso   1.00
H432   H     0.42027   0.44016   0.17673   0.00000  Uiso   1.00
H433   H     0.48757   0.45140   0.18341   0.00000  Uiso   1.00
H434   H     0.46840   0.47110   0.13992   0.00000  Uiso   1.00
H435   H     0.49441   0.42963   0.13666   0.00000  Uiso   1.00
H436   H     0.06786   0.17412   0.85295   0.00000  Uiso   1.00
H437   H     0.10748   0.18306   0.82446   0.00000  Uiso   1.00
H438   H     0.10113   0.12298   0.88738   0.00000  Uiso   1.00
H439   H     0.14172   0.13519   0.86082   0.00000  Uiso   1.00
H440   H     0.45167   0.28332   0.02538   0.00000  Uiso   1.00
H441   H     0.13953   0.19780   0.88947   0.00000  Uiso   1.00
H442   H     0.14175   0.16307   0.92648   0.00000  Uiso   1.00
H443   H     0.09903   0.18544   0.91651   0.00000  Uiso   1.00
H444   H     0.10454   0.03670   0.78208   0.00000  Uiso   1.00
H445   H     0.07558   0.06347   0.81377   0.00000  Uiso   1.00
H446   H     0.13552   0.01026   0.83991   0.00000  Uiso   1.00
H447   H     0.10751   0.03745   0.87173   0.00000  Uiso   1.00
H448   H     0.05166   0.00652   0.84647   0.00000  Uiso   1.00
H449   H     0.08388   0.47417   0.86574   0.00000  Uiso   1.00
H450   H     0.07947   0.47971   0.81373   0.00000  Uiso   1.00
H451   H     0.44999   0.21957   0.97451   0.00000  Uiso   1.00
H452   H     0.31426   0.41596   0.14497   0.00000  Uiso   1.00
H453   H     0.30650   0.38644   0.18520   0.00000  Uiso   1.00
H454   H     0.36008   0.37133   0.11732   0.00000  Uiso   1.00
H455   H     0.34913   0.34042   0.15637   0.00000  Uiso   1.00
H456   H     0.28397   0.33931   0.13478   0.00000  Uiso   1.00
H457   H     0.31463   0.32483   0.09680   0.00000  Uiso   1.00
H458   H     0.29515   0.36984   0.09519   0.00000  Uiso   1.00
H459   H     0.04193   0.39328   0.79544   0.00000  Uiso   1.00
H460   H     0.07179   0.41576   0.82991   0.00000  Uiso   1.00
H461   H     0.01988   0.35251   0.84899   0.00000  Uiso   1.00
H462   H     0.47014   0.19981   0.52545   0.00000  Uiso   1.00
H463   H     0.04891   0.37615   0.88291   0.00000  Uiso   1.00
H464   H     0.01573   0.43456   0.86808   0.00000  Uiso   1.00
H465   H     0.48583   0.39967   0.88648   0.00000  Uiso   1.00
H466   H     0.48614   0.40988   0.83516   0.00000  Uiso   1.00
H467   H     0.46383   0.12960   0.16103   0.00000  Uiso   1.00
H468   H     0.41871   0.14618   0.16750   0.00000  Uiso   1.00
H469   H     0.43793   0.06512   0.15296   0.00000  Uiso   1.00
H470   H     0.39315   0.08528   0.15279   0.00000  Uiso   1.00
H471   H     0.41007   0.12373   0.09580   0.00000  Uiso   1.00
H472   H     0.41517   0.07583   0.08571   0.00000  Uiso   1.00
N473   N     0.17949   0.43524   0.11547   0.00000  Uiso   1.00
N474   N     0.05481   0.17152   0.38257   0.00000  Uiso   1.00
N475   N     0.34245   0.47618   0.61862   0.00000  Uiso   1.00
N476   N     0.32212   0.06323   0.38286   0.00000  Uiso   1.00
N477   N     0.04737   0.33317   0.61780   0.00000  Uiso   1.00
N478   N     0.44530   0.32856   0.38262   0.00000  Uiso   1.00
N479   N     0.15772   0.02426   0.61866   0.00000  Uiso   1.00
N480   N     0.17784   0.43687   0.38289   0.00000  Uiso   1.00
N481   N     0.31283   0.42800   0.88401   0.00000  Uiso   1.00
N482   N     0.07869   0.19559   0.11725   0.00000  Uiso   1.00
N483   N     0.08226   0.29891   0.88230   0.00000  Uiso   1.00
N484   N     0.31982   0.06660   0.11763   0.00000  Uiso   1.00
N485   N     0.18654   0.07238   0.88205   0.00000  Uiso   1.00
N486   N     0.42095   0.30420   0.11763   0.00000  Uiso   1.00
N487   N     0.41886   0.19922   0.88219   0.00000  Uiso   1.00
N488   N     0.45030   0.16833   0.61775   0.00000  Uiso   1.00
O489   O     0.25000   0.00000   0.25000   0.00000  Uiso   1.00
O490   O     0.25000   0.46964   0.66317   0.00000  Uiso   1.00
O491   O     0.46964   0.25000   0.33683   0.00000  Uiso   1.00
O492   O     0.03036   0.25000   0.66317   0.00000  Uiso   1.00
O493   O     0.00000   0.21964   0.83683   0.00000  Uiso   1.00
O494   O     0.00000   0.28036   0.16317   0.00000  Uiso   1.00
O495   O     0.28036  -0.00000   0.83683   0.00000  Uiso   1.00
O496   O     0.21964   0.00000   0.16317   0.00000  Uiso   1.00
O497   O     0.00000   0.28036   0.83683   0.00000  Uiso   1.00
O498   O     0.00000   0.21964   0.16317   0.00000  Uiso   1.00
O499   O     0.21964  -0.00000   0.83683   0.00000  Uiso   1.00
O500   O     0.25000  -0.00000   0.75000   0.00000  Uiso   1.00
O501   O     0.28036   0.00000   0.16317   0.00000  Uiso   1.00
O502   O     0.20726   0.07307   0.27282   0.00000  Uiso   1.00
O503   O     0.29275   0.42693   0.72718   0.00000  Uiso   1.00
O504   O     0.42693   0.20725   0.27282   0.00000  Uiso   1.00
O505   O     0.07307   0.29274   0.72718   0.00000  Uiso   1.00
O506   O     0.29275   0.42693   0.27282   0.00000  Uiso   1.00
O507   O     0.20726   0.07307   0.72718   0.00000  Uiso   1.00
O508   O     0.07307   0.29274   0.27282   0.00000  Uiso   1.00
O509   O     0.42693   0.20725   0.72718   0.00000  Uiso   1.00
O510   O     0.20726   0.42693   0.72718   0.00000  Uiso   1.00
O511   O     0.00000   0.25000   0.25000   0.00000  Uiso   1.00
O512   O     0.29275   0.07307   0.27282   0.00000  Uiso   1.00
O513   O     0.42693   0.29274   0.72718   0.00000  Uiso   1.00
O514   O     0.07307   0.20725   0.27282   0.00000  Uiso   1.00
O515   O     0.29275   0.07307   0.72718   0.00000  Uiso   1.00
O516   O     0.20726   0.42693   0.27282   0.00000  Uiso   1.00
O517   O     0.07307   0.20725   0.72718   0.00000  Uiso   1.00
O518   O     0.42693   0.29274   0.27282   0.00000  Uiso   1.00
O519   O     0.45726   0.32307   0.77282   0.00000  Uiso   1.00
O520   O     0.04275   0.17693   0.22718   0.00000  Uiso   1.00
O521   O     0.17693   0.45725   0.77282   0.00000  Uiso   1.00
O522   O     0.00000   0.25000   0.75000   0.00000  Uiso   1.00
O523   O     0.32307   0.04275   0.22718   0.00000  Uiso   1.00
O524   O     0.04275   0.17693   0.77282   0.00000  Uiso   1.00
O525   O     0.45726   0.32307   0.22718   0.00000  Uiso   1.00
O526   O     0.32307   0.04275   0.77282   0.00000  Uiso   1.00
O527   O     0.17693   0.45725   0.22718   0.00000  Uiso   1.00
O528   O     0.45726   0.17693   0.22718   0.00000  Uiso   1.00
O529   O     0.04275   0.32307   0.77282   0.00000  Uiso   1.00
O530   O     0.17693   0.04275   0.22718   0.00000  Uiso   1.00
O531   O     0.32307   0.45725   0.77282   0.00000  Uiso   1.00
O532   O     0.04275   0.32307   0.22718   0.00000  Uiso   1.00
O533   O     0.25000   0.46964   0.33683   0.00000  Uiso   1.00
O534   O     0.45726   0.17693   0.77282   0.00000  Uiso   1.00
O535   O     0.32307   0.45725   0.22718   0.00000  Uiso   1.00
O536   O     0.17693   0.04275   0.77282   0.00000  Uiso   1.00
O537   O     0.10871   0.44391   0.22073   0.00000  Uiso   1.00
O538   O     0.36404   0.08308   0.81682   0.00000  Uiso   1.00
O539   O     0.08336   0.13479   0.18298   0.00000  Uiso   1.00
O540   O     0.41837   0.36553   0.81593   0.00000  Uiso   1.00
O541   O     0.39128   0.05609   0.22077   0.00000  Uiso   1.00
O542   O     0.14065   0.41207   0.81908   0.00000  Uiso   1.00
O543   O     0.41643   0.36485   0.18297   0.00000  Uiso   1.00
O544   O     0.25000   0.03036   0.66317   0.00000  Uiso   1.00
O545   O     0.08010   0.13266   0.81551   0.00000  Uiso   1.00
O546   O     0.13043   0.07794   0.81353   0.00000  Uiso   1.00
O547   O     0.35849   0.41126   0.18070   0.00000  Uiso   1.00
O548   O     0.08490   0.36204   0.81754   0.00000  Uiso   1.00
O549   O     0.44002   0.11110   0.21101   0.00000  Uiso   1.00
O550   O     0.36794   0.42042   0.81441   0.00000  Uiso   1.00
O551   O     0.14005   0.08684   0.18150   0.00000  Uiso   1.00
O552   O     0.41725   0.13579   0.81659   0.00000  Uiso   1.00
O553   O     0.05984   0.38899   0.21128   0.00000  Uiso   1.00
O554   O     0.38553   0.16718   0.68360   0.00000  Uiso   1.00
O555   O     0.03036   0.25000   0.33683   0.00000  Uiso   1.00
O556   O     0.13883   0.31018   0.28926   0.00000  Uiso   1.00
O557   O     0.32591   0.38052   0.68751   0.00000  Uiso   1.00
O558   O     0.16314   0.10995   0.31839   0.00000  Uiso   1.00
O559   O     0.11103   0.33607   0.68199   0.00000  Uiso   1.00
O560   O     0.36088   0.19011   0.28870   0.00000  Uiso   1.00
O561   O     0.17670   0.12530   0.69052   0.00000  Uiso   1.00
O562   O     0.33768   0.39104   0.31869   0.00000  Uiso   1.00
O563   O     0.38529   0.33395   0.31728   0.00000  Uiso   1.00
O564   O     0.11983   0.17214   0.68686   0.00000  Uiso   1.00
O565   O     0.30594   0.14129   0.27907   0.00000  Uiso   1.00
O566   O     0.46964   0.25000   0.66317   0.00000  Uiso   1.00
O567   O     0.16169   0.39121   0.68088   0.00000  Uiso   1.00
O568   O     0.11539   0.16683   0.31684   0.00000  Uiso   1.00
O569   O     0.38582   0.33217   0.68389   0.00000  Uiso   1.00
O570   O     0.19390   0.35895   0.27956   0.00000  Uiso   1.00
O571   O     0.33549   0.11182   0.68193   0.00000  Uiso   1.00
O572   O     0.25000   0.03036   0.33683   0.00000  Uiso   1.00
Zn573  Zn    0.20660   0.00000   0.21760   0.00000  Uiso   1.00
Zn574  Zn    0.04340   0.25000   0.28240   0.00000  Uiso   1.00
Zn575  Zn    0.25000   0.45660   0.71760   0.00000  Uiso   1.00
Zn576  Zn    0.25000   0.04340   0.28240   0.00000  Uiso   1.00
Zn577  Zn    0.04340   0.25000   0.71760   0.00000  Uiso   1.00
Zn578  Zn    0.45660   0.25000   0.28240   0.00000  Uiso   1.00
Zn579  Zn    0.25000   0.04340   0.71760   0.00000  Uiso   1.00
Zn580  Zn    0.25000   0.45660   0.28240   0.00000  Uiso   1.00
Zn581  Zn    0.29340   0.00000   0.78240   0.00000  Uiso   1.00
Zn582  Zn    0.00000   0.20660   0.21760   0.00000  Uiso   1.00
Zn583  Zn    0.00000   0.29340   0.78240   0.00000  Uiso   1.00
Zn584  Zn    0.29340   0.00000   0.21760   0.00000  Uiso   1.00
Zn585  Zn    0.20660   0.00000   0.78240   0.00000  Uiso   1.00
Zn586  Zn    0.00000   0.29340   0.21760   0.00000  Uiso   1.00
Zn587  Zn    0.00000   0.20660   0.78240   0.00000  Uiso   1.00
Zn588  Zn    0.45660   0.25000   0.71760   0.00000  Uiso   1.00
C589   C     0.72520   0.47985   0.04065   0.00000  Uiso   1.00
C590   C     0.51895   0.22300   0.45877   0.00000  Uiso   1.00
C591   C     0.84760   0.40107   0.75034   0.00000  Uiso   1.00
C592   C     0.90172   0.15177   0.24997   0.00000  Uiso   1.00
C593   C     0.59825   0.34818   0.74999   0.00000  Uiso   1.00
C594   C     0.84778   0.40189   0.24989   0.00000  Uiso   1.00
C595   C     0.65295   0.09937   0.75111   0.00000  Uiso   1.00
C596   C     0.59874   0.15266   0.75074   0.00000  Uiso   1.00
C597   C     0.90171   0.34833   0.25006   0.00000  Uiso   1.00
C598   C     0.65197   0.40196   0.75005   0.00000  Uiso   1.00
C599   C     0.84797   0.09801   0.24997   0.00000  Uiso   1.00
C600   C     0.90169   0.34778   0.75016   0.00000  Uiso   1.00
C601   C     0.78211   0.49205   0.54179   0.00000  Uiso   1.00
C602   C     0.59837   0.15177   0.24993   0.00000  Uiso   1.00
C603   C     0.84843   0.09766   0.74985   0.00000  Uiso   1.00
C604   C     0.65199   0.40203   0.25004   0.00000  Uiso   1.00
C605   C     0.74993   0.00083   0.10218   0.00000  Uiso   1.00
C606   C     0.75004   0.00067   0.89768   0.00000  Uiso   1.00
C607   C     0.99987   0.25000   0.10236   0.00000  Uiso   1.00
C608   C     0.50000   0.24997   0.89752   0.00000  Uiso   1.00
C609   C     0.99992   0.25011   0.60249   0.00000  Uiso   1.00
C610   C     0.50001   0.25001   0.39766   0.00000  Uiso   1.00
C611   C     0.75003   0.00000   0.60272   0.00000  Uiso   1.00
C612   C     0.77479   0.02184   0.45883   0.00000  Uiso   1.00
C613   C     0.75000   0.00002   0.39771   0.00000  Uiso   1.00
C614   C     0.59206   0.46398   0.25088   0.00000  Uiso   1.00
C615   C     0.58283   0.00188   0.23564   0.00000  Uiso   1.00
C616   C     0.56598   0.02565   0.26725   0.00000  Uiso   1.00
C617   C     0.83821   0.10029   0.84098   0.00000  Uiso   1.00
C618   C     0.83273   0.07702   0.87735   0.00000  Uiso   1.00
C619   C     0.80276   0.09230   0.90337   0.00000  Uiso   1.00
C620   C     0.55220   0.11195   0.18339   0.00000  Uiso   1.00
C621   C     0.55893   0.07683   0.16050   0.00000  Uiso   1.00
C622   C     0.52373   0.05544   0.15476   0.00000  Uiso   1.00
C623   C     0.51672   0.27856   0.54148   0.00000  Uiso   1.00
C624   C     0.90068   0.34163   0.84190   0.00000  Uiso   1.00
C625   C     0.92433   0.33714   0.87815   0.00000  Uiso   1.00
C626   C     0.90752   0.31028   0.90680   0.00000  Uiso   1.00
C627   C     0.90830   0.03623   0.25083   0.00000  Uiso   1.00
C628   C     0.91741   0.49824   0.23571   0.00000  Uiso   1.00
C629   C     0.93500   0.47482   0.26714   0.00000  Uiso   1.00
C630   C     0.67184   0.39682   0.83699   0.00000  Uiso   1.00
C631   C     0.66064   0.36814   0.86698   0.00000  Uiso   1.00
C632   C     0.69333   0.35512   0.89055   0.00000  Uiso   1.00
C633   C     0.94734   0.38802   0.18316   0.00000  Uiso   1.00
C634   C     0.98116   0.27711   0.45878   0.00000  Uiso   1.00
C635   C     0.93999   0.42313   0.16052   0.00000  Uiso   1.00
C636   C     0.97485   0.44511   0.15486   0.00000  Uiso   1.00
C637   C     0.59236   0.16110   0.84005   0.00000  Uiso   1.00
C638   C     0.61579   0.14577   0.87299   0.00000  Uiso   1.00
C639   C     0.62450   0.17493   0.90319   0.00000  Uiso   1.00
C640   C     0.60303   0.05112   0.81060   0.00000  Uiso   1.00
C641   C     0.60840   0.02336   0.84313   0.00000  Uiso   1.00
C642   C     0.57895   0.49414   0.84211   0.00000  Uiso   1.00
C643   C     0.82742   0.39502   0.16355   0.00000  Uiso   1.00
C644   C     0.83836   0.36273   0.13788   0.00000  Uiso   1.00
C645   C     0.71797   0.00806   0.54180   0.00000  Uiso   1.00
C646   C     0.80592   0.34837   0.11478   0.00000  Uiso   1.00
C647   C     0.55846   0.38959   0.82239   0.00000  Uiso   1.00
C648   C     0.53294   0.37906   0.85562   0.00000  Uiso   1.00
C649   C     0.50335   0.40765   0.86161   0.00000  Uiso   1.00
C650   C     0.93635   0.12172   0.17152   0.00000  Uiso   1.00
C651   C     0.92234   0.09026   0.14633   0.00000  Uiso   1.00
C652   C     0.92591   0.09892   0.10309   0.00000  Uiso   1.00
C653   C     0.89546   0.44729   0.81340   0.00000  Uiso   1.00
C654   C     0.88746   0.47579   0.84460   0.00000  Uiso   1.00
C655   C     0.91612   0.00580   0.84457   0.00000  Uiso   1.00
C656   C     0.72525   0.47823   0.45884   0.00000  Uiso   1.00
C657   C     0.66813   0.10523   0.16152   0.00000  Uiso   1.00
C658   C     0.67640   0.08468   0.12389   0.00000  Uiso   1.00
C659   C     0.70891   0.10108   0.10253   0.00000  Uiso   1.00
C660   C     0.94456   0.10885   0.81963   0.00000  Uiso   1.00
C661   C     0.97186   0.12019   0.85092   0.00000  Uiso   1.00
C662   C     0.50210   0.09206   0.85530   0.00000  Uiso   1.00
C663   C     0.56334   0.37846   0.17173   0.00000  Uiso   1.00
C664   C     0.57681   0.41013   0.14652   0.00000  Uiso   1.00
C665   C     0.57289   0.40157   0.10329   0.00000  Uiso   1.00
C666   C     0.85797   0.19386   0.68089   0.00000  Uiso   1.00
C667   C     0.72497   0.47905   0.08114   0.00000  Uiso   1.00
C668   C     0.86774   0.22033   0.64828   0.00000  Uiso   1.00
C669   C     0.83974   0.25079   0.64518   0.00000  Uiso   1.00
C670   C     0.62808   0.31393   0.32871   0.00000  Uiso   1.00
C671   C     0.65949   0.32803   0.35395   0.00000  Uiso   1.00
C672   C     0.65081   0.32433   0.39717   0.00000  Uiso   1.00
C673   C     0.80859   0.34768   0.67578   0.00000  Uiso   1.00
C674   C     0.79136   0.32478   0.70868   0.00000  Uiso   1.00
C675   C     0.76074   0.34460   0.72997   0.00000  Uiso   1.00
C676   C     0.64392   0.08262   0.33862   0.00000  Uiso   1.00
C677   C     0.66431   0.07392   0.37623   0.00000  Uiso   1.00
C678   C     0.77275   0.47659   0.91861   0.00000  Uiso   1.00
C679   C     0.64621   0.04286   0.39841   0.00000  Uiso   1.00
C680   C     0.63847   0.31000   0.67482   0.00000  Uiso   1.00
C681   C     0.62903   0.28958   0.63745   0.00000  Uiso   1.00
C682   C     0.65683   0.25996   0.62862   0.00000  Uiso   1.00
C683   C     0.87146   0.18667   0.32823   0.00000  Uiso   1.00
C684   C     0.83985   0.17305   0.35348   0.00000  Uiso   1.00
C685   C     0.84857   0.17673   0.39670   0.00000  Uiso   1.00
C686   C     0.70771   0.14627   0.70081   0.00000  Uiso   1.00
C687   C     0.70447   0.18517   0.68535   0.00000  Uiso   1.00
C688   C     0.74041   0.20576   0.68912   0.00000  Uiso   1.00
C689   C     0.52703   0.23083   0.08172   0.00000  Uiso   1.00
C690   C     0.85722   0.41862   0.33819   0.00000  Uiso   1.00
C691   C     0.83728   0.42802   0.37589   0.00000  Uiso   1.00
C692   C     0.85585   0.45924   0.39738   0.00000  Uiso   1.00
C693   C     0.86241   0.30283   0.31743   0.00000  Uiso   1.00
C694   C     0.82728   0.30992   0.34022   0.00000  Uiso   1.00
C695   C     0.80570   0.27489   0.34625   0.00000  Uiso   1.00
C696   C     0.59725   0.15509   0.65906   0.00000  Uiso   1.00
C697   C     0.59335   0.18025   0.62393   0.00000  Uiso   1.00
C698   C     0.56679   0.16485   0.59404   0.00000  Uiso   1.00
C699   C     0.78589   0.15770   0.24876   0.00000  Uiso   1.00
C700   C     0.77273   0.47748   0.95910   0.00000  Uiso   1.00
C701   C     0.52821   0.26762   0.91806   0.00000  Uiso   1.00
C702   C     0.74792   0.16702   0.26388   0.00000  Uiso   1.00
C703   C     0.72414   0.18350   0.23207   0.00000  Uiso   1.00
C704   C     0.64571   0.42207   0.66307   0.00000  Uiso   1.00
C705   C     0.61627   0.41043   0.63405   0.00000  Uiso   1.00
C706   C     0.60348   0.44243   0.60935   0.00000  Uiso   1.00
C707   C     0.63826   0.19795   0.31638   0.00000  Uiso   1.00
C708   C     0.67335   0.19128   0.33937   0.00000  Uiso   1.00
C709   C     0.69487   0.22643   0.34486   0.00000  Uiso   1.00
C710   C     0.90854   0.35250   0.65893   0.00000  Uiso   1.00
C711   C     0.91645   0.32987   0.62261   0.00000  Uiso   1.00
C712   C     0.77470   0.02341   0.08185   0.00000  Uiso   1.00
C713   C     0.94185   0.34986   0.59476   0.00000  Uiso   1.00
C714   C     0.71352   0.34076   0.25010   0.00000  Uiso   1.00
C715   C     0.75139   0.33150   0.26553   0.00000  Uiso   1.00
C716   C     0.77424   0.31184   0.23500   0.00000  Uiso   1.00
C717   C     0.85031   0.08167   0.66171   0.00000  Uiso   1.00
C718   C     0.87821   0.09442   0.63153   0.00000  Uiso   1.00
C719   C     0.88984   0.06329   0.60494   0.00000  Uiso   1.00
C720   C     0.69971   0.45472   0.10021   0.00000  Uiso   1.00
C721   C     0.79505   0.44966   0.89937   0.00000  Uiso   1.00
C722   C     0.55571   0.21125   0.10146   0.00000  Uiso   1.00
C723   C     0.72749   0.02542   0.91797   0.00000  Uiso   1.00
C724   C     0.55820   0.28504   0.89819   0.00000  Uiso   1.00
C725   C     0.79977   0.04739   0.10172   0.00000  Uiso   1.00
C726   C     0.70472   0.05147   0.89800   0.00000  Uiso   1.00
C727   C     0.94396   0.28866   0.10174   0.00000  Uiso   1.00
C728   C     0.94243   0.21387   0.89813   0.00000  Uiso   1.00
C729   C     0.96462   0.19209   0.60183   0.00000  Uiso   1.00
C730   C     0.53906   0.19441   0.39842   0.00000  Uiso   1.00
C731   C     0.81569   0.48307   0.60245   0.00000  Uiso   1.00
C732   C     0.80107   0.04502   0.39863   0.00000  Uiso   1.00
C733   C     0.53396   0.30887   0.60190   0.00000  Uiso   1.00
C734   C     0.97267   0.26923   0.08186   0.00000  Uiso   1.00
C735   C     0.96103   0.30566   0.39845   0.00000  Uiso   1.00
C736   C     0.68443   0.01720   0.60247   0.00000  Uiso   1.00
C737   C     0.69892   0.45506   0.39865   0.00000  Uiso   1.00
C738   C     0.97185   0.23221   0.91803   0.00000  Uiso   1.00
C739   C     0.98253   0.22176   0.58196   0.00000  Uiso   1.00
C740   C     0.51939   0.22298   0.41823   0.00000  Uiso   1.00
C741   C     0.78223   0.49167   0.58232   0.00000  Uiso   1.00
C742   C     0.77476   0.02228   0.41832   0.00000  Uiso   1.00
C743   C     0.51708   0.27862   0.58200   0.00000  Uiso   1.00
C744   C     0.52701   0.23138   0.04119   0.00000  Uiso   1.00
C745   C     0.98067   0.27708   0.41824   0.00000  Uiso   1.00
C746   C     0.71784   0.00842   0.58233   0.00000  Uiso   1.00
C747   C     0.72526   0.47778   0.41833   0.00000  Uiso   1.00
C748   C     0.74992   0.00199   0.02098   0.00000  Uiso   1.00
C749   C     0.75033   0.00196   0.97880   0.00000  Uiso   1.00
C750   C     0.99983   0.25017   0.02110   0.00000  Uiso   1.00
C751   C     0.99982   0.25022   0.97872   0.00000  Uiso   1.00
C752   C     0.50004   0.25007   0.52130   0.00000  Uiso   1.00
C753   C     0.50006   0.25006   0.47893   0.00000  Uiso   1.00
C754   C     0.75004   0.00004   0.52155   0.00000  Uiso   1.00
C755   C     0.52808   0.26733   0.95859   0.00000  Uiso   1.00
C756   C     0.75003   0.00004   0.47907   0.00000  Uiso   1.00
C757   C     0.75000   0.00001   0.35514   0.00000  Uiso   1.00
C758   C     0.75002  -0.00000   0.64502   0.00000  Uiso   1.00
C759   C     0.50000   0.25000   0.35513   0.00000  Uiso   1.00
C760   C     0.99999   0.25004   0.64493   0.00000  Uiso   1.00
C761   C     0.50001   0.25000   0.85507   0.00000  Uiso   1.00
C762   C     0.99996   0.25000   0.14489   0.00000  Uiso   1.00
C763   C     0.75000   0.00009   0.85514   0.00000  Uiso   1.00
C764   C     0.74999   0.00015   0.14481   0.00000  Uiso   1.00
C765   C     0.68000   0.06998   0.25000   0.00000  Uiso   1.00
C766   C     0.77449   0.02374   0.04134   0.00000  Uiso   1.00
C767   C     0.81995   0.42974   0.75015   0.00000  Uiso   1.00
C768   C     0.92988   0.17990   0.24999   0.00000  Uiso   1.00
C769   C     0.57008   0.32009   0.74997   0.00000  Uiso   1.00
C770   C     0.81998   0.43001   0.24999   0.00000  Uiso   1.00
C771   C     0.68020   0.07038   0.75034   0.00000  Uiso   1.00
C772   C     0.57009   0.32012   0.25004   0.00000  Uiso   1.00
C773   C     0.92988   0.17996   0.75005   0.00000  Uiso   1.00
C774   C     0.67999   0.42998   0.75002   0.00000  Uiso   1.00
C775   C     0.82001   0.07001   0.24999   0.00000  Uiso   1.00
C776   C     0.92997   0.32002   0.74998   0.00000  Uiso   1.00
C777   C     0.72783   0.02584   0.95847   0.00000  Uiso   1.00
C778   C     0.57014   0.17990   0.24998   0.00000  Uiso   1.00
C779   C     0.82010   0.06994   0.74997   0.00000  Uiso   1.00
C780   C     0.68000   0.42999   0.24999   0.00000  Uiso   1.00
C781   C     0.57012   0.18007   0.75010   0.00000  Uiso   1.00
C782   C     0.92990   0.32015   0.25005   0.00000  Uiso   1.00
C783   C     0.61734   0.40968   0.23466   0.00000  Uiso   1.00
C784   C     0.86916   0.10387   0.78371   0.00000  Uiso   1.00
C785   C     0.60358   0.12972   0.21659   0.00000  Uiso   1.00
C786   C     0.89683   0.36982   0.78322   0.00000  Uiso   1.00
C787   C     0.88264   0.09034   0.23465   0.00000  Uiso   1.00
C788   C     0.97265   0.26885   0.04131   0.00000  Uiso   1.00
C789   C     0.63301   0.39397   0.78465   0.00000  Uiso   1.00
C790   C     0.89619   0.37003   0.21655   0.00000  Uiso   1.00
C791   C     0.60257   0.12959   0.78327   0.00000  Uiso   1.00
C792   C     0.62778   0.10127   0.78207   0.00000  Uiso   1.00
C793   C     0.86684   0.39401   0.21541   0.00000  Uiso   1.00
C794   C     0.60445   0.36891   0.78388   0.00000  Uiso   1.00
C795   C     0.90794   0.11826   0.23080   0.00000  Uiso   1.00
C796   C     0.87159   0.39805   0.78222   0.00000  Uiso   1.00
C797   C     0.63251   0.10523   0.21568   0.00000  Uiso   1.00
C798   C     0.89705   0.12967   0.78317   0.00000  Uiso   1.00
C799   C     0.97172   0.23287   0.95856   0.00000  Uiso   1.00
C800   C     0.59200   0.38179   0.23089   0.00000  Uiso   1.00
C801   C     0.87986   0.14668   0.71681   0.00000  Uiso   1.00
C802   C     0.63169   0.34218   0.26938   0.00000  Uiso   1.00
C803   C     0.84993   0.37660   0.71863   0.00000  Uiso   1.00
C804   C     0.64491   0.11766   0.28415   0.00000  Uiso   1.00
C805   C     0.61891   0.35451   0.71608   0.00000  Uiso   1.00
C806   C     0.86815   0.15797   0.26910   0.00000  Uiso   1.00
C807   C     0.65176   0.12539   0.72080   0.00000  Uiso   1.00
C808   C     0.85546   0.38279   0.28433   0.00000  Uiso   1.00
C809   C     0.87990   0.35382   0.28351   0.00000  Uiso   1.00
C810   C     0.98314   0.22170   0.54144   0.00000  Uiso   1.00
C811   C     0.62284   0.14968   0.71900   0.00000  Uiso   1.00
C812   C     0.84025   0.13265   0.26526   0.00000  Uiso   1.00
C813   C     0.64390   0.38315   0.71539   0.00000  Uiso   1.00
C814   C     0.62045   0.14660   0.28325   0.00000  Uiso   1.00
C815   C     0.87930   0.35221   0.71722   0.00000  Uiso   1.00
C816   C     0.65964   0.36746   0.26551   0.00000  Uiso   1.00
C817   C     0.85489   0.11811   0.71587   0.00000  Uiso   1.00
C818   C     0.59820   0.34830   0.25011   0.00000  Uiso   1.00
C819   C     0.90179   0.15181   0.75006   0.00000  Uiso   1.00
C820   C     0.65210   0.09800   0.24994   0.00000  Uiso   1.00
H821   H     0.70639   0.46298   0.02431   0.00000  Uiso   1.00
H822   H     0.53353   0.20214   0.47475   0.00000  Uiso   1.00
H823   H     0.95493   0.10326   0.09523   0.00000  Uiso   1.00
H824   H     0.89636   0.46116   0.78454   0.00000  Uiso   1.00
H825   H     0.92253   0.43497   0.81946   0.00000  Uiso   1.00
H826   H     0.86028   0.48808   0.83916   0.00000  Uiso   1.00
H827   H     0.88701   0.46256   0.87367   0.00000  Uiso   1.00
H828   H     0.94342   0.49434   0.85112   0.00000  Uiso   1.00
H829   H     0.90927   0.02634   0.86710   0.00000  Uiso   1.00
H830   H     0.91686   0.01939   0.81573   0.00000  Uiso   1.00
H831   H     0.69338   0.10622   0.17947   0.00000  Uiso   1.00
H832   H     0.65960   0.13349   0.15408   0.00000  Uiso   1.00
H833   H     0.80684   0.48571   0.52592   0.00000  Uiso   1.00
H834   H     0.68243   0.05578   0.13072   0.00000  Uiso   1.00
H835   H     0.65211   0.08550   0.10462   0.00000  Uiso   1.00
H836   H     0.70338   0.12991   0.09493   0.00000  Uiso   1.00
H837   H     0.71398   0.08559   0.07532   0.00000  Uiso   1.00
H838   H     0.73369   0.09959   0.12098   0.00000  Uiso   1.00
H839   H     0.95951   0.10529   0.79161   0.00000  Uiso   1.00
H840   H     0.93230   0.08247   0.82825   0.00000  Uiso   1.00
H841   H     0.98417   0.14676   0.84294   0.00000  Uiso   1.00
H842   H     0.95756   0.12338   0.87921   0.00000  Uiso   1.00
H843   H     0.99063   0.06555   0.86478   0.00000  Uiso   1.00
H844   H     0.79389   0.03875   0.47474   0.00000  Uiso   1.00
H845   H     0.52204   0.10149   0.87740   0.00000  Uiso   1.00
H846   H     0.51648   0.08839   0.82718   0.00000  Uiso   1.00
H847   H     0.53588   0.37030   0.16145   0.00000  Uiso   1.00
H848   H     0.58123   0.35421   0.16747   0.00000  Uiso   1.00
H849   H     0.56103   0.43510   0.15343   0.00000  Uiso   1.00
H850   H     0.60601   0.41537   0.15267   0.00000  Uiso   1.00
H851   H     0.58890   0.37694   0.09570   0.00000  Uiso   1.00
H852   H     0.58323   0.42482   0.08588   0.00000  Uiso   1.00
H853   H     0.54384   0.39698   0.09574   0.00000  Uiso   1.00
H854   H     0.85540   0.20950   0.70859   0.00000  Uiso   1.00
H855   H     0.52957   0.30054   0.52553   0.00000  Uiso   1.00
H856   H     0.83131   0.18103   0.67396   0.00000  Uiso   1.00
H857   H     0.89492   0.23246   0.65412   0.00000  Uiso   1.00
H858   H     0.86906   0.20542   0.62018   0.00000  Uiso   1.00
H859   H     0.81233   0.23945   0.63888   0.00000  Uiso   1.00
H860   H     0.84749   0.26956   0.62130   0.00000  Uiso   1.00
H861   H     0.83876   0.26633   0.67285   0.00000  Uiso   1.00
H862   H     0.62021   0.28649   0.33923   0.00000  Uiso   1.00
H863   H     0.60356   0.33152   0.33263   0.00000  Uiso   1.00
H864   H     0.68473   0.31257   0.34730   0.00000  Uiso   1.00
H865   H     0.66436   0.35723   0.34756   0.00000  Uiso   1.00
H866   H     0.96660   0.29798   0.47477   0.00000  Uiso   1.00
H867   H     0.62586   0.33999   0.40449   0.00000  Uiso   1.00
H868   H     0.67384   0.33518   0.41460   0.00000  Uiso   1.00
H869   H     0.64665   0.29531   0.40496   0.00000  Uiso   1.00
H870   H     0.82704   0.33075   0.65795   0.00000  Uiso   1.00
H871   H     0.78642   0.35526   0.65537   0.00000  Uiso   1.00
H872   H     0.77969   0.29982   0.69532   0.00000  Uiso   1.00
H873   H     0.81228   0.31568   0.72987   0.00000  Uiso   1.00
H874   H     0.77206   0.36544   0.74982   0.00000  Uiso   1.00
H875   H     0.74521   0.32484   0.74791   0.00000  Uiso   1.00
H876   H     0.74168   0.35748   0.70902   0.00000  Uiso   1.00
H877   H     0.69326   0.01444   0.52594   0.00000  Uiso   1.00
H878   H     0.64209   0.05733   0.32085   0.00000  Uiso   1.00
H879   H     0.61594   0.09209   0.34611   0.00000  Uiso   1.00
H880   H     0.69278   0.06612   0.36925   0.00000  Uiso   1.00
H881   H     0.66502   0.09854   0.39500   0.00000  Uiso   1.00
H882   H     0.61789   0.05032   0.40644   0.00000  Uiso   1.00
H883   H     0.66179   0.03720   0.42542   0.00000  Uiso   1.00
H884   H     0.64579   0.01782   0.38034   0.00000  Uiso   1.00
H885   H     0.64015   0.29014   0.69925   0.00000  Uiso   1.00
H886   H     0.66553   0.32315   0.67097   0.00000  Uiso   1.00
H887   H     0.60171   0.27688   0.64046   0.00000  Uiso   1.00
H888   H     0.70616   0.46133   0.47476   0.00000  Uiso   1.00
H889   H     0.62818   0.30909   0.61277   0.00000  Uiso   1.00
H890   H     0.68466   0.27166   0.62663   0.00000  Uiso   1.00
H891   H     0.65006   0.24679   0.60048   0.00000  Uiso   1.00
H892   H     0.65612   0.23905   0.65183   0.00000  Uiso   1.00
H893   H     0.87949   0.21415   0.33851   0.00000  Uiso   1.00
H894   H     0.89583   0.16893   0.33245   0.00000  Uiso   1.00
H895   H     0.81483   0.18885   0.34679   0.00000  Uiso   1.00
H896   H     0.83459   0.14391   0.34717   0.00000  Uiso   1.00
H897   H     0.87323   0.16064   0.40407   0.00000  Uiso   1.00
H898   H     0.82534   0.16635   0.41415   0.00000  Uiso   1.00
H899   H     0.61090   0.46680   0.27615   0.00000  Uiso   1.00
H900   H     0.85326   0.20569   0.40443   0.00000  Uiso   1.00
H901   H     0.73176   0.13324   0.68698   0.00000  Uiso   1.00
H902   H     0.71333   0.14677   0.73275   0.00000  Uiso   1.00
H903   H     0.69633   0.18443   0.65422   0.00000  Uiso   1.00
H904   H     0.68335   0.19997   0.70218   0.00000  Uiso   1.00
H905   H     0.74914   0.20684   0.72003   0.00000  Uiso   1.00
H906   H     0.73690   0.23402   0.67833   0.00000  Uiso   1.00
H907   H     0.76190   0.19228   0.67155   0.00000  Uiso   1.00
H908   H     0.85894   0.44361   0.31995   0.00000  Uiso   1.00
H909   H     0.88524   0.40916   0.34549   0.00000  Uiso   1.00
H910   H     0.56641   0.45053   0.26058   0.00000  Uiso   1.00
H911   H     0.80880   0.43596   0.36912   0.00000  Uiso   1.00
H912   H     0.83655   0.40368   0.39505   0.00000  Uiso   1.00
H913   H     0.88419   0.45165   0.40519   0.00000  Uiso   1.00
H914   H     0.84059   0.46542   0.42448   0.00000  Uiso   1.00
H915   H     0.85630   0.48402   0.37891   0.00000  Uiso   1.00
H916   H     0.87762   0.28075   0.33228   0.00000  Uiso   1.00
H917   H     0.85580   0.29245   0.28772   0.00000  Uiso   1.00
H918   H     0.83397   0.32195   0.36902   0.00000  Uiso   1.00
H919   H     0.80992   0.32929   0.32397   0.00000  Uiso   1.00
H920   H     0.79937   0.26196   0.31782   0.00000  Uiso   1.00
H921   H     0.60802   0.01517   0.22478   0.00000  Uiso   1.00
H922   H     0.77971   0.28112   0.36134   0.00000  Uiso   1.00
H923   H     0.82152   0.25562   0.36443   0.00000  Uiso   1.00
H924   H     0.56967   0.14982   0.67141   0.00000  Uiso   1.00
H925   H     0.60944   0.12890   0.64920   0.00000  Uiso   1.00
H926   H     0.58340   0.20727   0.63371   0.00000  Uiso   1.00
H927   H     0.62041   0.18397   0.61003   0.00000  Uiso   1.00
H928   H     0.57678   0.13831   0.58289   0.00000  Uiso   1.00
H929   H     0.56422   0.18406   0.56927   0.00000  Uiso   1.00
H930   H     0.53949   0.16106   0.60733   0.00000  Uiso   1.00
H931   H     0.78313   0.13870   0.22363   0.00000  Uiso   1.00
H932   H     0.78981   0.45886   0.97541   0.00000  Uiso   1.00
H933   H     0.56336   0.49940   0.21102   0.00000  Uiso   1.00
H934   H     0.79936   0.18327   0.23889   0.00000  Uiso   1.00
H935   H     0.73464   0.14194   0.27499   0.00000  Uiso   1.00
H936   H     0.75035   0.18671   0.28829   0.00000  Uiso   1.00
H937   H     0.73623   0.20936   0.22147   0.00000  Uiso   1.00
H938   H     0.69662   0.18925   0.24390   0.00000  Uiso   1.00
H939   H     0.72132   0.16425   0.20736   0.00000  Uiso   1.00
H940   H     0.66763   0.43651   0.64700   0.00000  Uiso   1.00
H941   H     0.63430   0.44209   0.68423   0.00000  Uiso   1.00
H942   H     0.62719   0.38886   0.61461   0.00000  Uiso   1.00
H943   H     0.59253   0.39926   0.65011   0.00000  Uiso   1.00
H944   H     0.54000   0.01356   0.27756   0.00000  Uiso   1.00
H945   H     0.59262   0.46444   0.62821   0.00000  Uiso   1.00
H946   H     0.58156   0.43328   0.58938   0.00000  Uiso   1.00
H947   H     0.62639   0.45321   0.59167   0.00000  Uiso   1.00
H948   H     0.62303   0.22030   0.33078   0.00000  Uiso   1.00
H949   H     0.64492   0.20781   0.28649   0.00000  Uiso   1.00
H950   H     0.66662   0.17968   0.36835   0.00000  Uiso   1.00
H951   H     0.69077   0.17168   0.32350   0.00000  Uiso   1.00
H952   H     0.70117   0.23898   0.31624   0.00000  Uiso   1.00
H953   H     0.72088   0.22045   0.36003   0.00000  Uiso   1.00
H954   H     0.67902   0.24591   0.36278   0.00000  Uiso   1.00
H955   H     0.56033   0.05312   0.25535   0.00000  Uiso   1.00
H956   H     0.93485   0.35904   0.67353   0.00000  Uiso   1.00
H957   H     0.89487   0.37822   0.64993   0.00000  Uiso   1.00
H958   H     0.92925   0.30373   0.63126   0.00000  Uiso   1.00
H959   H     0.89048   0.32372   0.60738   0.00000  Uiso   1.00
H960   H     0.92898   0.37548   0.58457   0.00000  Uiso   1.00
H961   H     0.94758   0.33237   0.56914   0.00000  Uiso   1.00
H962   H     0.96800   0.35635   0.60941   0.00000  Uiso   1.00
H963   H     0.71650   0.35849   0.22397   0.00000  Uiso   1.00
H964   H     0.69958   0.31499   0.24167   0.00000  Uiso   1.00
H965   H     0.76555   0.35696   0.27420   0.00000  Uiso   1.00
H966   H     0.58500   0.02850   0.29218   0.00000  Uiso   1.00
H967   H     0.74870   0.31385   0.29162   0.00000  Uiso   1.00
H968   H     0.76136   0.28553   0.22707   0.00000  Uiso   1.00
H969   H     0.80180   0.30638   0.24686   0.00000  Uiso   1.00
H970   H     0.77711   0.32890   0.20855   0.00000  Uiso   1.00
H971   H     0.82750   0.06797   0.64632   0.00000  Uiso   1.00
H972   H     0.86274   0.06075   0.68113   0.00000  Uiso   1.00
H973   H     0.86623   0.11653   0.61358   0.00000  Uiso   1.00
H974   H     0.90266   0.10522   0.64663   0.00000  Uiso   1.00
H975   H     0.90197   0.04087   0.62229   0.00000  Uiso   1.00
H976   H     0.91050   0.07325   0.58390   0.00000  Uiso   1.00
H977   H     0.81161   0.10305   0.82565   0.00000  Uiso   1.00
H978   H     0.86607   0.05275   0.58842   0.00000  Uiso   1.00
H979   H     0.84796   0.12773   0.85004   0.00000  Uiso   1.00
H980   H     0.82534   0.04887   0.86865   0.00000  Uiso   1.00
H981   H     0.85863   0.07584   0.89403   0.00000  Uiso   1.00
H982   H     0.80991   0.12020   0.91314   0.00000  Uiso   1.00
H983   H     0.79949   0.07466   0.92935   0.00000  Uiso   1.00
H984   H     0.54795   0.21695   0.02515   0.00000  Uiso   1.00
H985   H     0.77648   0.09306   0.88741   0.00000  Uiso   1.00
H986   H     0.52989   0.12715   0.16888   0.00000  Uiso   1.00
H987   H     0.54223   0.10537   0.21326   0.00000  Uiso   1.00
H988   H     0.57079   0.08346   0.13161   0.00000  Uiso   1.00
H989   H     0.57836   0.05939   0.17657   0.00000  Uiso   1.00
H990   H     0.51090   0.04927   0.18328   0.00000  Uiso   1.00
H991   H     0.52975   0.02939   0.13972   0.00000  Uiso   1.00
H992   H     0.50444   0.07128   0.13662   0.00000  Uiso   1.00
H993   H     0.89674   0.31442   0.82818   0.00000  Uiso   1.00
H994   H     0.87373   0.35277   0.85088   0.00000  Uiso   1.00
H995   H     0.54984   0.28056   0.97457   0.00000  Uiso   1.00
H996   H     0.95175   0.32724   0.86954   0.00000  Uiso   1.00
H997   H     0.92753   0.36395   0.89270   0.00000  Uiso   1.00
H998   H     0.88071   0.32043   0.91707   0.00000  Uiso   1.00
H999   H     0.92580   0.30702   0.93229   0.00000  Uiso   1.00
H1000  H     0.90381   0.28333   0.89278   0.00000  Uiso   1.00
H1001  H     0.88976   0.03355   0.27637   0.00000  Uiso   1.00
H1002  H     0.93404   0.04978   0.26009   0.00000  Uiso   1.00
H1003  H     0.89206   0.48475   0.22557   0.00000  Uiso   1.00
H1004  H     0.93636   0.00061   0.21064   0.00000  Uiso   1.00
H1005  H     0.96118   0.48707   0.27666   0.00000  Uiso   1.00
H1006  H     0.79336   0.04098   0.02553   0.00000  Uiso   1.00
H1007  H     0.94046   0.44724   0.25538   0.00000  Uiso   1.00
H1008  H     0.91655   0.47219   0.29257   0.00000  Uiso   1.00
H1009  H     0.68631   0.41921   0.85226   0.00000  Uiso   1.00
H1010  H     0.69177   0.38494   0.81600   0.00000  Uiso   1.00
H1011  H     0.64000   0.37984   0.88706   0.00000  Uiso   1.00
H1012  H     0.64836   0.34442   0.85186   0.00000  Uiso   1.00
H1013  H     0.71411   0.34290   0.87103   0.00000  Uiso   1.00
H1014  H     0.68439   0.33420   0.91179   0.00000  Uiso   1.00
H1015  H     0.70568   0.37818   0.90674   0.00000  Uiso   1.00
H1016  H     0.96968   0.37312   0.16835   0.00000  Uiso   1.00
H1017  H     0.71067   0.04478   0.97428   0.00000  Uiso   1.00
H1018  H     0.95748   0.39459   0.21297   0.00000  Uiso   1.00
H1019  H     0.92823   0.41643   0.13160   0.00000  Uiso   1.00
H1020  H     0.92027   0.44016   0.17673   0.00000  Uiso   1.00
H1021  H     0.98757   0.45140   0.18341   0.00000  Uiso   1.00
H1022  H     0.96840   0.47110   0.13992   0.00000  Uiso   1.00
H1023  H     0.99441   0.42963   0.13666   0.00000  Uiso   1.00
H1024  H     0.56786   0.17412   0.85295   0.00000  Uiso   1.00
H1025  H     0.60748   0.18306   0.82446   0.00000  Uiso   1.00
H1026  H     0.60113   0.12298   0.88738   0.00000  Uiso   1.00
H1027  H     0.64172   0.13519   0.86082   0.00000  Uiso   1.00
H1028  H     0.95167   0.28332   0.02538   0.00000  Uiso   1.00
H1029  H     0.63953   0.19780   0.88947   0.00000  Uiso   1.00
H1030  H     0.64175   0.16307   0.92648   0.00000  Uiso   1.00
H1031  H     0.59903   0.18544   0.91651   0.00000  Uiso   1.00
H1032  H     0.60454   0.03670   0.78208   0.00000  Uiso   1.00
H1033  H     0.57558   0.06347   0.81377   0.00000  Uiso   1.00
H1034  H     0.63552   0.01026   0.83991   0.00000  Uiso   1.00
H1035  H     0.60751   0.03745   0.87173   0.00000  Uiso   1.00
H1036  H     0.55166   0.00652   0.84647   0.00000  Uiso   1.00
H1037  H     0.58388   0.47417   0.86574   0.00000  Uiso   1.00
H1038  H     0.57947   0.47971   0.81373   0.00000  Uiso   1.00
H1039  H     0.94999   0.21957   0.97451   0.00000  Uiso   1.00
H1040  H     0.81426   0.41596   0.14497   0.00000  Uiso   1.00
H1041  H     0.80650   0.38644   0.18520   0.00000  Uiso   1.00
H1042  H     0.86008   0.37133   0.11732   0.00000  Uiso   1.00
H1043  H     0.84913   0.34042   0.15637   0.00000  Uiso   1.00
H1044  H     0.78397   0.33931   0.13478   0.00000  Uiso   1.00
H1045  H     0.81463   0.32483   0.09680   0.00000  Uiso   1.00
H1046  H     0.79515   0.36984   0.09519   0.00000  Uiso   1.00
H1047  H     0.54193   0.39328   0.79544   0.00000  Uiso   1.00
H1048  H     0.57179   0.41576   0.82991   0.00000  Uiso   1.00
H1049  H     0.51988   0.35251   0.84899   0.00000  Uiso   1.00
H1050  H     0.97014   0.19981   0.52545   0.00000  Uiso   1.00
H1051  H     0.54891   0.37615   0.88291   0.00000  Uiso   1.00
H1052  H     0.51573   0.43456   0.86808   0.00000  Uiso   1.00
H1053  H     0.98583   0.39967   0.88648   0.00000  Uiso   1.00
H1054  H     0.98614   0.40988   0.83516   0.00000  Uiso   1.00
H1055  H     0.96383   0.12960   0.16103   0.00000  Uiso   1.00
H1056  H     0.91871   0.14618   0.16750   0.00000  Uiso   1.00
H1057  H     0.93793   0.06512   0.15296   0.00000  Uiso   1.00
H1058  H     0.89315   0.08528   0.15279   0.00000  Uiso   1.00
H1059  H     0.91007   0.12373   0.09580   0.00000  Uiso   1.00
H1060  H     0.91517   0.07583   0.08571   0.00000  Uiso   1.00
N1061  N     0.67949   0.43524   0.11547   0.00000  Uiso   1.00
N1062  N     0.55481   0.17152   0.38257   0.00000  Uiso   1.00
N1063  N     0.84245   0.47618   0.61862   0.00000  Uiso   1.00
N1064  N     0.82212   0.06323   0.38286   0.00000  Uiso   1.00
N1065  N     0.54737   0.33317   0.61780   0.00000  Uiso   1.00
N1066  N     0.94530   0.32856   0.38262   0.00000  Uiso   1.00
N1067  N     0.65772   0.02426   0.61866   0.00000  Uiso   1.00
N1068  N     0.67784   0.43687   0.38289   0.00000  Uiso   1.00
N1069  N     0.81283   0.42800   0.88401   0.00000  Uiso   1.00
N1070  N     0.57869   0.19559   0.11725   0.00000  Uiso   1.00
N1071  N     0.58226   0.29891   0.88230   0.00000  Uiso   1.00
N1072  N     0.81982   0.06660   0.11763   0.00000  Uiso   1.00
N1073  N     0.68654   0.07238   0.88205   0.00000  Uiso   1.00
N1074  N     0.92095   0.30420   0.11763   0.00000  Uiso   1.00
N1075  N     0.91886   0.19922   0.88219   0.00000  Uiso   1.00
N1076  N     0.95030   0.16833   0.61775   0.00000  Uiso   1.00
O1077  O     0.75000   0.00000   0.25000   0.00000  Uiso   1.00
O1078  O     0.75000   0.46964   0.66317   0.00000  Uiso   1.00
O1079  O     0.96964   0.25000   0.33683   0.00000  Uiso   1.00
O1080  O     0.53036   0.25000   0.66317   0.00000  Uiso   1.00
O1081  O     0.50000   0.21964   0.83683   0.00000  Uiso   1.00
O1082  O     0.50000   0.28036   0.16317   0.00000  Uiso   1.00
O1083  O     0.78036  -0.00000   0.83683   0.00000  Uiso   1.00
O1084  O     0.71964   0.00000   0.16317   0.00000  Uiso   1.00
O1085  O     0.50000   0.28036   0.83683   0.00000  Uiso   1.00
O1086  O     0.50000   0.21964   0.16317   0.00000  Uiso   1.00
O1087  O     0.71964  -0.00000   0.83683   0.00000  Uiso   1.00
O1088  O     0.75000  -0.00000   0.75000   0.00000  Uiso   1.00
O1089  O     0.78036   0.00000   0.16317   0.00000  Uiso   1.00
O1090  O     0.70726   0.07307   0.27282   0.00000  Uiso   1.00
O1091  O     0.79275   0.42693   0.72718   0.00000  Uiso   1.00
O1092  O     0.92693   0.20725   0.27282   0.00000  Uiso   1.00
O1093  O     0.57307   0.29274   0.72718   0.00000  Uiso   1.00
O1094  O     0.79275   0.42693   0.27282   0.00000  Uiso   1.00
O1095  O     0.70726   0.07307   0.72718   0.00000  Uiso   1.00
O1096  O     0.57307   0.29274   0.27282   0.00000  Uiso   1.00
O1097  O     0.92693   0.20725   0.72718   0.00000  Uiso   1.00
O1098  O     0.70726   0.42693   0.72718   0.00000  Uiso   1.00
O1099  O     0.50000   0.25000   0.25000   0.00000  Uiso   1.00
O1100  O     0.79275   0.07307   0.27282   0.00000  Uiso   1.00
O1101  O     0.92693   0.29274   0.72718   0.00000  Uiso   1.00
O1102  O     0.57307   0.20725   0.27282   0.00000  Uiso   1.00
O1103  O     0.79275   0.07307   0.72718   0.00000  Uiso   1.00
O1104  O     0.70726   0.42693   0.27282   0.00000  Uiso   1.00
O1105  O     0.57307   0.20725   0.72718   0.00000  Uiso   1.00
O1106  O     0.92693   0.29274   0.27282   0.00000  Uiso   1.00
O1107  O     0.95726   0.32307   0.77282   0.00000  Uiso   1.00
O1108  O     0.54275   0.17693   0.22718   0.00000  Uiso   1.00
O1109  O     0.67693   0.45725   0.77282   0.00000  Uiso   1.00
O1110  O     0.50000   0.25000   0.75000   0.00000  Uiso   1.00
O1111  O     0.82307   0.04275   0.22718   0.00000  Uiso   1.00
O1112  O     0.54275   0.17693   0.77282   0.00000  Uiso   1.00
O1113  O     0.95726   0.32307   0.22718   0.00000  Uiso   1.00
O1114  O     0.82307   0.04275   0.77282   0.00000  Uiso   1.00
O1115  O     0.67693   0.45725   0.22718   0.00000  Uiso   1.00
O1116  O     0.95726   0.17693   0.22718   0.00000  Uiso   1.00
O1117  O     0.54275   0.32307   0.77282   0.00000  Uiso   1.00
O1118  O     0.67693   0.04275   0.22718   0.00000  Uiso   1.00
O1119  O     0.82307   0.45725   0.77282   0.00000  Uiso   1.00
O1120  O     0.54275   0.32307   0.22718   0.00000  Uiso   1.00
O1121  O     0.75000   0.46964   0.33683   0.00000  Uiso   1.00
O1122  O     0.95726   0.17693   0.77282   0.00000  Uiso   1.00
O1123  O     0.82307   0.45725   0.22718   0.00000  Uiso   1.00
O1124  O     0.67693   0.04275   0.77282   0.00000  Uiso   1.00
O1125  O     0.60871   0.44391   0.22073   0.00000  Uiso   1.00
O1126  O     0.86404   0.08308   0.81682   0.00000  Uiso   1.00
O1127  O     0.58336   0.13479   0.18298   0.00000  Uiso   1.00
O1128  O     0.91837   0.36553   0.81593   0.00000  Uiso   1.00
O1129  O     0.89128   0.05609   0.22077   0.00000  Uiso   1.00
O1130  O     0.64065   0.41207   0.81908   0.00000  Uiso   1.00
O1131  O     0.91643   0.36485   0.18297   0.00000  Uiso   1.00
O1132  O     0.75000   0.03036   0.66317   0.00000  Uiso   1.00
O1133  O     0.58010   0.13266   0.81551   0.00000  Uiso   1.00
O1134  O     0.63043   0.07794   0.81353   0.00000  Uiso   1.00
O1135  O     0.85849   0.41126   0.18070   0.00000  Uiso   1.00
O1136  O     0.58490   0.36204   0.81754   0.00000  Uiso   1.00
O1137  O     0.94002   0.11110   0.21101   0.00000  Uiso   1.00
O1138  O     0.86794   0.42042   0.81441   0.00000  Uiso   1.00
O1139  O     0.64005   0.08684   0.18150   0.00000  Uiso   1.00
O1140  O     0.91725   0.13579   0.81659   0.00000  Uiso   1.00
O1141  O     0.55984   0.38899   0.21128   0.00000  Uiso   1.00
O1142  O     0.88553   0.16718   0.68360   0.00000  Uiso   1.00
O1143  O     0.53036   0.25000   0.33683   0.00000  Uiso   1.00
O1144  O     0.63883   0.31018   0.28926   0.00000  Uiso   1.00
O1145  O     0.82591   0.38052   0.68751   0.00000  Uiso   1.00
O1146  O     0.66314   0.10995   0.31839   0.00000  Uiso   1.00
O1147  O     0.61103   0.33607   0.68199   0.00000  Uiso   1.00
O1148  O     0.86088   0.19011   0.28870   0.00000  Uiso   1.00
O1149  O     0.67670   0.12530   0.69052   0.00000  Uiso   1.00
O1150  O     0.83768   0.39104   0.31869   0.00000  Uiso   1.00
O1151  O     0.88529   0.33395   0.31728   0.00000  Uiso   1.00
O1152  O     0.61983   0.17214   0.68686   0.00000  Uiso   1.00
O1153  O     0.80594   0.14129   0.27907   0.00000  Uiso   1.00
O1154  O     0.96964   0.25000   0.66317   0.00000  Uiso   1.00
O1155  O     0.66169   0.39121   0.68088   0.00000  Uiso   1.00
O1156  O     0.61539   0.16683   0.31684   0.00000  Uiso   1.00
O1157  O     0.88582   0.33217   0.68389   0.00000  Uiso   1.00
O1158  O     0.69390   0.35895   0.27956   0.00000  Uiso   1.00
O1159  O     0.83549   0.11182   0.68193   0.00000  Uiso   1.00
O1160  O     0.75000   0.03036   0.33683   0.00000  Uiso   1.00
Zn1161 Zn    0.70660   0.00000   0.21760   0.00000  Uiso   1.00
Zn1162 Zn    0.54340   0.25000   0.28240   0.00000  Uiso   1.00
Zn1163 Zn    0.75000   0.45660   0.71760   0.00000  Uiso   1.00
Zn1164 Zn    0.75000   0.04340   0.28240   0.00000  Uiso   1.00
Zn1165 Zn    0.54340   0.25000   0.71760   0.00000  Uiso   1.00
Zn1166 Zn    0.95660   0.25000   0.28240   0.00000  Uiso   1.00
Zn1167 Zn    0.75000   0.04340   0.71760   0.00000  Uiso   1.00
Zn1168 Zn    0.75000   0.45660   0.28240   0.00000  Uiso   1.00
Zn1169 Zn    0.79340   0.00000   0.78240   0.00000  Uiso   1.00
Zn1170 Zn    0.50000   0.20660   0.21760   0.00000  Uiso   1.00
Zn1171 Zn    0.50000   0.29340   0.78240   0.00000  Uiso   1.00
Zn1172 Zn    0.79340   0.00000   0.21760   0.00000  Uiso   1.00
Zn1173 Zn    0.70660   0.00000   0.78240   0.00000  Uiso   1.00
Zn1174 Zn    0.50000   0.29340   0.21760   0.00000  Uiso   1.00
Zn1175 Zn    0.50000   0.20660   0.78240   0.00000  Uiso   1.00
Zn1176 Zn    0.95660   0.25000   0.71760   0.00000  Uiso   1.00
C1177  C     0.22520   0.97985   0.04065   0.00000  Uiso   1.00
C1178  C     0.01895   0.72300   0.45877   0.00000  Uiso   1.00
C1179  C     0.34760   0.90107   0.75034   0.00000  Uiso   1.00
C1180  C     0.40172   0.65177   0.24997   0.00000  Uiso   1.00
C1181  C     0.09825   0.84818   0.74999   0.00000  Uiso   1.00
C1182  C     0.34778   0.90189   0.24989   0.00000  Uiso   1.00
C1183  C     0.15295   0.59937   0.75111   0.00000  Uiso   1.00
C1184  C     0.09874   0.65266   0.75074   0.00000  Uiso   1.00
C1185  C     0.40171   0.84833   0.25006   0.00000  Uiso   1.00
C1186  C     0.15197   0.90196   0.75005   0.00000  Uiso   1.00
C1187  C     0.34797   0.59801   0.24997   0.00000  Uiso   1.00
C1188  C     0.40169   0.84778   0.75016   0.00000  Uiso   1.00
C1189  C     0.28211   0.99205   0.54179   0.00000  Uiso   1.00
C1190  C     0.09837   0.65177   0.24993   0.00000  Uiso   1.00
C1191  C     0.34843   0.59766   0.74985   0.00000  Uiso   1.00
C1192  C     0.15199   0.90203   0.25004   0.00000  Uiso   1.00
C1193  C     0.24993   0.50083   0.10218   0.00000  Uiso   1.00
C1194  C     0.25004   0.50067   0.89768   0.00000  Uiso   1.00
C1195  C     0.49987   0.75000   0.10236   0.00000  Uiso   1.00
C1196  C     0.00000   0.74997   0.89752   0.00000  Uiso   1.00
C1197  C     0.49992   0.75011   0.60249   0.00000  Uiso   1.00
C1198  C     0.00001   0.75001   0.39766   0.00000  Uiso   1.00
C1199  C     0.25003   0.50000   0.60272   0.00000  Uiso   1.00
C1200  C     0.27479   0.52184   0.45883   0.00000  Uiso   1.00
C1201  C     0.25000   0.50002   0.39771   0.00000  Uiso   1.00
C1202  C     0.09206   0.96398   0.25088   0.00000  Uiso   1.00
C1203  C     0.08283   0.50188   0.23564   0.00000  Uiso   1.00
C1204  C     0.06598   0.52565   0.26725   0.00000  Uiso   1.00
C1205  C     0.33821   0.60029   0.84098   0.00000  Uiso   1.00
C1206  C     0.33273   0.57702   0.87735   0.00000  Uiso   1.00
C1207  C     0.30276   0.59230   0.90337   0.00000  Uiso   1.00
C1208  C     0.05220   0.61195   0.18339   0.00000  Uiso   1.00
C1209  C     0.05893   0.57683   0.16050   0.00000  Uiso   1.00
C1210  C     0.02373   0.55544   0.15476   0.00000  Uiso   1.00
C1211  C     0.01672   0.77856   0.54148   0.00000  Uiso   1.00
C1212  C     0.40068   0.84163   0.84190   0.00000  Uiso   1.00
C1213  C     0.42433   0.83714   0.87815   0.00000  Uiso   1.00
C1214  C     0.40752   0.81028   0.90680   0.00000  Uiso   1.00
C1215  C     0.40830   0.53623   0.25083   0.00000  Uiso   1.00
C1216  C     0.41741   0.99824   0.23571   0.00000  Uiso   1.00
C1217  C     0.43500   0.97482   0.26714   0.00000  Uiso   1.00
C1218  C     0.17184   0.89682   0.83699   0.00000  Uiso   1.00
C1219  C     0.16064   0.86814   0.86698   0.00000  Uiso   1.00
C1220  C     0.19333   0.85512   0.89055   0.00000  Uiso   1.00
C1221  C     0.44734   0.88802   0.18316   0.00000  Uiso   1.00
C1222  C     0.48116   0.77711   0.45878   0.00000  Uiso   1.00
C1223  C     0.43999   0.92313   0.16052   0.00000  Uiso   1.00
C1224  C     0.47485   0.94511   0.15486   0.00000  Uiso   1.00
C1225  C     0.09236   0.66110   0.84005   0.00000  Uiso   1.00
C1226  C     0.11579   0.64577   0.87299   0.00000  Uiso   1.00
C1227  C     0.12450   0.67493   0.90319   0.00000  Uiso   1.00
C1228  C     0.10303   0.55112   0.81060   0.00000  Uiso   1.00
C1229  C     0.10840   0.52336   0.84313   0.00000  Uiso   1.00
C1230  C     0.07895   0.99414   0.84211   0.00000  Uiso   1.00
C1231  C     0.32742   0.89502   0.16355   0.00000  Uiso   1.00
C1232  C     0.33836   0.86273   0.13788   0.00000  Uiso   1.00
C1233  C     0.21797   0.50806   0.54180   0.00000  Uiso   1.00
C1234  C     0.30592   0.84837   0.11478   0.00000  Uiso   1.00
C1235  C     0.05846   0.88959   0.82239   0.00000  Uiso   1.00
C1236  C     0.03294   0.87906   0.85562   0.00000  Uiso   1.00
C1237  C     0.00335   0.90765   0.86161   0.00000  Uiso   1.00
C1238  C     0.43635   0.62172   0.17152   0.00000  Uiso   1.00
C1239  C     0.42234   0.59026   0.14633   0.00000  Uiso   1.00
C1240  C     0.42591   0.59892   0.10309   0.00000  Uiso   1.00
C1241  C     0.39546   0.94729   0.81340   0.00000  Uiso   1.00
C1242  C     0.38746   0.97579   0.84460   0.00000  Uiso   1.00
C1243  C     0.41612   0.50580   0.84457   0.00000  Uiso   1.00
C1244  C     0.22525   0.97823   0.45884   0.00000  Uiso   1.00
C1245  C     0.16813   0.60523   0.16152   0.00000  Uiso   1.00
C1246  C     0.17640   0.58468   0.12389   0.00000  Uiso   1.00
C1247  C     0.20891   0.60108   0.10253   0.00000  Uiso   1.00
C1248  C     0.44456   0.60885   0.81963   0.00000  Uiso   1.00
C1249  C     0.47186   0.62019   0.85092   0.00000  Uiso   1.00
C1250  C     0.00210   0.59206   0.85530   0.00000  Uiso   1.00
C1251  C     0.06334   0.87846   0.17173   0.00000  Uiso   1.00
C1252  C     0.07681   0.91013   0.14652   0.00000  Uiso   1.00
C1253  C     0.07289   0.90157   0.10329   0.00000  Uiso   1.00
C1254  C     0.35797   0.69386   0.68089   0.00000  Uiso   1.00
C1255  C     0.22497   0.97905   0.08114   0.00000  Uiso   1.00
C1256  C     0.36774   0.72033   0.64828   0.00000  Uiso   1.00
C1257  C     0.33974   0.75079   0.64518   0.00000  Uiso   1.00
C1258  C     0.12808   0.81393   0.32871   0.00000  Uiso   1.00
C1259  C     0.15949   0.82803   0.35395   0.00000  Uiso   1.00
C1260  C     0.15081   0.82433   0.39717   0.00000  Uiso   1.00
C1261  C     0.30859   0.84768   0.67578   0.00000  Uiso   1.00
C1262  C     0.29136   0.82478   0.70868   0.00000  Uiso   1.00
C1263  C     0.26074   0.84460   0.72997   0.00000  Uiso   1.00
C1264  C     0.14392   0.58262   0.33862   0.00000  Uiso   1.00
C1265  C     0.16431   0.57392   0.37623   0.00000  Uiso   1.00
C1266  C     0.27275   0.97659   0.91861   0.00000  Uiso   1.00
C1267  C     0.14621   0.54286   0.39841   0.00000  Uiso   1.00
C1268  C     0.13847   0.81000   0.67482   0.00000  Uiso   1.00
C1269  C     0.12903   0.78958   0.63745   0.00000  Uiso   1.00
C1270  C     0.15683   0.75996   0.62862   0.00000  Uiso   1.00
C1271  C     0.37146   0.68667   0.32823   0.00000  Uiso   1.00
C1272  C     0.33985   0.67305   0.35348   0.00000  Uiso   1.00
C1273  C     0.34857   0.67673   0.39670   0.00000  Uiso   1.00
C1274  C     0.20771   0.64627   0.70081   0.00000  Uiso   1.00
C1275  C     0.20447   0.68517   0.68535   0.00000  Uiso   1.00
C1276  C     0.24041   0.70576   0.68912   0.00000  Uiso   1.00
C1277  C     0.02703   0.73083   0.08172   0.00000  Uiso   1.00
C1278  C     0.35722   0.91862   0.33819   0.00000  Uiso   1.00
C1279  C     0.33728   0.92802   0.37589   0.00000  Uiso   1.00
C1280  C     0.35585   0.95924   0.39738   0.00000  Uiso   1.00
C1281  C     0.36241   0.80283   0.31743   0.00000  Uiso   1.00
C1282  C     0.32728   0.80992   0.34022   0.00000  Uiso   1.00
C1283  C     0.30570   0.77489   0.34625   0.00000  Uiso   1.00
C1284  C     0.09725   0.65509   0.65906   0.00000  Uiso   1.00
C1285  C     0.09335   0.68025   0.62393   0.00000  Uiso   1.00
C1286  C     0.06679   0.66485   0.59404   0.00000  Uiso   1.00
C1287  C     0.28589   0.65770   0.24876   0.00000  Uiso   1.00
C1288  C     0.27273   0.97748   0.95910   0.00000  Uiso   1.00
C1289  C     0.02821   0.76762   0.91806   0.00000  Uiso   1.00
C1290  C     0.24792   0.66702   0.26388   0.00000  Uiso   1.00
C1291  C     0.22414   0.68350   0.23207   0.00000  Uiso   1.00
C1292  C     0.14571   0.92207   0.66307   0.00000  Uiso   1.00
C1293  C     0.11627   0.91043   0.63405   0.00000  Uiso   1.00
C1294  C     0.10348   0.94243   0.60935   0.00000  Uiso   1.00
C1295  C     0.13826   0.69795   0.31638   0.00000  Uiso   1.00
C1296  C     0.17335   0.69128   0.33937   0.00000  Uiso   1.00
C1297  C     0.19487   0.72643   0.34486   0.00000  Uiso   1.00
C1298  C     0.40854   0.85250   0.65893   0.00000  Uiso   1.00
C1299  C     0.41645   0.82987   0.62261   0.00000  Uiso   1.00
C1300  C     0.27470   0.52341   0.08185   0.00000  Uiso   1.00
C1301  C     0.44185   0.84986   0.59476   0.00000  Uiso   1.00
C1302  C     0.21352   0.84076   0.25010   0.00000  Uiso   1.00
C1303  C     0.25139   0.83150   0.26553   0.00000  Uiso   1.00
C1304  C     0.27424   0.81184   0.23500   0.00000  Uiso   1.00
C1305  C     0.35031   0.58167   0.66171   0.00000  Uiso   1.00
C1306  C     0.37821   0.59442   0.63153   0.00000  Uiso   1.00
C1307  C     0.38984   0.56329   0.60494   0.00000  Uiso   1.00
C1308  C     0.19971   0.95472   0.10021   0.00000  Uiso   1.00
C1309  C     0.29505   0.94966   0.89937   0.00000  Uiso   1.00
C1310  C     0.05571   0.71125   0.10146   0.00000  Uiso   1.00
C1311  C     0.22749   0.52542   0.91797   0.00000  Uiso   1.00
C1312  C     0.05820   0.78504   0.89819   0.00000  Uiso   1.00
C1313  C     0.29977   0.54739   0.10172   0.00000  Uiso   1.00
C1314  C     0.20472   0.55147   0.89800   0.00000  Uiso   1.00
C1315  C     0.44396   0.78866   0.10174   0.00000  Uiso   1.00
C1316  C     0.44243   0.71387   0.89813   0.00000  Uiso   1.00
C1317  C     0.46462   0.69209   0.60183   0.00000  Uiso   1.00
C1318  C     0.03906   0.69441   0.39842   0.00000  Uiso   1.00
C1319  C     0.31569   0.98307   0.60245   0.00000  Uiso   1.00
C1320  C     0.30107   0.54502   0.39863   0.00000  Uiso   1.00
C1321  C     0.03396   0.80887   0.60190   0.00000  Uiso   1.00
C1322  C     0.47267   0.76923   0.08186   0.00000  Uiso   1.00
C1323  C     0.46103   0.80566   0.39845   0.00000  Uiso   1.00
C1324  C     0.18443   0.51720   0.60247   0.00000  Uiso   1.00
C1325  C     0.19892   0.95506   0.39865   0.00000  Uiso   1.00
C1326  C     0.47185   0.73221   0.91803   0.00000  Uiso   1.00
C1327  C     0.48253   0.72176   0.58196   0.00000  Uiso   1.00
C1328  C     0.01939   0.72298   0.41823   0.00000  Uiso   1.00
C1329  C     0.28223   0.99167   0.58232   0.00000  Uiso   1.00
C1330  C     0.27476   0.52228   0.41832   0.00000  Uiso   1.00
C1331  C     0.01708   0.77862   0.58200   0.00000  Uiso   1.00
C1332  C     0.02701   0.73138   0.04119   0.00000  Uiso   1.00
C1333  C     0.48067   0.77708   0.41824   0.00000  Uiso   1.00
C1334  C     0.21784   0.50842   0.58233   0.00000  Uiso   1.00
C1335  C     0.22526   0.97778   0.41833   0.00000  Uiso   1.00
C1336  C     0.24992   0.50199   0.02098   0.00000  Uiso   1.00
C1337  C     0.25033   0.50196   0.97880   0.00000  Uiso   1.00
C1338  C     0.49983   0.75017   0.02110   0.00000  Uiso   1.00
C1339  C     0.49982   0.75022   0.97872   0.00000  Uiso   1.00
C1340  C     0.00004   0.75007   0.52130   0.00000  Uiso   1.00
C1341  C     0.00006   0.75006   0.47893   0.00000  Uiso   1.00
C1342  C     0.25004   0.50004   0.52155   0.00000  Uiso   1.00
C1343  C     0.02808   0.76733   0.95859   0.00000  Uiso   1.00
C1344  C     0.25003   0.50004   0.47907   0.00000  Uiso   1.00
C1345  C     0.25000   0.50001   0.35514   0.00000  Uiso   1.00
C1346  C     0.25002   0.50000   0.64502   0.00000  Uiso   1.00
C1347  C     0.00000   0.75000   0.35513   0.00000  Uiso   1.00
C1348  C     0.49999   0.75004   0.64493   0.00000  Uiso   1.00
C1349  C     0.00001   0.75000   0.85507   0.00000  Uiso   1.00
C1350  C     0.49996   0.75000   0.14489   0.00000  Uiso   1.00
C1351  C     0.25000   0.50009   0.85514   0.00000  Uiso   1.00
C1352  C     0.24999   0.50015   0.14481   0.00000  Uiso   1.00
C1353  C     0.18000   0.56998   0.25000   0.00000  Uiso   1.00
C1354  C     0.27449   0.52374   0.04134   0.00000  Uiso   1.00
C1355  C     0.31995   0.92974   0.75015   0.00000  Uiso   1.00
C1356  C     0.42988   0.67990   0.24999   0.00000  Uiso   1.00
C1357  C     0.07008   0.82009   0.74997   0.00000  Uiso   1.00
C1358  C     0.31998   0.93001   0.24999   0.00000  Uiso   1.00
C1359  C     0.18020   0.57038   0.75034   0.00000  Uiso   1.00
C1360  C     0.07009   0.82012   0.25004   0.00000  Uiso   1.00
C1361  C     0.42988   0.67996   0.75005   0.00000  Uiso   1.00
C1362  C     0.17999   0.92998   0.75002   0.00000  Uiso   1.00
C1363  C     0.32001   0.57001   0.24999   0.00000  Uiso   1.00
C1364  C     0.42997   0.82002   0.74998   0.00000  Uiso   1.00
C1365  C     0.22783   0.52584   0.95847   0.00000  Uiso   1.00
C1366  C     0.07014   0.67990   0.24998   0.00000  Uiso   1.00
C1367  C     0.32010   0.56994   0.74997   0.00000  Uiso   1.00
C1368  C     0.18000   0.92999   0.24999   0.00000  Uiso   1.00
C1369  C     0.07012   0.68007   0.75010   0.00000  Uiso   1.00
C1370  C     0.42990   0.82015   0.25005   0.00000  Uiso   1.00
C1371  C     0.11734   0.90968   0.23466   0.00000  Uiso   1.00
C1372  C     0.36916   0.60387   0.78371   0.00000  Uiso   1.00
C1373  C     0.10358   0.62972   0.21659   0.00000  Uiso   1.00
C1374  C     0.39683   0.86982   0.78322   0.00000  Uiso   1.00
C1375  C     0.38264   0.59034   0.23465   0.00000  Uiso   1.00
C1376  C     0.47265   0.76885   0.04131   0.00000  Uiso   1.00
C1377  C     0.13301   0.89397   0.78465   0.00000  Uiso   1.00
C1378  C     0.39619   0.87003   0.21655   0.00000  Uiso   1.00
C1379  C     0.10257   0.62959   0.78327   0.00000  Uiso   1.00
C1380  C     0.12778   0.60127   0.78207   0.00000  Uiso   1.00
C1381  C     0.36684   0.89401   0.21541   0.00000  Uiso   1.00
C1382  C     0.10445   0.86891   0.78388   0.00000  Uiso   1.00
C1383  C     0.40794   0.61826   0.23080   0.00000  Uiso   1.00
C1384  C     0.37159   0.89805   0.78222   0.00000  Uiso   1.00
C1385  C     0.13251   0.60523   0.21568   0.00000  Uiso   1.00
C1386  C     0.39705   0.62967   0.78317   0.00000  Uiso   1.00
C1387  C     0.47172   0.73287   0.95856   0.00000  Uiso   1.00
C1388  C     0.09200   0.88179   0.23089   0.00000  Uiso   1.00
C1389  C     0.37986   0.64668   0.71681   0.00000  Uiso   1.00
C1390  C     0.13169   0.84218   0.26938   0.00000  Uiso   1.00
C1391  C     0.34993   0.87660   0.71863   0.00000  Uiso   1.00
C1392  C     0.14491   0.61766   0.28415   0.00000  Uiso   1.00
C1393  C     0.11891   0.85451   0.71608   0.00000  Uiso   1.00
C1394  C     0.36815   0.65797   0.26910   0.00000  Uiso   1.00
C1395  C     0.15176   0.62539   0.72080   0.00000  Uiso   1.00
C1396  C     0.35546   0.88279   0.28433   0.00000  Uiso   1.00
C1397  C     0.37990   0.85382   0.28351   0.00000  Uiso   1.00
C1398  C     0.48314   0.72170   0.54144   0.00000  Uiso   1.00
C1399  C     0.12284   0.64968   0.71900   0.00000  Uiso   1.00
C1400  C     0.34025   0.63265   0.26526   0.00000  Uiso   1.00
C1401  C     0.14390   0.88315   0.71539   0.00000  Uiso   1.00
C1402  C     0.12045   0.64660   0.28325   0.00000  Uiso   1.00
C1403  C     0.37930   0.85221   0.71722   0.00000  Uiso   1.00
C1404  C     0.15964   0.86746   0.26551   0.00000  Uiso   1.00
C1405  C     0.35489   0.61811   0.71587   0.00000  Uiso   1.00
C1406  C     0.09820   0.84830   0.25011   0.00000  Uiso   1.00
C1407  C     0.40179   0.65181   0.75006   0.00000  Uiso   1.00
C1408  C     0.15210   0.59800   0.24994   0.00000  Uiso   1.00
H1409  H     0.20639   0.96298   0.02431   0.00000  Uiso   1.00
H1410  H     0.03353   0.70214   0.47475   0.00000  Uiso   1.00
H1411  H     0.45493   0.60326   0.09523   0.00000  Uiso   1.00
H1412  H     0.39636   0.96116   0.78454   0.00000  Uiso   1.00
H1413  H     0.42253   0.93497   0.81946   0.00000  Uiso   1.00
H1414  H     0.36028   0.98808   0.83916   0.00000  Uiso   1.00
H1415  H     0.38701   0.96256   0.87367   0.00000  Uiso   1.00
H1416  H     0.44342   0.99434   0.85112   0.00000  Uiso   1.00
H1417  H     0.40927   0.52634   0.86710   0.00000  Uiso   1.00
H1418  H     0.41686   0.51939   0.81573   0.00000  Uiso   1.00
H1419  H     0.19338   0.60622   0.17947   0.00000  Uiso   1.00
H1420  H     0.15960   0.63349   0.15408   0.00000  Uiso   1.00
H1421  H     0.30684   0.98571   0.52592   0.00000  Uiso   1.00
H1422  H     0.18243   0.55578   0.13072   0.00000  Uiso   1.00
H1423  H     0.15211   0.58550   0.10462   0.00000  Uiso   1.00
H1424  H     0.20338   0.62991   0.09493   0.00000  Uiso   1.00
H1425  H     0.21398   0.58559   0.07532   0.00000  Uiso   1.00
H1426  H     0.23369   0.59959   0.12098   0.00000  Uiso   1.00
H1427  H     0.45951   0.60529   0.79161   0.00000  Uiso   1.00
H1428  H     0.43230   0.58247   0.82825   0.00000  Uiso   1.00
H1429  H     0.48417   0.64676   0.84294   0.00000  Uiso   1.00
H1430  H     0.45756   0.62338   0.87921   0.00000  Uiso   1.00
H1431  H     0.49063   0.56555   0.86478   0.00000  Uiso   1.00
H1432  H     0.29389   0.53875   0.47474   0.00000  Uiso   1.00
H1433  H     0.02204   0.60149   0.87740   0.00000  Uiso   1.00
H1434  H     0.01648   0.58839   0.82718   0.00000  Uiso   1.00
H1435  H     0.03588   0.87030   0.16145   0.00000  Uiso   1.00
H1436  H     0.08123   0.85421   0.16747   0.00000  Uiso   1.00
H1437  H     0.06103   0.93510   0.15343   0.00000  Uiso   1.00
H1438  H     0.10601   0.91537   0.15267   0.00000  Uiso   1.00
H1439  H     0.08890   0.87694   0.09570   0.00000  Uiso   1.00
H1440  H     0.08323   0.92482   0.08588   0.00000  Uiso   1.00
H1441  H     0.04384   0.89698   0.09574   0.00000  Uiso   1.00
H1442  H     0.35540   0.70950   0.70859   0.00000  Uiso   1.00
H1443  H     0.02957   0.80054   0.52553   0.00000  Uiso   1.00
H1444  H     0.33131   0.68103   0.67396   0.00000  Uiso   1.00
H1445  H     0.39492   0.73246   0.65412   0.00000  Uiso   1.00
H1446  H     0.36906   0.70542   0.62018   0.00000  Uiso   1.00
H1447  H     0.31233   0.73945   0.63888   0.00000  Uiso   1.00
H1448  H     0.34749   0.76956   0.62130   0.00000  Uiso   1.00
H1449  H     0.33876   0.76633   0.67285   0.00000  Uiso   1.00
H1450  H     0.12021   0.78649   0.33923   0.00000  Uiso   1.00
H1451  H     0.10356   0.83152   0.33263   0.00000  Uiso   1.00
H1452  H     0.18473   0.81257   0.34730   0.00000  Uiso   1.00
H1453  H     0.16436   0.85723   0.34756   0.00000  Uiso   1.00
H1454  H     0.46660   0.79798   0.47477   0.00000  Uiso   1.00
H1455  H     0.12586   0.83999   0.40449   0.00000  Uiso   1.00
H1456  H     0.17384   0.83518   0.41460   0.00000  Uiso   1.00
H1457  H     0.14665   0.79531   0.40496   0.00000  Uiso   1.00
H1458  H     0.32704   0.83075   0.65795   0.00000  Uiso   1.00
H1459  H     0.28642   0.85526   0.65537   0.00000  Uiso   1.00
H1460  H     0.27969   0.79982   0.69532   0.00000  Uiso   1.00
H1461  H     0.31228   0.81568   0.72987   0.00000  Uiso   1.00
H1462  H     0.27206   0.86544   0.74982   0.00000  Uiso   1.00
H1463  H     0.24521   0.82484   0.74791   0.00000  Uiso   1.00
H1464  H     0.24168   0.85748   0.70902   0.00000  Uiso   1.00
H1465  H     0.19326   0.51444   0.52594   0.00000  Uiso   1.00
H1466  H     0.14209   0.55733   0.32085   0.00000  Uiso   1.00
H1467  H     0.11594   0.59209   0.34611   0.00000  Uiso   1.00
H1468  H     0.19278   0.56612   0.36925   0.00000  Uiso   1.00
H1469  H     0.16502   0.59854   0.39500   0.00000  Uiso   1.00
H1470  H     0.11789   0.55032   0.40644   0.00000  Uiso   1.00
H1471  H     0.16179   0.53720   0.42542   0.00000  Uiso   1.00
H1472  H     0.14579   0.51782   0.38034   0.00000  Uiso   1.00
H1473  H     0.14015   0.79014   0.69925   0.00000  Uiso   1.00
H1474  H     0.16553   0.82315   0.67097   0.00000  Uiso   1.00
H1475  H     0.10171   0.77688   0.64046   0.00000  Uiso   1.00
H1476  H     0.20616   0.96133   0.47476   0.00000  Uiso   1.00
H1477  H     0.12818   0.80909   0.61277   0.00000  Uiso   1.00
H1478  H     0.18466   0.77166   0.62663   0.00000  Uiso   1.00
H1479  H     0.15006   0.74679   0.60048   0.00000  Uiso   1.00
H1480  H     0.15612   0.73905   0.65183   0.00000  Uiso   1.00
H1481  H     0.37949   0.71415   0.33851   0.00000  Uiso   1.00
H1482  H     0.39583   0.66893   0.33245   0.00000  Uiso   1.00
H1483  H     0.31483   0.68885   0.34679   0.00000  Uiso   1.00
H1484  H     0.33459   0.64391   0.34717   0.00000  Uiso   1.00
H1485  H     0.37323   0.66064   0.40407   0.00000  Uiso   1.00
H1486  H     0.32534   0.66635   0.41415   0.00000  Uiso   1.00
H1487  H     0.11090   0.96680   0.27615   0.00000  Uiso   1.00
H1488  H     0.35326   0.70569   0.40443   0.00000  Uiso   1.00
H1489  H     0.23176   0.63324   0.68698   0.00000  Uiso   1.00
H1490  H     0.21333   0.64677   0.73275   0.00000  Uiso   1.00
H1491  H     0.19633   0.68443   0.65422   0.00000  Uiso   1.00
H1492  H     0.18335   0.69997   0.70218   0.00000  Uiso   1.00
H1493  H     0.24914   0.70684   0.72003   0.00000  Uiso   1.00
H1494  H     0.23690   0.73402   0.67833   0.00000  Uiso   1.00
H1495  H     0.26190   0.69228   0.67155   0.00000  Uiso   1.00
H1496  H     0.35894   0.94361   0.31995   0.00000  Uiso   1.00
H1497  H     0.38524   0.90916   0.34549   0.00000  Uiso   1.00
H1498  H     0.06641   0.95053   0.26058   0.00000  Uiso   1.00
H1499  H     0.30880   0.93596   0.36912   0.00000  Uiso   1.00
H1500  H     0.33655   0.90368   0.39505   0.00000  Uiso   1.00
H1501  H     0.38419   0.95165   0.40519   0.00000  Uiso   1.00
H1502  H     0.34059   0.96542   0.42448   0.00000  Uiso   1.00
H1503  H     0.35630   0.98402   0.37891   0.00000  Uiso   1.00
H1504  H     0.37762   0.78075   0.33228   0.00000  Uiso   1.00
H1505  H     0.35580   0.79245   0.28772   0.00000  Uiso   1.00
H1506  H     0.33397   0.82195   0.36902   0.00000  Uiso   1.00
H1507  H     0.30992   0.82929   0.32397   0.00000  Uiso   1.00
H1508  H     0.29937   0.76196   0.31782   0.00000  Uiso   1.00
H1509  H     0.10802   0.51517   0.22478   0.00000  Uiso   1.00
H1510  H     0.27971   0.78112   0.36134   0.00000  Uiso   1.00
H1511  H     0.32152   0.75562   0.36443   0.00000  Uiso   1.00
H1512  H     0.06967   0.64982   0.67141   0.00000  Uiso   1.00
H1513  H     0.10944   0.62890   0.64920   0.00000  Uiso   1.00
H1514  H     0.08340   0.70727   0.63371   0.00000  Uiso   1.00
H1515  H     0.12041   0.68397   0.61003   0.00000  Uiso   1.00
H1516  H     0.07678   0.63831   0.58289   0.00000  Uiso   1.00
H1517  H     0.06422   0.68406   0.56927   0.00000  Uiso   1.00
H1518  H     0.03949   0.66106   0.60733   0.00000  Uiso   1.00
H1519  H     0.28313   0.63870   0.22363   0.00000  Uiso   1.00
H1520  H     0.28981   0.95886   0.97541   0.00000  Uiso   1.00
H1521  H     0.06336   0.99940   0.21102   0.00000  Uiso   1.00
H1522  H     0.29936   0.68327   0.23889   0.00000  Uiso   1.00
H1523  H     0.23464   0.64194   0.27499   0.00000  Uiso   1.00
H1524  H     0.25035   0.68671   0.28829   0.00000  Uiso   1.00
H1525  H     0.23623   0.70936   0.22147   0.00000  Uiso   1.00
H1526  H     0.19662   0.68925   0.24390   0.00000  Uiso   1.00
H1527  H     0.22132   0.66425   0.20736   0.00000  Uiso   1.00
H1528  H     0.16763   0.93651   0.64700   0.00000  Uiso   1.00
H1529  H     0.13430   0.94209   0.68423   0.00000  Uiso   1.00
H1530  H     0.12719   0.88886   0.61461   0.00000  Uiso   1.00
H1531  H     0.09253   0.89926   0.65011   0.00000  Uiso   1.00
H1532  H     0.04000   0.51356   0.27756   0.00000  Uiso   1.00
H1533  H     0.09262   0.96444   0.62821   0.00000  Uiso   1.00
H1534  H     0.08156   0.93328   0.58938   0.00000  Uiso   1.00
H1535  H     0.12639   0.95321   0.59167   0.00000  Uiso   1.00
H1536  H     0.12303   0.72030   0.33078   0.00000  Uiso   1.00
H1537  H     0.14492   0.70781   0.28649   0.00000  Uiso   1.00
H1538  H     0.16662   0.67968   0.36835   0.00000  Uiso   1.00
H1539  H     0.19077   0.67168   0.32350   0.00000  Uiso   1.00
H1540  H     0.20117   0.73898   0.31624   0.00000  Uiso   1.00
H1541  H     0.22088   0.72045   0.36003   0.00000  Uiso   1.00
H1542  H     0.17902   0.74591   0.36278   0.00000  Uiso   1.00
H1543  H     0.06033   0.55312   0.25535   0.00000  Uiso   1.00
H1544  H     0.43485   0.85904   0.67353   0.00000  Uiso   1.00
H1545  H     0.39487   0.87822   0.64993   0.00000  Uiso   1.00
H1546  H     0.42925   0.80373   0.63126   0.00000  Uiso   1.00
H1547  H     0.39048   0.82372   0.60738   0.00000  Uiso   1.00
H1548  H     0.42898   0.87548   0.58457   0.00000  Uiso   1.00
H1549  H     0.44758   0.83237   0.56914   0.00000  Uiso   1.00
H1550  H     0.46800   0.85635   0.60941   0.00000  Uiso   1.00
H1551  H     0.21650   0.85849   0.22397   0.00000  Uiso   1.00
H1552  H     0.19958   0.81499   0.24167   0.00000  Uiso   1.00
H1553  H     0.26555   0.85696   0.27420   0.00000  Uiso   1.00
H1554  H     0.08500   0.52850   0.29218   0.00000  Uiso   1.00
H1555  H     0.24870   0.81385   0.29162   0.00000  Uiso   1.00
H1556  H     0.26136   0.78553   0.22707   0.00000  Uiso   1.00
H1557  H     0.30180   0.80638   0.24686   0.00000  Uiso   1.00
H1558  H     0.27711   0.82890   0.20855   0.00000  Uiso   1.00
H1559  H     0.32750   0.56797   0.64632   0.00000  Uiso   1.00
H1560  H     0.36274   0.56075   0.68113   0.00000  Uiso   1.00
H1561  H     0.36623   0.61653   0.61358   0.00000  Uiso   1.00
H1562  H     0.40266   0.60522   0.64663   0.00000  Uiso   1.00
H1563  H     0.40197   0.54087   0.62229   0.00000  Uiso   1.00
H1564  H     0.41050   0.57325   0.58390   0.00000  Uiso   1.00
H1565  H     0.31161   0.60305   0.82565   0.00000  Uiso   1.00
H1566  H     0.36607   0.55275   0.58842   0.00000  Uiso   1.00
H1567  H     0.34796   0.62773   0.85004   0.00000  Uiso   1.00
H1568  H     0.32534   0.54887   0.86865   0.00000  Uiso   1.00
H1569  H     0.35863   0.57584   0.89403   0.00000  Uiso   1.00
H1570  H     0.30991   0.62020   0.91314   0.00000  Uiso   1.00
H1571  H     0.29949   0.57466   0.92935   0.00000  Uiso   1.00
H1572  H     0.04795   0.71695   0.02515   0.00000  Uiso   1.00
H1573  H     0.27648   0.59306   0.88741   0.00000  Uiso   1.00
H1574  H     0.02989   0.62715   0.16888   0.00000  Uiso   1.00
H1575  H     0.04223   0.60537   0.21326   0.00000  Uiso   1.00
H1576  H     0.07079   0.58346   0.13161   0.00000  Uiso   1.00
H1577  H     0.07836   0.55939   0.17657   0.00000  Uiso   1.00
H1578  H     0.01090   0.54927   0.18328   0.00000  Uiso   1.00
H1579  H     0.02975   0.52939   0.13972   0.00000  Uiso   1.00
H1580  H     0.00444   0.57128   0.13662   0.00000  Uiso   1.00
H1581  H     0.39674   0.81442   0.82818   0.00000  Uiso   1.00
H1582  H     0.37373   0.85277   0.85088   0.00000  Uiso   1.00
H1583  H     0.04984   0.78056   0.97457   0.00000  Uiso   1.00
H1584  H     0.45175   0.82724   0.86954   0.00000  Uiso   1.00
H1585  H     0.42753   0.86395   0.89270   0.00000  Uiso   1.00
H1586  H     0.38071   0.82043   0.91707   0.00000  Uiso   1.00
H1587  H     0.42580   0.80702   0.93229   0.00000  Uiso   1.00
H1588  H     0.40381   0.78333   0.89278   0.00000  Uiso   1.00
H1589  H     0.38976   0.53355   0.27637   0.00000  Uiso   1.00
H1590  H     0.43404   0.54978   0.26009   0.00000  Uiso   1.00
H1591  H     0.39206   0.98475   0.22557   0.00000  Uiso   1.00
H1592  H     0.43636   0.50061   0.21064   0.00000  Uiso   1.00
H1593  H     0.46118   0.98707   0.27666   0.00000  Uiso   1.00
H1594  H     0.29336   0.54098   0.02553   0.00000  Uiso   1.00
H1595  H     0.44046   0.94724   0.25538   0.00000  Uiso   1.00
H1596  H     0.41655   0.97219   0.29257   0.00000  Uiso   1.00
H1597  H     0.18631   0.91921   0.85226   0.00000  Uiso   1.00
H1598  H     0.19177   0.88494   0.81600   0.00000  Uiso   1.00
H1599  H     0.14000   0.87984   0.88706   0.00000  Uiso   1.00
H1600  H     0.14836   0.84442   0.85186   0.00000  Uiso   1.00
H1601  H     0.21411   0.84290   0.87103   0.00000  Uiso   1.00
H1602  H     0.18439   0.83420   0.91179   0.00000  Uiso   1.00
H1603  H     0.20568   0.87818   0.90674   0.00000  Uiso   1.00
H1604  H     0.46968   0.87312   0.16835   0.00000  Uiso   1.00
H1605  H     0.21067   0.54478   0.97428   0.00000  Uiso   1.00
H1606  H     0.45748   0.89459   0.21297   0.00000  Uiso   1.00
H1607  H     0.42823   0.91643   0.13160   0.00000  Uiso   1.00
H1608  H     0.42027   0.94016   0.17673   0.00000  Uiso   1.00
H1609  H     0.48757   0.95140   0.18341   0.00000  Uiso   1.00
H1610  H     0.46840   0.97110   0.13992   0.00000  Uiso   1.00
H1611  H     0.49441   0.92963   0.13666   0.00000  Uiso   1.00
H1612  H     0.06786   0.67412   0.85295   0.00000  Uiso   1.00
H1613  H     0.10748   0.68306   0.82446   0.00000  Uiso   1.00
H1614  H     0.10113   0.62298   0.88738   0.00000  Uiso   1.00
H1615  H     0.14172   0.63519   0.86082   0.00000  Uiso   1.00
H1616  H     0.45167   0.78332   0.02538   0.00000  Uiso   1.00
H1617  H     0.13953   0.69780   0.88947   0.00000  Uiso   1.00
H1618  H     0.14175   0.66307   0.92648   0.00000  Uiso   1.00
H1619  H     0.09903   0.68544   0.91651   0.00000  Uiso   1.00
H1620  H     0.10454   0.53670   0.78208   0.00000  Uiso   1.00
H1621  H     0.07558   0.56347   0.81377   0.00000  Uiso   1.00
H1622  H     0.13552   0.51026   0.83991   0.00000  Uiso   1.00
H1623  H     0.10751   0.53745   0.87173   0.00000  Uiso   1.00
H1624  H     0.05166   0.50652   0.84647   0.00000  Uiso   1.00
H1625  H     0.08388   0.97417   0.86574   0.00000  Uiso   1.00
H1626  H     0.07947   0.97971   0.81373   0.00000  Uiso   1.00
H1627  H     0.44999   0.71957   0.97451   0.00000  Uiso   1.00
H1628  H     0.31426   0.91596   0.14497   0.00000  Uiso   1.00
H1629  H     0.30650   0.88644   0.18520   0.00000  Uiso   1.00
H1630  H     0.36008   0.87133   0.11732   0.00000  Uiso   1.00
H1631  H     0.34913   0.84042   0.15637   0.00000  Uiso   1.00
H1632  H     0.28397   0.83931   0.13478   0.00000  Uiso   1.00
H1633  H     0.31463   0.82483   0.09680   0.00000  Uiso   1.00
H1634  H     0.29515   0.86984   0.09519   0.00000  Uiso   1.00
H1635  H     0.04193   0.89328   0.79544   0.00000  Uiso   1.00
H1636  H     0.07179   0.91576   0.82991   0.00000  Uiso   1.00
H1637  H     0.01988   0.85251   0.84899   0.00000  Uiso   1.00
H1638  H     0.47014   0.69981   0.52545   0.00000  Uiso   1.00
H1639  H     0.04891   0.87615   0.88291   0.00000  Uiso   1.00
H1640  H     0.01573   0.93456   0.86808   0.00000  Uiso   1.00
H1641  H     0.48583   0.89967   0.88648   0.00000  Uiso   1.00
H1642  H     0.48614   0.90988   0.83516   0.00000  Uiso   1.00
H1643  H     0.46383   0.62960   0.16103   0.00000  Uiso   1.00
H1644  H     0.41871   0.64618   0.16750   0.00000  Uiso   1.00
H1645  H     0.43793   0.56512   0.15296   0.00000  Uiso   1.00
H1646  H     0.39315   0.58528   0.15279   0.00000  Uiso   1.00
H1647  H     0.41007   0.62373   0.09580   0.00000  Uiso   1.00
H1648  H     0.41517   0.57583   0.08571   0.00000  Uiso   1.00
N1649  N     0.17949   0.93524   0.11547   0.00000  Uiso   1.00
N1650  N     0.05481   0.67152   0.38257   0.00000  Uiso   1.00
N1651  N     0.34245   0.97618   0.61862   0.00000  Uiso   1.00
N1652  N     0.32212   0.56323   0.38286   0.00000  Uiso   1.00
N1653  N     0.04737   0.83317   0.61780   0.00000  Uiso   1.00
N1654  N     0.44530   0.82856   0.38262   0.00000  Uiso   1.00
N1655  N     0.15772   0.52426   0.61866   0.00000  Uiso   1.00
N1656  N     0.17784   0.93687   0.38289   0.00000  Uiso   1.00
N1657  N     0.31283   0.92800   0.88401   0.00000  Uiso   1.00
N1658  N     0.07869   0.69559   0.11725   0.00000  Uiso   1.00
N1659  N     0.08226   0.79891   0.88230   0.00000  Uiso   1.00
N1660  N     0.31982   0.56660   0.11763   0.00000  Uiso   1.00
N1661  N     0.18654   0.57238   0.88205   0.00000  Uiso   1.00
N1662  N     0.42095   0.80420   0.11763   0.00000  Uiso   1.00
N1663  N     0.41886   0.69922   0.88219   0.00000  Uiso   1.00
N1664  N     0.45030   0.66833   0.61775   0.00000  Uiso   1.00
O1665  O     0.25000   0.50000   0.25000   0.00000  Uiso   1.00
O1666  O     0.25000   0.96964   0.66317   0.00000  Uiso   1.00
O1667  O     0.46964   0.75000   0.33683   0.00000  Uiso   1.00
O1668  O     0.03036   0.75000   0.66317   0.00000  Uiso   1.00
O1669  O     0.00000   0.71964   0.83683   0.00000  Uiso   1.00
O1670  O     0.00000   0.78036   0.16317   0.00000  Uiso   1.00
O1671  O     0.28036   0.50000   0.83683   0.00000  Uiso   1.00
O1672  O     0.21964   0.50000   0.16317   0.00000  Uiso   1.00
O1673  O     0.00000   0.78036   0.83683   0.00000  Uiso   1.00
O1674  O     0.00000   0.71964   0.16317   0.00000  Uiso   1.00
O1675  O     0.21964   0.50000   0.83683   0.00000  Uiso   1.00
O1676  O     0.25000   0.50000   0.75000   0.00000  Uiso   1.00
O1677  O     0.28036   0.50000   0.16317   0.00000  Uiso   1.00
O1678  O     0.20726   0.57307   0.27282   0.00000  Uiso   1.00
O1679  O     0.29275   0.92693   0.72718   0.00000  Uiso   1.00
O1680  O     0.42693   0.70725   0.27282   0.00000  Uiso   1.00
O1681  O     0.07307   0.79274   0.72718   0.00000  Uiso   1.00
O1682  O     0.29275   0.92693   0.27282   0.00000  Uiso   1.00
O1683  O     0.20726   0.57307   0.72718   0.00000  Uiso   1.00
O1684  O     0.07307   0.79274   0.27282   0.00000  Uiso   1.00
O1685  O     0.42693   0.70725   0.72718   0.00000  Uiso   1.00
O1686  O     0.20726   0.92693   0.72718   0.00000  Uiso   1.00
O1687  O     0.00000   0.75000   0.25000   0.00000  Uiso   1.00
O1688  O     0.29275   0.57307   0.27282   0.00000  Uiso   1.00
O1689  O     0.42693   0.79274   0.72718   0.00000  Uiso   1.00
O1690  O     0.07307   0.70725   0.27282   0.00000  Uiso   1.00
O1691  O     0.29275   0.57307   0.72718   0.00000  Uiso   1.00
O1692  O     0.20726   0.92693   0.27282   0.00000  Uiso   1.00
O1693  O     0.07307   0.70725   0.72718   0.00000  Uiso   1.00
O1694  O     0.42693   0.79274   0.27282   0.00000  Uiso   1.00
O1695  O     0.45726   0.82307   0.77282   0.00000  Uiso   1.00
O1696  O     0.04275   0.67693   0.22718   0.00000  Uiso   1.00
O1697  O     0.17693   0.95725   0.77282   0.00000  Uiso   1.00
O1698  O     0.00000   0.75000   0.75000   0.00000  Uiso   1.00
O1699  O     0.32307   0.54275   0.22718   0.00000  Uiso   1.00
O1700  O     0.04275   0.67693   0.77282   0.00000  Uiso   1.00
O1701  O     0.45726   0.82307   0.22718   0.00000  Uiso   1.00
O1702  O     0.32307   0.54275   0.77282   0.00000  Uiso   1.00
O1703  O     0.17693   0.95725   0.22718   0.00000  Uiso   1.00
O1704  O     0.45726   0.67693   0.22718   0.00000  Uiso   1.00
O1705  O     0.04275   0.82307   0.77282   0.00000  Uiso   1.00
O1706  O     0.17693   0.54275   0.22718   0.00000  Uiso   1.00
O1707  O     0.32307   0.95725   0.77282   0.00000  Uiso   1.00
O1708  O     0.04275   0.82307   0.22718   0.00000  Uiso   1.00
O1709  O     0.25000   0.96964   0.33683   0.00000  Uiso   1.00
O1710  O     0.45726   0.67693   0.77282   0.00000  Uiso   1.00
O1711  O     0.32307   0.95725   0.22718   0.00000  Uiso   1.00
O1712  O     0.17693   0.54275   0.77282   0.00000  Uiso   1.00
O1713  O     0.10871   0.94391   0.22073   0.00000  Uiso   1.00
O1714  O     0.36404   0.58308   0.81682   0.00000  Uiso   1.00
O1715  O     0.08336   0.63479   0.18298   0.00000  Uiso   1.00
O1716  O     0.41837   0.86553   0.81593   0.00000  Uiso   1.00
O1717  O     0.39128   0.55609   0.22077   0.00000  Uiso   1.00
O1718  O     0.14065   0.91207   0.81908   0.00000  Uiso   1.00
O1719  O     0.41643   0.86485   0.18297   0.00000  Uiso   1.00
O1720  O     0.25000   0.53036   0.66317   0.00000  Uiso   1.00
O1721  O     0.08010   0.63266   0.81551   0.00000  Uiso   1.00
O1722  O     0.13043   0.57794   0.81353   0.00000  Uiso   1.00
O1723  O     0.35849   0.91126   0.18070   0.00000  Uiso   1.00
O1724  O     0.08490   0.86204   0.81754   0.00000  Uiso   1.00
O1725  O     0.44002   0.61110   0.21101   0.00000  Uiso   1.00
O1726  O     0.36794   0.92042   0.81441   0.00000  Uiso   1.00
O1727  O     0.14005   0.58684   0.18150   0.00000  Uiso   1.00
O1728  O     0.41725   0.63579   0.81659   0.00000  Uiso   1.00
O1729  O     0.05984   0.88899   0.21128   0.00000  Uiso   1.00
O1730  O     0.38553   0.66718   0.68360   0.00000  Uiso   1.00
O1731  O     0.03036   0.75000   0.33683   0.00000  Uiso   1.00
O1732  O     0.13883   0.81018   0.28926   0.00000  Uiso   1.00
O1733  O     0.32591   0.88052   0.68751   0.00000  Uiso   1.00
O1734  O     0.16314   0.60995   0.31839   0.00000  Uiso   1.00
O1735  O     0.11103   0.83607   0.68199   0.00000  Uiso   1.00
O1736  O     0.36088   0.69011   0.28870   0.00000  Uiso   1.00
O1737  O     0.17670   0.62530   0.69052   0.00000  Uiso   1.00
O1738  O     0.33768   0.89104   0.31869   0.00000  Uiso   1.00
O1739  O     0.38529   0.83395   0.31728   0.00000  Uiso   1.00
O1740  O     0.11983   0.67214   0.68686   0.00000  Uiso   1.00
O1741  O     0.30594   0.64129   0.27907   0.00000  Uiso   1.00
O1742  O     0.46964   0.75000   0.66317   0.00000  Uiso   1.00
O1743  O     0.16169   0.89121   0.68088   0.00000  Uiso   1.00
O1744  O     0.11539   0.66683   0.31684   0.00000  Uiso   1.00
O1745  O     0.38582   0.83217   0.68389   0.00000  Uiso   1.00
O1746  O     0.19390   0.85895   0.27956   0.00000  Uiso   1.00
O1747  O     0.33549   0.61182   0.68193   0.00000  Uiso   1.00
O1748  O     0.25000   0.53036   0.33683   0.00000  Uiso   1.00
Zn1749 Zn    0.20660   0.50000   0.21760   0.00000  Uiso   1.00
Zn1750 Zn    0.04340   0.75000   0.28240   0.00000  Uiso   1.00
Zn1751 Zn    0.25000   0.95660   0.71760   0.00000  Uiso   1.00
Zn1752 Zn    0.25000   0.54340   0.28240   0.00000  Uiso   1.00
Zn1753 Zn    0.04340   0.75000   0.71760   0.00000  Uiso   1.00
Zn1754 Zn    0.45660   0.75000   0.28240   0.00000  Uiso   1.00
Zn1755 Zn    0.25000   0.54340   0.71760   0.00000  Uiso   1.00
Zn1756 Zn    0.25000   0.95660   0.28240   0.00000  Uiso   1.00
Zn1757 Zn    0.29340   0.50000   0.78240   0.00000  Uiso   1.00
Zn1758 Zn    0.00000   0.70660   0.21760   0.00000  Uiso   1.00
Zn1759 Zn    0.00000   0.79340   0.78240   0.00000  Uiso   1.00
Zn1760 Zn    0.29340   0.50000   0.21760   0.00000  Uiso   1.00
Zn1761 Zn    0.20660   0.50000   0.78240   0.00000  Uiso   1.00
Zn1762 Zn    0.00000   0.79340   0.21760   0.00000  Uiso   1.00
Zn1763 Zn    0.00000   0.70660   0.78240   0.00000  Uiso   1.00
Zn1764 Zn    0.45660   0.75000   0.71760   0.00000  Uiso   1.00
C1765  C     0.72520   0.97985   0.04065   0.00000  Uiso   1.00
C1766  C     0.51895   0.72300   0.45877   0.00000  Uiso   1.00
C1767  C     0.84760   0.90107   0.75034   0.00000  Uiso   1.00
C1768  C     0.90172   0.65177   0.24997   0.00000  Uiso   1.00
C1769  C     0.59825   0.84818   0.74999   0.00000  Uiso   1.00
C1770  C     0.84778   0.90189   0.24989   0.00000  Uiso   1.00
C1771  C     0.65295   0.59937   0.75111   0.00000  Uiso   1.00
C1772  C     0.59874   0.65266   0.75074   0.00000  Uiso   1.00
C1773  C     0.90171   0.84833   0.25006   0.00000  Uiso   1.00
C1774  C     0.65197   0.90196   0.75005   0.00000  Uiso   1.00
C1775  C     0.84797   0.59801   0.24997   0.00000  Uiso   1.00
C1776  C     0.90169   0.84778   0.75016   0.00000  Uiso   1.00
C1777  C     0.78211   0.99205   0.54179   0.00000  Uiso   1.00
C1778  C     0.59837   0.65177   0.24993   0.00000  Uiso   1.00
C1779  C     0.84843   0.59766   0.74985   0.00000  Uiso   1.00
C1780  C     0.65199   0.90203   0.25004   0.00000  Uiso   1.00
C1781  C     0.74993   0.50083   0.10218   0.00000  Uiso   1.00
C1782  C     0.75004   0.50067   0.89768   0.00000  Uiso   1.00
C1783  C     0.99987   0.75000   0.10236   0.00000  Uiso   1.00
C1784  C     0.50000   0.74997   0.89752   0.00000  Uiso   1.00
C1785  C     0.99992   0.75011   0.60249   0.00000  Uiso   1.00
C1786  C     0.50001   0.75001   0.39766   0.00000  Uiso   1.00
C1787  C     0.75003   0.50000   0.60272   0.00000  Uiso   1.00
C1788  C     0.77479   0.52184   0.45883   0.00000  Uiso   1.00
C1789  C     0.75000   0.50002   0.39771   0.00000  Uiso   1.00
C1790  C     0.59206   0.96398   0.25088   0.00000  Uiso   1.00
C1791  C     0.58283   0.50188   0.23564   0.00000  Uiso   1.00
C1792  C     0.56598   0.52565   0.26725   0.00000  Uiso   1.00
C1793  C     0.83821   0.60029   0.84098   0.00000  Uiso   1.00
C1794  C     0.83273   0.57702   0.87735   0.00000  Uiso   1.00
C1795  C     0.80276   0.59230   0.90337   0.00000  Uiso   1.00
C1796  C     0.55220   0.61195   0.18339   0.00000  Uiso   1.00
C1797  C     0.55893   0.57683   0.16050   0.00000  Uiso   1.00
C1798  C     0.52373   0.55544   0.15476   0.00000  Uiso   1.00
C1799  C     0.51672   0.77856   0.54148   0.00000  Uiso   1.00
C1800  C     0.90068   0.84163   0.84190   0.00000  Uiso   1.00
C1801  C     0.92433   0.83714   0.87815   0.00000  Uiso   1.00
C1802  C     0.90752   0.81028   0.90680   0.00000  Uiso   1.00
C1803  C     0.90830   0.53623   0.25083   0.00000  Uiso   1.00
C1804  C     0.91741   0.99824   0.23571   0.00000  Uiso   1.00
C1805  C     0.93500   0.97482   0.26714   0.00000  Uiso   1.00
C1806  C     0.67184   0.89682   0.83699   0.00000  Uiso   1.00
C1807  C     0.66064   0.86814   0.86698   0.00000  Uiso   1.00
C1808  C     0.69333   0.85512   0.89055   0.00000  Uiso   1.00
C1809  C     0.94734   0.88802   0.18316   0.00000  Uiso   1.00
C1810  C     0.98116   0.77711   0.45878   0.00000  Uiso   1.00
C1811  C     0.93999   0.92313   0.16052   0.00000  Uiso   1.00
C1812  C     0.97485   0.94511   0.15486   0.00000  Uiso   1.00
C1813  C     0.59236   0.66110   0.84005   0.00000  Uiso   1.00
C1814  C     0.61579   0.64577   0.87299   0.00000  Uiso   1.00
C1815  C     0.62450   0.67493   0.90319   0.00000  Uiso   1.00
C1816  C     0.60303   0.55112   0.81060   0.00000  Uiso   1.00
C1817  C     0.60840   0.52336   0.84313   0.00000  Uiso   1.00
C1818  C     0.57895   0.99414   0.84211   0.00000  Uiso   1.00
C1819  C     0.82742   0.89502   0.16355   0.00000  Uiso   1.00
C1820  C     0.83836   0.86273   0.13788   0.00000  Uiso   1.00
C1821  C     0.71797   0.50806   0.54180   0.00000  Uiso   1.00
C1822  C     0.80592   0.84837   0.11478   0.00000  Uiso   1.00
C1823  C     0.55846   0.88959   0.82239   0.00000  Uiso   1.00
C1824  C     0.53294   0.87906   0.85562   0.00000  Uiso   1.00
C1825  C     0.50335   0.90765   0.86161   0.00000  Uiso   1.00
C1826  C     0.93635   0.62172   0.17152   0.00000  Uiso   1.00
C1827  C     0.92234   0.59026   0.14633   0.00000  Uiso   1.00
C1828  C     0.92591   0.59892   0.10309   0.00000  Uiso   1.00
C1829  C     0.89546   0.94729   0.81340   0.00000  Uiso   1.00
C1830  C     0.88746   0.97579   0.84460   0.00000  Uiso   1.00
C1831  C     0.91612   0.50580   0.84457   0.00000  Uiso   1.00
C1832  C     0.72525   0.97823   0.45884   0.00000  Uiso   1.00
C1833  C     0.66813   0.60523   0.16152   0.00000  Uiso   1.00
C1834  C     0.67640   0.58468   0.12389   0.00000  Uiso   1.00
C1835  C     0.70891   0.60108   0.10253   0.00000  Uiso   1.00
C1836  C     0.94456   0.60885   0.81963   0.00000  Uiso   1.00
C1837  C     0.97186   0.62019   0.85092   0.00000  Uiso   1.00
C1838  C     0.50210   0.59206   0.85530   0.00000  Uiso   1.00
C1839  C     0.56334   0.87846   0.17173   0.00000  Uiso   1.00
C1840  C     0.57681   0.91013   0.14652   0.00000  Uiso   1.00
C1841  C     0.57289   0.90157   0.10329   0.00000  Uiso   1.00
C1842  C     0.85797   0.69386   0.68089   0.00000  Uiso   1.00
C1843  C     0.72497   0.97905   0.08114   0.00000  Uiso   1.00
C1844  C     0.86774   0.72033   0.64828   0.00000  Uiso   1.00
C1845  C     0.83974   0.75079   0.64518   0.00000  Uiso   1.00
C1846  C     0.62808   0.81393   0.32871   0.00000  Uiso   1.00
C1847  C     0.65949   0.82803   0.35395   0.00000  Uiso   1.00
C1848  C     0.65081   0.82433   0.39717   0.00000  Uiso   1.00
C1849  C     0.80859   0.84768   0.67578   0.00000  Uiso   1.00
C1850  C     0.79136   0.82478   0.70868   0.00000  Uiso   1.00
C1851  C     0.76074   0.84460   0.72997   0.00000  Uiso   1.00
C1852  C     0.64392   0.58262   0.33862   0.00000  Uiso   1.00
C1853  C     0.66431   0.57392   0.37623   0.00000  Uiso   1.00
C1854  C     0.77275   0.97659   0.91861   0.00000  Uiso   1.00
C1855  C     0.64621   0.54286   0.39841   0.00000  Uiso   1.00
C1856  C     0.63847   0.81000   0.67482   0.00000  Uiso   1.00
C1857  C     0.62903   0.78958   0.63745   0.00000  Uiso   1.00
C1858  C     0.65683   0.75996   0.62862   0.00000  Uiso   1.00
C1859  C     0.87146   0.68667   0.32823   0.00000  Uiso   1.00
C1860  C     0.83985   0.67305   0.35348   0.00000  Uiso   1.00
C1861  C     0.84857   0.67673   0.39670   0.00000  Uiso   1.00
C1862  C     0.70771   0.64627   0.70081   0.00000  Uiso   1.00
C1863  C     0.70447   0.68517   0.68535   0.00000  Uiso   1.00
C1864  C     0.74041   0.70576   0.68912   0.00000  Uiso   1.00
C1865  C     0.52703   0.73083   0.08172   0.00000  Uiso   1.00
C1866  C     0.85722   0.91862   0.33819   0.00000  Uiso   1.00
C1867  C     0.83728   0.92802   0.37589   0.00000  Uiso   1.00
C1868  C     0.85585   0.95924   0.39738   0.00000  Uiso   1.00
C1869  C     0.86241   0.80283   0.31743   0.00000  Uiso   1.00
C1870  C     0.82728   0.80992   0.34022   0.00000  Uiso   1.00
C1871  C     0.80570   0.77489   0.34625   0.00000  Uiso   1.00
C1872  C     0.59725   0.65509   0.65906   0.00000  Uiso   1.00
C1873  C     0.59335   0.68025   0.62393   0.00000  Uiso   1.00
C1874  C     0.56679   0.66485   0.59404   0.00000  Uiso   1.00
C1875  C     0.78589   0.65770   0.24876   0.00000  Uiso   1.00
C1876  C     0.77273   0.97748   0.95910   0.00000  Uiso   1.00
C1877  C     0.52821   0.76762   0.91806   0.00000  Uiso   1.00
C1878  C     0.74792   0.66702   0.26388   0.00000  Uiso   1.00
C1879  C     0.72414   0.68350   0.23207   0.00000  Uiso   1.00
C1880  C     0.64571   0.92207   0.66307   0.00000  Uiso   1.00
C1881  C     0.61627   0.91043   0.63405   0.00000  Uiso   1.00
C1882  C     0.60348   0.94243   0.60935   0.00000  Uiso   1.00
C1883  C     0.63826   0.69795   0.31638   0.00000  Uiso   1.00
C1884  C     0.67335   0.69128   0.33937   0.00000  Uiso   1.00
C1885  C     0.69487   0.72643   0.34486   0.00000  Uiso   1.00
C1886  C     0.90854   0.85250   0.65893   0.00000  Uiso   1.00
C1887  C     0.91645   0.82987   0.62261   0.00000  Uiso   1.00
C1888  C     0.77470   0.52341   0.08185   0.00000  Uiso   1.00
C1889  C     0.94185   0.84986   0.59476   0.00000  Uiso   1.00
C1890  C     0.71352   0.84076   0.25010   0.00000  Uiso   1.00
C1891  C     0.75139   0.83150   0.26553   0.00000  Uiso   1.00
C1892  C     0.77424   0.81184   0.23500   0.00000  Uiso   1.00
C1893  C     0.85031   0.58167   0.66171   0.00000  Uiso   1.00
C1894  C     0.87821   0.59442   0.63153   0.00000  Uiso   1.00
C1895  C     0.88984   0.56329   0.60494   0.00000  Uiso   1.00
C1896  C     0.69971   0.95472   0.10021   0.00000  Uiso   1.00
C1897  C     0.79505   0.94966   0.89937   0.00000  Uiso   1.00
C1898  C     0.55571   0.71125   0.10146   0.00000  Uiso   1.00
C1899  C     0.72749   0.52542   0.91797   0.00000  Uiso   1.00
C1900  C     0.55820   0.78504   0.89819   0.00000  Uiso   1.00
C1901  C     0.79977   0.54739   0.10172   0.00000  Uiso   1.00
C1902  C     0.70472   0.55147   0.89800   0.00000  Uiso   1.00
C1903  C     0.94396   0.78866   0.10174   0.00000  Uiso   1.00
C1904  C     0.94243   0.71387   0.89813   0.00000  Uiso   1.00
C1905  C     0.96462   0.69209   0.60183   0.00000  Uiso   1.00
C1906  C     0.53906   0.69441   0.39842   0.00000  Uiso   1.00
C1907  C     0.81569   0.98307   0.60245   0.00000  Uiso   1.00
C1908  C     0.80107   0.54502   0.39863   0.00000  Uiso   1.00
C1909  C     0.53396   0.80887   0.60190   0.00000  Uiso   1.00
C1910  C     0.97267   0.76923   0.08186   0.00000  Uiso   1.00
C1911  C     0.96103   0.80566   0.39845   0.00000  Uiso   1.00
C1912  C     0.68443   0.51720   0.60247   0.00000  Uiso   1.00
C1913  C     0.69892   0.95506   0.39865   0.00000  Uiso   1.00
C1914  C     0.97185   0.73221   0.91803   0.00000  Uiso   1.00
C1915  C     0.98253   0.72176   0.58196   0.00000  Uiso   1.00
C1916  C     0.51939   0.72298   0.41823   0.00000  Uiso   1.00
C1917  C     0.78223   0.99167   0.58232   0.00000  Uiso   1.00
C1918  C     0.77476   0.52228   0.41832   0.00000  Uiso   1.00
C1919  C     0.51708   0.77862   0.58200   0.00000  Uiso   1.00
C1920  C     0.52701   0.73138   0.04119   0.00000  Uiso   1.00
C1921  C     0.98067   0.77708   0.41824   0.00000  Uiso   1.00
C1922  C     0.71784   0.50842   0.58233   0.00000  Uiso   1.00
C1923  C     0.72526   0.97778   0.41833   0.00000  Uiso   1.00
C1924  C     0.74992   0.50199   0.02098   0.00000  Uiso   1.00
C1925  C     0.75033   0.50196   0.97880   0.00000  Uiso   1.00
C1926  C     0.99983   0.75017   0.02110   0.00000  Uiso   1.00
C1927  C     0.99982   0.75022   0.97872   0.00000  Uiso   1.00
C1928  C     0.50004   0.75007   0.52130   0.00000  Uiso   1.00
C1929  C     0.50006   0.75006   0.47893   0.00000  Uiso   1.00
C1930  C     0.75004   0.50004   0.52155   0.00000  Uiso   1.00
C1931  C     0.52808   0.76733   0.95859   0.00000  Uiso   1.00
C1932  C     0.75003   0.50004   0.47907   0.00000  Uiso   1.00
C1933  C     0.75000   0.50001   0.35514   0.00000  Uiso   1.00
C1934  C     0.75002   0.50000   0.64502   0.00000  Uiso   1.00
C1935  C     0.50000   0.75000   0.35513   0.00000  Uiso   1.00
C1936  C     0.99999   0.75004   0.64493   0.00000  Uiso   1.00
C1937  C     0.50001   0.75000   0.85507   0.00000  Uiso   1.00
C1938  C     0.99996   0.75000   0.14489   0.00000  Uiso   1.00
C1939  C     0.75000   0.50009   0.85514   0.00000  Uiso   1.00
C1940  C     0.74999   0.50015   0.14481   0.00000  Uiso   1.00
C1941  C     0.68000   0.56998   0.25000   0.00000  Uiso   1.00
C1942  C     0.77449   0.52374   0.04134   0.00000  Uiso   1.00
C1943  C     0.81995   0.92974   0.75015   0.00000  Uiso   1.00
C1944  C     0.92988   0.67990   0.24999   0.00000  Uiso   1.00
C1945  C     0.57008   0.82009   0.74997   0.00000  Uiso   1.00
C1946  C     0.81998   0.93001   0.24999   0.00000  Uiso   1.00
C1947  C     0.68020   0.57038   0.75034   0.00000  Uiso   1.00
C1948  C     0.57009   0.82012   0.25004   0.00000  Uiso   1.00
C1949  C     0.92988   0.67996   0.75005   0.00000  Uiso   1.00
C1950  C     0.67999   0.92998   0.75002   0.00000  Uiso   1.00
C1951  C     0.82001   0.57001   0.24999   0.00000  Uiso   1.00
C1952  C     0.92997   0.82002   0.74998   0.00000  Uiso   1.00
C1953  C     0.72783   0.52584   0.95847   0.00000  Uiso   1.00
C1954  C     0.57014   0.67990   0.24998   0.00000  Uiso   1.00
C1955  C     0.82010   0.56994   0.74997   0.00000  Uiso   1.00
C1956  C     0.68000   0.92999   0.24999   0.00000  Uiso   1.00
C1957  C     0.57012   0.68007   0.75010   0.00000  Uiso   1.00
C1958  C     0.92990   0.82015   0.25005   0.00000  Uiso   1.00
C1959  C     0.61734   0.90968   0.23466   0.00000  Uiso   1.00
C1960  C     0.86916   0.60387   0.78371   0.00000  Uiso   1.00
C1961  C     0.60358   0.62972   0.21659   0.00000  Uiso   1.00
C1962  C     0.89683   0.86982   0.78322   0.00000  Uiso   1.00
C1963  C     0.88264   0.59034   0.23465   0.00000  Uiso   1.00
C1964  C     0.97265   0.76885   0.04131   0.00000  Uiso   1.00
C1965  C     0.63301   0.89397   0.78465   0.00000  Uiso   1.00
C1966  C     0.89619   0.87003   0.21655   0.00000  Uiso   1.00
C1967  C     0.60257   0.62959   0.78327   0.00000  Uiso   1.00
C1968  C     0.62778   0.60127   0.78207   0.00000  Uiso   1.00
C1969  C     0.86684   0.89401   0.21541   0.00000  Uiso   1.00
C1970  C     0.60445   0.86891   0.78388   0.00000  Uiso   1.00
C1971  C     0.90794   0.61826   0.23080   0.00000  Uiso   1.00
C1972  C     0.87159   0.89805   0.78222   0.00000  Uiso   1.00
C1973  C     0.63251   0.60523   0.21568   0.00000  Uiso   1.00
C1974  C     0.89705   0.62967   0.78317   0.00000  Uiso   1.00
C1975  C     0.97172   0.73287   0.95856   0.00000  Uiso   1.00
C1976  C     0.59200   0.88179   0.23089   0.00000  Uiso   1.00
C1977  C     0.87986   0.64668   0.71681   0.00000  Uiso   1.00
C1978  C     0.63169   0.84218   0.26938   0.00000  Uiso   1.00
C1979  C     0.84993   0.87660   0.71863   0.00000  Uiso   1.00
C1980  C     0.64491   0.61766   0.28415   0.00000  Uiso   1.00
C1981  C     0.61891   0.85451   0.71608   0.00000  Uiso   1.00
C1982  C     0.86815   0.65797   0.26910   0.00000  Uiso   1.00
C1983  C     0.65176   0.62539   0.72080   0.00000  Uiso   1.00
C1984  C     0.85546   0.88279   0.28433   0.00000  Uiso   1.00
C1985  C     0.87990   0.85382   0.28351   0.00000  Uiso   1.00
C1986  C     0.98314   0.72170   0.54144   0.00000  Uiso   1.00
C1987  C     0.62284   0.64968   0.71900   0.00000  Uiso   1.00
C1988  C     0.84025   0.63265   0.26526   0.00000  Uiso   1.00
C1989  C     0.64390   0.88315   0.71539   0.00000  Uiso   1.00
C1990  C     0.62045   0.64660   0.28325   0.00000  Uiso   1.00
C1991  C     0.87930   0.85221   0.71722   0.00000  Uiso   1.00
C1992  C     0.65964   0.86746   0.26551   0.00000  Uiso   1.00
C1993  C     0.85489   0.61811   0.71587   0.00000  Uiso   1.00
C1994  C     0.59820   0.84830   0.25011   0.00000  Uiso   1.00
C1995  C     0.90179   0.65181   0.75006   0.00000  Uiso   1.00
C1996  C     0.65210   0.59800   0.24994   0.00000  Uiso   1.00
H1997  H     0.70639   0.96298   0.02431   0.00000  Uiso   1.00
H1998  H     0.53353   0.70214   0.47475   0.00000  Uiso   1.00
H1999  H     0.95493   0.60326   0.09523   0.00000  Uiso   1.00
H2000  H     0.89636   0.96116   0.78454   0.00000  Uiso   1.00
H2001  H     0.92253   0.93497   0.81946   0.00000  Uiso   1.00
H2002  H     0.86028   0.98808   0.83916   0.00000  Uiso   1.00
H2003  H     0.88701   0.96256   0.87367   0.00000  Uiso   1.00
H2004  H     0.94342   0.99434   0.85112   0.00000  Uiso   1.00
H2005  H     0.90927   0.52634   0.86710   0.00000  Uiso   1.00
H2006  H     0.91686   0.51939   0.81573   0.00000  Uiso   1.00
H2007  H     0.69338   0.60622   0.17947   0.00000  Uiso   1.00
H2008  H     0.65960   0.63349   0.15408   0.00000  Uiso   1.00
H2009  H     0.80684   0.98571   0.52592   0.00000  Uiso   1.00
H2010  H     0.68243   0.55578   0.13072   0.00000  Uiso   1.00
H2011  H     0.65211   0.58550   0.10462   0.00000  Uiso   1.00
H2012  H     0.70338   0.62991   0.09493   0.00000  Uiso   1.00
H2013  H     0.71398   0.58559   0.07532   0.00000  Uiso   1.00
H2014  H     0.73369   0.59959   0.12098   0.00000  Uiso   1.00
H2015  H     0.95951   0.60529   0.79161   0.00000  Uiso   1.00
H2016  H     0.93230   0.58247   0.82825   0.00000  Uiso   1.00
H2017  H     0.98417   0.64676   0.84294   0.00000  Uiso   1.00
H2018  H     0.95756   0.62338   0.87921   0.00000  Uiso   1.00
H2019  H     0.99063   0.56555   0.86478   0.00000  Uiso   1.00
H2020  H     0.79389   0.53875   0.47474   0.00000  Uiso   1.00
H2021  H     0.52204   0.60149   0.87740   0.00000  Uiso   1.00
H2022  H     0.51648   0.58839   0.82718   0.00000  Uiso   1.00
H2023  H     0.53588   0.87030   0.16145   0.00000  Uiso   1.00
H2024  H     0.58123   0.85421   0.16747   0.00000  Uiso   1.00
H2025  H     0.56103   0.93510   0.15343   0.00000  Uiso   1.00
H2026  H     0.60601   0.91537   0.15267   0.00000  Uiso   1.00
H2027  H     0.58890   0.87694   0.09570   0.00000  Uiso   1.00
H2028  H     0.58323   0.92482   0.08588   0.00000  Uiso   1.00
H2029  H     0.54384   0.89698   0.09574   0.00000  Uiso   1.00
H2030  H     0.85540   0.70950   0.70859   0.00000  Uiso   1.00
H2031  H     0.52957   0.80054   0.52553   0.00000  Uiso   1.00
H2032  H     0.83131   0.68103   0.67396   0.00000  Uiso   1.00
H2033  H     0.89492   0.73246   0.65412   0.00000  Uiso   1.00
H2034  H     0.86906   0.70542   0.62018   0.00000  Uiso   1.00
H2035  H     0.81233   0.73945   0.63888   0.00000  Uiso   1.00
H2036  H     0.84749   0.76956   0.62130   0.00000  Uiso   1.00
H2037  H     0.83876   0.76633   0.67285   0.00000  Uiso   1.00
H2038  H     0.62021   0.78649   0.33923   0.00000  Uiso   1.00
H2039  H     0.60356   0.83152   0.33263   0.00000  Uiso   1.00
H2040  H     0.68473   0.81257   0.34730   0.00000  Uiso   1.00
H2041  H     0.66436   0.85723   0.34756   0.00000  Uiso   1.00
H2042  H     0.96660   0.79798   0.47477   0.00000  Uiso   1.00
H2043  H     0.62586   0.83999   0.40449   0.00000  Uiso   1.00
H2044  H     0.67384   0.83518   0.41460   0.00000  Uiso   1.00
H2045  H     0.64665   0.79531   0.40496   0.00000  Uiso   1.00
H2046  H     0.82704   0.83075   0.65795   0.00000  Uiso   1.00
H2047  H     0.78642   0.85526   0.65537   0.00000  Uiso   1.00
H2048  H     0.77969   0.79982   0.69532   0.00000  Uiso   1.00
H2049  H     0.81228   0.81568   0.72987   0.00000  Uiso   1.00
H2050  H     0.77206   0.86544   0.74982   0.00000  Uiso   1.00
H2051  H     0.74521   0.82484   0.74791   0.00000  Uiso   1.00
H2052  H     0.74168   0.85748   0.70902   0.00000  Uiso   1.00
H2053  H     0.69326   0.51444   0.52594   0.00000  Uiso   1.00
H2054  H     0.64209   0.55733   0.32085   0.00000  Uiso   1.00
H2055  H     0.61594   0.59209   0.34611   0.00000  Uiso   1.00
H2056  H     0.69278   0.56612   0.36925   0.00000  Uiso   1.00
H2057  H     0.66502   0.59854   0.39500   0.00000  Uiso   1.00
H2058  H     0.61789   0.55032   0.40644   0.00000  Uiso   1.00
H2059  H     0.66179   0.53720   0.42542   0.00000  Uiso   1.00
H2060  H     0.64579   0.51782   0.38034   0.00000  Uiso   1.00
H2061  H     0.64015   0.79014   0.69925   0.00000  Uiso   1.00
H2062  H     0.66553   0.82315   0.67097   0.00000  Uiso   1.00
H2063  H     0.60171   0.77688   0.64046   0.00000  Uiso   1.00
H2064  H     0.70616   0.96133   0.47476   0.00000  Uiso   1.00
H2065  H     0.62818   0.80909   0.61277   0.00000  Uiso   1.00
H2066  H     0.68466   0.77166   0.62663   0.00000  Uiso   1.00
H2067  H     0.65006   0.74679   0.60048   0.00000  Uiso   1.00
H2068  H     0.65612   0.73905   0.65183   0.00000  Uiso   1.00
H2069  H     0.87949   0.71415   0.33851   0.00000  Uiso   1.00
H2070  H     0.89583   0.66893   0.33245   0.00000  Uiso   1.00
H2071  H     0.81483   0.68885   0.34679   0.00000  Uiso   1.00
H2072  H     0.83459   0.64391   0.34717   0.00000  Uiso   1.00
H2073  H     0.87323   0.66064   0.40407   0.00000  Uiso   1.00
H2074  H     0.82534   0.66635   0.41415   0.00000  Uiso   1.00
H2075  H     0.61090   0.96680   0.27615   0.00000  Uiso   1.00
H2076  H     0.85326   0.70569   0.40443   0.00000  Uiso   1.00
H2077  H     0.73176   0.63324   0.68698   0.00000  Uiso   1.00
H2078  H     0.71333   0.64677   0.73275   0.00000  Uiso   1.00
H2079  H     0.69633   0.68443   0.65422   0.00000  Uiso   1.00
H2080  H     0.68335   0.69997   0.70218   0.00000  Uiso   1.00
H2081  H     0.74914   0.70684   0.72003   0.00000  Uiso   1.00
H2082  H     0.73690   0.73402   0.67833   0.00000  Uiso   1.00
H2083  H     0.76190   0.69228   0.67155   0.00000  Uiso   1.00
H2084  H     0.85894   0.94361   0.31995   0.00000  Uiso   1.00
H2085  H     0.88524   0.90916   0.34549   0.00000  Uiso   1.00
H2086  H     0.56641   0.95053   0.26058   0.00000  Uiso   1.00
H2087  H     0.80880   0.93596   0.36912   0.00000  Uiso   1.00
H2088  H     0.83655   0.90368   0.39505   0.00000  Uiso   1.00
H2089  H     0.88419   0.95165   0.40519   0.00000  Uiso   1.00
H2090  H     0.84059   0.96542   0.42448   0.00000  Uiso   1.00
H2091  H     0.85630   0.98402   0.37891   0.00000  Uiso   1.00
H2092  H     0.87762   0.78075   0.33228   0.00000  Uiso   1.00
H2093  H     0.85580   0.79245   0.28772   0.00000  Uiso   1.00
H2094  H     0.83397   0.82195   0.36902   0.00000  Uiso   1.00
H2095  H     0.80992   0.82929   0.32397   0.00000  Uiso   1.00
H2096  H     0.79937   0.76196   0.31782   0.00000  Uiso   1.00
H2097  H     0.60802   0.51517   0.22478   0.00000  Uiso   1.00
H2098  H     0.77971   0.78112   0.36134   0.00000  Uiso   1.00
H2099  H     0.82152   0.75562   0.36443   0.00000  Uiso   1.00
H2100  H     0.56967   0.64982   0.67141   0.00000  Uiso   1.00
H2101  H     0.60944   0.62890   0.64920   0.00000  Uiso   1.00
H2102  H     0.58340   0.70727   0.63371   0.00000  Uiso   1.00
H2103  H     0.62041   0.68397   0.61003   0.00000  Uiso   1.00
H2104  H     0.57678   0.63831   0.58289   0.00000  Uiso   1.00
H2105  H     0.56422   0.68406   0.56927   0.00000  Uiso   1.00
H2106  H     0.53949   0.66106   0.60733   0.00000  Uiso   1.00
H2107  H     0.78313   0.63870   0.22363   0.00000  Uiso   1.00
H2108  H     0.78981   0.95886   0.97541   0.00000  Uiso   1.00
H2109  H     0.56336   0.99940   0.21102   0.00000  Uiso   1.00
H2110  H     0.79936   0.68327   0.23889   0.00000  Uiso   1.00
H2111  H     0.73464   0.64194   0.27499   0.00000  Uiso   1.00
H2112  H     0.75035   0.68671   0.28829   0.00000  Uiso   1.00
H2113  H     0.73623   0.70936   0.22147   0.00000  Uiso   1.00
H2114  H     0.69662   0.68925   0.24390   0.00000  Uiso   1.00
H2115  H     0.72132   0.66425   0.20736   0.00000  Uiso   1.00
H2116  H     0.66763   0.93651   0.64700   0.00000  Uiso   1.00
H2117  H     0.63430   0.94209   0.68423   0.00000  Uiso   1.00
H2118  H     0.62719   0.88886   0.61461   0.00000  Uiso   1.00
H2119  H     0.59253   0.89926   0.65011   0.00000  Uiso   1.00
H2120  H     0.54000   0.51356   0.27756   0.00000  Uiso   1.00
H2121  H     0.59262   0.96444   0.62821   0.00000  Uiso   1.00
H2122  H     0.58156   0.93328   0.58938   0.00000  Uiso   1.00
H2123  H     0.62639   0.95321   0.59167   0.00000  Uiso   1.00
H2124  H     0.62303   0.72030   0.33078   0.00000  Uiso   1.00
H2125  H     0.64492   0.70781   0.28649   0.00000  Uiso   1.00
H2126  H     0.66662   0.67968   0.36835   0.00000  Uiso   1.00
H2127  H     0.69077   0.67168   0.32350   0.00000  Uiso   1.00
H2128  H     0.70117   0.73898   0.31624   0.00000  Uiso   1.00
H2129  H     0.72088   0.72045   0.36003   0.00000  Uiso   1.00
H2130  H     0.67902   0.74591   0.36278   0.00000  Uiso   1.00
H2131  H     0.56033   0.55312   0.25535   0.00000  Uiso   1.00
H2132  H     0.93485   0.85904   0.67353   0.00000  Uiso   1.00
H2133  H     0.89487   0.87822   0.64993   0.00000  Uiso   1.00
H2134  H     0.92925   0.80373   0.63126   0.00000  Uiso   1.00
H2135  H     0.89048   0.82372   0.60738   0.00000  Uiso   1.00
H2136  H     0.92898   0.87548   0.58457   0.00000  Uiso   1.00
H2137  H     0.94758   0.83237   0.56914   0.00000  Uiso   1.00
H2138  H     0.96800   0.85635   0.60941   0.00000  Uiso   1.00
H2139  H     0.71650   0.85849   0.22397   0.00000  Uiso   1.00
H2140  H     0.69958   0.81499   0.24167   0.00000  Uiso   1.00
H2141  H     0.76555   0.85696   0.27420   0.00000  Uiso   1.00
H2142  H     0.58500   0.52850   0.29218   0.00000  Uiso   1.00
H2143  H     0.74870   0.81385   0.29162   0.00000  Uiso   1.00
H2144  H     0.76136   0.78553   0.22707   0.00000  Uiso   1.00
H2145  H     0.80180   0.80638   0.24686   0.00000  Uiso   1.00
H2146  H     0.77711   0.82890   0.20855   0.00000  Uiso   1.00
H2147  H     0.82750   0.56797   0.64632   0.00000  Uiso   1.00
H2148  H     0.86274   0.56075   0.68113   0.00000  Uiso   1.00
H2149  H     0.86623   0.61653   0.61358   0.00000  Uiso   1.00
H2150  H     0.90266   0.60522   0.64663   0.00000  Uiso   1.00
H2151  H     0.90197   0.54087   0.62229   0.00000  Uiso   1.00
H2152  H     0.91050   0.57325   0.58390   0.00000  Uiso   1.00
H2153  H     0.81161   0.60305   0.82565   0.00000  Uiso   1.00
H2154  H     0.86607   0.55275   0.58842   0.00000  Uiso   1.00
H2155  H     0.84796   0.62773   0.85004   0.00000  Uiso   1.00
H2156  H     0.82534   0.54887   0.86865   0.00000  Uiso   1.00
H2157  H     0.85863   0.57584   0.89403   0.00000  Uiso   1.00
H2158  H     0.80991   0.62020   0.91314   0.00000  Uiso   1.00
H2159  H     0.79949   0.57466   0.92935   0.00000  Uiso   1.00
H2160  H     0.54795   0.71695   0.02515   0.00000  Uiso   1.00
H2161  H     0.77648   0.59306   0.88741   0.00000  Uiso   1.00
H2162  H     0.52989   0.62715   0.16888   0.00000  Uiso   1.00
H2163  H     0.54223   0.60537   0.21326   0.00000  Uiso   1.00
H2164  H     0.57079   0.58346   0.13161   0.00000  Uiso   1.00
H2165  H     0.57836   0.55939   0.17657   0.00000  Uiso   1.00
H2166  H     0.51090   0.54927   0.18328   0.00000  Uiso   1.00
H2167  H     0.52975   0.52939   0.13972   0.00000  Uiso   1.00
H2168  H     0.50444   0.57128   0.13662   0.00000  Uiso   1.00
H2169  H     0.89674   0.81442   0.82818   0.00000  Uiso   1.00
H2170  H     0.87373   0.85277   0.85088   0.00000  Uiso   1.00
H2171  H     0.54984   0.78056   0.97457   0.00000  Uiso   1.00
H2172  H     0.95175   0.82724   0.86954   0.00000  Uiso   1.00
H2173  H     0.92753   0.86395   0.89270   0.00000  Uiso   1.00
H2174  H     0.88071   0.82043   0.91707   0.00000  Uiso   1.00
H2175  H     0.92580   0.80702   0.93229   0.00000  Uiso   1.00
H2176  H     0.90381   0.78333   0.89278   0.00000  Uiso   1.00
H2177  H     0.88976   0.53355   0.27637   0.00000  Uiso   1.00
H2178  H     0.93404   0.54978   0.26009   0.00000  Uiso   1.00
H2179  H     0.89206   0.98475   0.22557   0.00000  Uiso   1.00
H2180  H     0.93636   0.50061   0.21064   0.00000  Uiso   1.00
H2181  H     0.96118   0.98707   0.27666   0.00000  Uiso   1.00
H2182  H     0.79336   0.54098   0.02553   0.00000  Uiso   1.00
H2183  H     0.94046   0.94724   0.25538   0.00000  Uiso   1.00
H2184  H     0.91655   0.97219   0.29257   0.00000  Uiso   1.00
H2185  H     0.68631   0.91921   0.85226   0.00000  Uiso   1.00
H2186  H     0.69177   0.88494   0.81600   0.00000  Uiso   1.00
H2187  H     0.64000   0.87984   0.88706   0.00000  Uiso   1.00
H2188  H     0.64836   0.84442   0.85186   0.00000  Uiso   1.00
H2189  H     0.71411   0.84290   0.87103   0.00000  Uiso   1.00
H2190  H     0.68439   0.83420   0.91179   0.00000  Uiso   1.00
H2191  H     0.70568   0.87818   0.90674   0.00000  Uiso   1.00
H2192  H     0.96968   0.87312   0.16835   0.00000  Uiso   1.00
H2193  H     0.71067   0.54478   0.97428   0.00000  Uiso   1.00
H2194  H     0.95748   0.89459   0.21297   0.00000  Uiso   1.00
H2195  H     0.92823   0.91643   0.13160   0.00000  Uiso   1.00
H2196  H     0.92027   0.94016   0.17673   0.00000  Uiso   1.00
H2197  H     0.98757   0.95140   0.18341   0.00000  Uiso   1.00
H2198  H     0.96840   0.97110   0.13992   0.00000  Uiso   1.00
H2199  H     0.99441   0.92963   0.13666   0.00000  Uiso   1.00
H2200  H     0.56786   0.67412   0.85295   0.00000  Uiso   1.00
H2201  H     0.60748   0.68306   0.82446   0.00000  Uiso   1.00
H2202  H     0.60113   0.62298   0.88738   0.00000  Uiso   1.00
H2203  H     0.64172   0.63519   0.86082   0.00000  Uiso   1.00
H2204  H     0.95167   0.78332   0.02538   0.00000  Uiso   1.00
H2205  H     0.63953   0.69780   0.88947   0.00000  Uiso   1.00
H2206  H     0.64175   0.66307   0.92648   0.00000  Uiso   1.00
H2207  H     0.59903   0.68544   0.91651   0.00000  Uiso   1.00
H2208  H     0.60454   0.53670   0.78208   0.00000  Uiso   1.00
H2209  H     0.57558   0.56347   0.81377   0.00000  Uiso   1.00
H2210  H     0.63552   0.51026   0.83991   0.00000  Uiso   1.00
H2211  H     0.60751   0.53745   0.87173   0.00000  Uiso   1.00
H2212  H     0.55166   0.50652   0.84647   0.00000  Uiso   1.00
H2213  H     0.58388   0.97417   0.86574   0.00000  Uiso   1.00
H2214  H     0.57947   0.97971   0.81373   0.00000  Uiso   1.00
H2215  H     0.94999   0.71957   0.97451   0.00000  Uiso   1.00
H2216  H     0.81426   0.91596   0.14497   0.00000  Uiso   1.00
H2217  H     0.80650   0.88644   0.18520   0.00000  Uiso   1.00
H2218  H     0.86008   0.87133   0.11732   0.00000  Uiso   1.00
H2219  H     0.84913   0.84042   0.15637   0.00000  Uiso   1.00
H2220  H     0.78397   0.83931   0.13478   0.00000  Uiso   1.00
H2221  H     0.81463   0.82483   0.09680   0.00000  Uiso   1.00
H2222  H     0.79515   0.86984   0.09519   0.00000  Uiso   1.00
H2223  H     0.54193   0.89328   0.79544   0.00000  Uiso   1.00
H2224  H     0.57179   0.91576   0.82991   0.00000  Uiso   1.00
H2225  H     0.51988   0.85251   0.84899   0.00000  Uiso   1.00
H2226  H     0.97014   0.69981   0.52545   0.00000  Uiso   1.00
H2227  H     0.54891   0.87615   0.88291   0.00000  Uiso   1.00
H2228  H     0.51573   0.93456   0.86808   0.00000  Uiso   1.00
H2229  H     0.98583   0.89967   0.88648   0.00000  Uiso   1.00
H2230  H     0.98614   0.90988   0.83516   0.00000  Uiso   1.00
H2231  H     0.96383   0.62960   0.16103   0.00000  Uiso   1.00
H2232  H     0.91871   0.64618   0.16750   0.00000  Uiso   1.00
H2233  H     0.93793   0.56512   0.15296   0.00000  Uiso   1.00
H2234  H     0.89315   0.58528   0.15279   0.00000  Uiso   1.00
H2235  H     0.91007   0.62373   0.09580   0.00000  Uiso   1.00
H2236  H     0.91517   0.57583   0.08571   0.00000  Uiso   1.00
N2237  N     0.67949   0.93524   0.11547   0.00000  Uiso   1.00
N2238  N     0.55481   0.67152   0.38257   0.00000  Uiso   1.00
N2239  N     0.84245   0.97618   0.61862   0.00000  Uiso   1.00
N2240  N     0.82212   0.56323   0.38286   0.00000  Uiso   1.00
N2241  N     0.54737   0.83317   0.61780   0.00000  Uiso   1.00
N2242  N     0.94530   0.82856   0.38262   0.00000  Uiso   1.00
N2243  N     0.65772   0.52426   0.61866   0.00000  Uiso   1.00
N2244  N     0.67784   0.93687   0.38289   0.00000  Uiso   1.00
N2245  N     0.81283   0.92800   0.88401   0.00000  Uiso   1.00
N2246  N     0.57869   0.69559   0.11725   0.00000  Uiso   1.00
N2247  N     0.58226   0.79891   0.88230   0.00000  Uiso   1.00
N2248  N     0.81982   0.56660   0.11763   0.00000  Uiso   1.00
N2249  N     0.68654   0.57238   0.88205   0.00000  Uiso   1.00
N2250  N     0.92095   0.80420   0.11763   0.00000  Uiso   1.00
N2251  N     0.91886   0.69922   0.88219   0.00000  Uiso   1.00
N2252  N     0.95030   0.66833   0.61775   0.00000  Uiso   1.00
O2253  O     0.75000   0.50000   0.25000   0.00000  Uiso   1.00
O2254  O     0.75000   0.96964   0.66317   0.00000  Uiso   1.00
O2255  O     0.96964   0.75000   0.33683   0.00000  Uiso   1.00
O2256  O     0.53036   0.75000   0.66317   0.00000  Uiso   1.00
O2257  O     0.50000   0.71964   0.83683   0.00000  Uiso   1.00
O2258  O     0.50000   0.78036   0.16317   0.00000  Uiso   1.00
O2259  O     0.78036   0.50000   0.83683   0.00000  Uiso   1.00
O2260  O     0.71964   0.50000   0.16317   0.00000  Uiso   1.00
O2261  O     0.50000   0.78036   0.83683   0.00000  Uiso   1.00
O2262  O     0.50000   0.71964   0.16317   0.00000  Uiso   1.00
O2263  O     0.71964   0.50000   0.83683   0.00000  Uiso   1.00
O2264  O     0.75000   0.50000   0.75000   0.00000  Uiso   1.00
O2265  O     0.78036   0.50000   0.16317   0.00000  Uiso   1.00
O2266  O     0.70726   0.57307   0.27282   0.00000  Uiso   1.00
O2267  O     0.79275   0.92693   0.72718   0.00000  Uiso   1.00
O2268  O     0.92693   0.70725   0.27282   0.00000  Uiso   1.00
O2269  O     0.57307   0.79274   0.72718   0.00000  Uiso   1.00
O2270  O     0.79275   0.92693   0.27282   0.00000  Uiso   1.00
O2271  O     0.70726   0.57307   0.72718   0.00000  Uiso   1.00
O2272  O     0.57307   0.79274   0.27282   0.00000  Uiso   1.00
O2273  O     0.92693   0.70725   0.72718   0.00000  Uiso   1.00
O2274  O     0.70726   0.92693   0.72718   0.00000  Uiso   1.00
O2275  O     0.50000   0.75000   0.25000   0.00000  Uiso   1.00
O2276  O     0.79275   0.57307   0.27282   0.00000  Uiso   1.00
O2277  O     0.92693   0.79274   0.72718   0.00000  Uiso   1.00
O2278  O     0.57307   0.70725   0.27282   0.00000  Uiso   1.00
O2279  O     0.79275   0.57307   0.72718   0.00000  Uiso   1.00
O2280  O     0.70726   0.92693   0.27282   0.00000  Uiso   1.00
O2281  O     0.57307   0.70725   0.72718   0.00000  Uiso   1.00
O2282  O     0.92693   0.79274   0.27282   0.00000  Uiso   1.00
O2283  O     0.95726   0.82307   0.77282   0.00000  Uiso   1.00
O2284  O     0.54275   0.67693   0.22718   0.00000  Uiso   1.00
O2285  O     0.67693   0.95725   0.77282   0.00000  Uiso   1.00
O2286  O     0.50000   0.75000   0.75000   0.00000  Uiso   1.00
O2287  O     0.82307   0.54275   0.22718   0.00000  Uiso   1.00
O2288  O     0.54275   0.67693   0.77282   0.00000  Uiso   1.00
O2289  O     0.95726   0.82307   0.22718   0.00000  Uiso   1.00
O2290  O     0.82307   0.54275   0.77282   0.00000  Uiso   1.00
O2291  O     0.67693   0.95725   0.22718   0.00000  Uiso   1.00
O2292  O     0.95726   0.67693   0.22718   0.00000  Uiso   1.00
O2293  O     0.54275   0.82307   0.77282   0.00000  Uiso   1.00
O2294  O     0.67693   0.54275   0.22718   0.00000  Uiso   1.00
O2295  O     0.82307   0.95725   0.77282   0.00000  Uiso   1.00
O2296  O     0.54275   0.82307   0.22718   0.00000  Uiso   1.00
O2297  O     0.75000   0.96964   0.33683   0.00000  Uiso   1.00
O2298  O     0.95726   0.67693   0.77282   0.00000  Uiso   1.00
O2299  O     0.82307   0.95725   0.22718   0.00000  Uiso   1.00
O2300  O     0.67693   0.54275   0.77282   0.00000  Uiso   1.00
O2301  O     0.60871   0.94391   0.22073   0.00000  Uiso   1.00
O2302  O     0.86404   0.58308   0.81682   0.00000  Uiso   1.00
O2303  O     0.58336   0.63479   0.18298   0.00000  Uiso   1.00
O2304  O     0.91837   0.86553   0.81593   0.00000  Uiso   1.00
O2305  O     0.89128   0.55609   0.22077   0.00000  Uiso   1.00
O2306  O     0.64065   0.91207   0.81908   0.00000  Uiso   1.00
O2307  O     0.91643   0.86485   0.18297   0.00000  Uiso   1.00
O2308  O     0.75000   0.53036   0.66317   0.00000  Uiso   1.00
O2309  O     0.58010   0.63266   0.81551   0.00000  Uiso   1.00
O2310  O     0.63043   0.57794   0.81353   0.00000  Uiso   1.00
O2311  O     0.85849   0.91126   0.18070   0.00000  Uiso   1.00
O2312  O     0.58490   0.86204   0.81754   0.00000  Uiso   1.00
O2313  O     0.94002   0.61110   0.21101   0.00000  Uiso   1.00
O2314  O     0.86794   0.92042   0.81441   0.00000  Uiso   1.00
O2315  O     0.64005   0.58684   0.18150   0.00000  Uiso   1.00
O2316  O     0.91725   0.63579   0.81659   0.00000  Uiso   1.00
O2317  O     0.55984   0.88899   0.21128   0.00000  Uiso   1.00
O2318  O     0.88553   0.66718   0.68360   0.00000  Uiso   1.00
O2319  O     0.53036   0.75000   0.33683   0.00000  Uiso   1.00
O2320  O     0.63883   0.81018   0.28926   0.00000  Uiso   1.00
O2321  O     0.82591   0.88052   0.68751   0.00000  Uiso   1.00
O2322  O     0.66314   0.60995   0.31839   0.00000  Uiso   1.00
O2323  O     0.61103   0.83607   0.68199   0.00000  Uiso   1.00
O2324  O     0.86088   0.69011   0.28870   0.00000  Uiso   1.00
O2325  O     0.67670   0.62530   0.69052   0.00000  Uiso   1.00
O2326  O     0.83768   0.89104   0.31869   0.00000  Uiso   1.00
O2327  O     0.88529   0.83395   0.31728   0.00000  Uiso   1.00
O2328  O     0.61983   0.67214   0.68686   0.00000  Uiso   1.00
O2329  O     0.80594   0.64129   0.27907   0.00000  Uiso   1.00
O2330  O     0.96964   0.75000   0.66317   0.00000  Uiso   1.00
O2331  O     0.66169   0.89121   0.68088   0.00000  Uiso   1.00
O2332  O     0.61539   0.66683   0.31684   0.00000  Uiso   1.00
O2333  O     0.88582   0.83217   0.68389   0.00000  Uiso   1.00
O2334  O     0.69390   0.85895   0.27956   0.00000  Uiso   1.00
O2335  O     0.83549   0.61182   0.68193   0.00000  Uiso   1.00
O2336  O     0.75000   0.53036   0.33683   0.00000  Uiso   1.00
Zn2337 Zn    0.70660   0.50000   0.21760   0.00000  Uiso   1.00
Zn2338 Zn    0.54340   0.75000   0.28240   0.00000  Uiso   1.00
Zn2339 Zn    0.75000   0.95660   0.71760   0.00000  Uiso   1.00
Zn2340 Zn    0.75000   0.54340   0.28240   0.00000  Uiso   1.00
Zn2341 Zn    0.54340   0.75000   0.71760   0.00000  Uiso   1.00
Zn2342 Zn    0.95660   0.75000   0.28240   0.00000  Uiso   1.00
Zn2343 Zn    0.75000   0.54340   0.71760   0.00000  Uiso   1.00
Zn2344 Zn    0.75000   0.95660   0.28240   0.00000  Uiso   1.00
Zn2345 Zn    0.79340   0.50000   0.78240   0.00000  Uiso   1.00
Zn2346 Zn    0.50000   0.70660   0.21760   0.00000  Uiso   1.00
Zn2347 Zn    0.50000   0.79340   0.78240   0.00000  Uiso   1.00
Zn2348 Zn    0.79340   0.50000   0.21760   0.00000  Uiso   1.00
Zn2349 Zn    0.70660   0.50000   0.78240   0.00000  Uiso   1.00
Zn2350 Zn    0.50000   0.79340   0.21760   0.00000  Uiso   1.00
Zn2351 Zn    0.50000   0.70660   0.78240   0.00000  Uiso   1.00
Zn2352 Zn    0.95660   0.75000   0.71760   0.00000  Uiso   1.00
loop_
_geom_bond_atom_site_label_1
_geom_bond_atom_site_label_2
_geom_bond_distance
_geom_bond_site_symmetry_2
_ccdc_geom_bond_type
C1     C79     1.392   .     A
C1     H233    1.085   .     S
C1     C1336   1.394   .     S
C2     C152    1.394   .     A
C2     C165    1.397   .     A
C2     H234    1.085   .     S
C3     C215    1.416   .     A
C3     C208    1.411   .     A
C3     C179    1.464   .     S
C4     C218    1.416   .     A
C4     C180    1.463   .     S
C4     C207    1.416   .     A
C5     C217    1.410   .     A
C5     C206    1.410   .     A
C5     C181    1.462   .     S
C6     C205    1.406   .     A
C6     C182    1.453   .     S
C6     C220    1.406   .     A
C7     C204    1.412   .     A
C7     C183    1.463   .     S
C7     C219    1.415   .     A
C8     C223    1.409   .     A
C8     C203    1.411   .     A
C8     C193    1.457   .     S
C9     C202    1.416   .     A
C9     C221    1.416   .     A
C9     C194    1.465   .     S
C10    C201    1.410   .     A
C10    C186    1.456   .     S
C10    C225    1.409   .     A
C11    C199    1.406   .     A
C11    C224    1.407   .     A
C11    C187    1.454   .     S
C12    C227    1.409   .     A
C12    C198    1.407   .     A
C12    C188    1.457   .     S
C13    H245    1.085   .     S
C13    C153    1.393   .     A
C13    C1342   1.400   .     S
C14    C197    1.417   .     A
C14    C190    1.465   .     S
C14    C226    1.416   .     A
C15    C191    1.456   .     S
C15    C196    1.410   .     A
C15    C229    1.409   .     A
C16    C228    1.407   .     A
C16    C195    1.407   .     A
C16    C192    1.454   .     S
C17    C124    1.416   .     A
C17    C176    1.466   .     S
C17    C1255   1.416   1_545 S
C18    C175    1.463   .     S
C18    C135    1.414   .     A
C18    C1266   1.414   1_545 S
C19    C174    1.462   .     S
C19    C146    1.413   .     A
C19    C689    1.412   .     S
C20    C113    1.411   .     A
C20    C173    1.460   .     S
C20    C738    1.412   1_455 S
C21    C172    1.459   .     S
C21    C151    1.411   .     A
C21    C743    1.411   .     S
C22    C171    1.462   .     S
C22    C152    1.413   .     A
C22    C745    1.413   1_455 S
C23    C158    1.409   .     A
C23    C1329   1.409   1_545 S
C23    C170    1.455   .     S
C24    C154    1.393   .     A
C24    H256    1.085   .     S
C24    C168    1.398   .     A
C25    C154    1.413   .     A
C25    C169    1.464   .     S
C25    C1335   1.413   1_545 S
C26    H311    1.115   .     S
C26    H322    1.115   .     S
C26    O537    1.412   .     S
C26    C1203   1.527   .     S
C27    H333    1.111   .     S
C27    C28     1.526   .     S
C27    C1202   1.527   1_545 S
C27    H1521   1.112   1_545 S
C28    H356    1.111   .     S
C28    H378    1.110   .     S
C28    H367    1.110   .     S
C29    C30     1.529   .     S
C29    O538    1.411   .     S
C29    H389    1.115   .     S
C29    H391    1.115   .     S
C30    H393    1.112   .     S
C30    C31     1.526   .     S
C30    H392    1.111   .     S
C31    H397    1.111   .     S
C31    H394    1.111   .     S
C31    H395    1.111   .     S
C32    H399    1.117   .     S
C32    O539    1.419   .     S
C32    H398    1.110   .     S
C32    C33     1.532   .     S
C33    H400    1.112   .     S
C33    H401    1.107   .     S
C33    C34     1.526   .     S
C34    H403    1.110   .     S
C34    H404    1.110   .     S
C34    H402    1.111   .     S
C35    H267    1.085   .     S
C35    C155    1.393   .     A
C35    C164    1.397   .     A
C36    H405    1.115   .     S
C36    O540    1.411   .     S
C36    C37     1.528   .     S
C36    H406    1.115   .     S
C37    H408    1.111   .     S
C37    C38     1.525   .     S
C37    H409    1.111   .     S
C38    H412    1.110   .     S
C38    H410    1.111   .     S
C38    H411    1.111   .     S
C39    H414    1.115   .     S
C39    O541    1.412   .     S
C39    H413    1.115   .     S
C39    C1216   1.527   1_545 S
C40    H415    1.111   .     S
C40    C41     1.526   .     S
C40    C1215   1.527   .     S
C40    H1592   1.112   .     S
C41    H417    1.111   .     S
C41    H419    1.110   .     S
C41    H420    1.110   .     S
C42    O542    1.417   .     S
C42    H422    1.117   .     S
C42    C43     1.531   .     S
C42    H421    1.111   .     S
C43    C44     1.526   .     S
C43    H424    1.111   .     S
C43    H423    1.112   .     S
C44    H427    1.111   .     S
C44    H426    1.110   .     S
C44    H425    1.111   .     S
C45    O543    1.419   .     S
C45    H430    1.117   .     S
C45    C47     1.532   .     S
C45    H428    1.110   .     S
C46    H278    1.085   .     S
C46    C157    1.394   .     A
C46    C753    1.397   .     S
C47    C48     1.526   .     S
C47    H431    1.112   .     S
C47    H432    1.108   .     S
C48    H433    1.111   .     S
C48    H434    1.110   .     S
C48    H435    1.110   .     S
C49    H437    1.117   .     S
C49    O545    1.417   .     S
C49    C50     1.530   .     S
C49    H436    1.111   .     S
C50    H439    1.110   .     S
C50    C51     1.526   .     S
C50    H438    1.112   .     S
C51    H443    1.111   .     S
C51    H441    1.111   .     S
C51    H442    1.110   .     S
C52    O546    1.413   .     S
C52    C53     1.527   .     S
C52    H445    1.111   .     S
C52    H444    1.116   .     S
C53    H447    1.112   .     S
C53    H446    1.112   .     S
C53    C1230   1.525   1_545 S
C54    H449    1.110   .     S
C54    H450    1.111   .     S
C54    C1229   1.525   .     S
C54    H1624   1.111   .     S
C55    O547    1.416   .     S
C55    C56     1.532   .     S
C55    H453    1.115   .     S
C55    H452    1.111   .     S
C56    C58     1.526   .     S
C56    H455    1.111   .     S
C56    H454    1.112   .     S
C57    C158    1.393   .     A
C57    C166    1.400   .     A
C57    H289    1.085   .     S
C58    H456    1.111   .     S
C58    H457    1.110   .     S
C58    H458    1.111   .     S
C59    C60     1.528   .     S
C59    H459    1.116   .     S
C59    H460    1.110   .     S
C59    O548    1.413   .     S
C60    H461    1.111   .     S
C60    H463    1.112   .     S
C60    C61     1.526   .     S
C61    H464    1.111   .     S
C61    H1053   1.110   1_455 S
C61    H1054   1.111   1_455 S
C62    H467    1.110   .     S
C62    C63     1.534   .     S
C62    H468    1.117   .     S
C62    O549    1.419   .     S
C63    H470    1.110   .     S
C63    C64     1.526   .     S
C63    H469    1.111   .     S
C64    H235    1.111   .     S
C64    H471    1.111   .     S
C64    H472    1.110   .     S
C65    O550    1.414   .     S
C65    H236    1.116   .     S
C65    H237    1.112   .     S
C65    C66     1.528   .     S
C66    H238    1.112   .     S
C66    H239    1.112   .     S
C66    C1243   1.525   .     S
C67    H242    1.111   .     S
C67    H241    1.110   .     S
C67    C1242   1.525   1_545 S
C67    H1416   1.111   1_545 S
C68    H300    1.085   .     S
C68    C159    1.393   .     A
C68    C1344   1.398   .     S
C69    H244    1.115   .     S
C69    C70     1.528   .     S
C69    H243    1.114   .     S
C69    O551    1.411   .     S
C70    H247    1.112   .     S
C70    C71     1.526   .     S
C70    H246    1.111   .     S
C71    H249    1.111   .     S
C71    H248    1.111   .     S
C71    H250    1.111   .     S
C72    C73     1.528   .     S
C72    O552    1.414   .     S
C72    H251    1.117   .     S
C72    H252    1.109   .     S
C73    H254    1.112   .     S
C73    H253    1.111   .     S
C73    C662    1.526   .     S
C74    H258    1.110   .     S
C74    H257    1.111   .     S
C74    C661    1.526   1_455 S
C74    H843    1.111   1_455 S
C75    O553    1.419   .     S
C75    H259    1.110   .     S
C75    C76     1.533   .     S
C75    H260    1.117   .     S
C76    H262    1.110   .     S
C76    H261    1.111   .     S
C76    C77     1.526   .     S
C77    H263    1.111   .     S
C77    H265    1.111   .     S
C77    H264    1.110   .     S
C78    H266    1.116   .     S
C78    C80     1.527   .     S
C78    O554    1.413   .     S
C78    H268    1.113   .     S
C79    C132    1.446   .     S
C79    C1193   1.416   .     S
C80    H269    1.112   .     S
C80    H270    1.112   .     S
C80    C81     1.524   .     S
C81    H272    1.110   .     S
C81    H273    1.110   .     S
C81    H271    1.111   .     S
C82    H274    1.110   .     S
C82    H275    1.117   .     S
C82    C83     1.534   .     S
C82    O556    1.419   .     S
C83    H277    1.110   .     S
C83    C84     1.526   .     S
C83    H276    1.111   .     S
C84    H279    1.111   .     S
C84    H281    1.111   .     S
C84    H280    1.110   .     S
C85    H283    1.111   .     S
C85    C86     1.546   .     S
C85    O557    1.423   .     S
C85    H282    1.106   .     S
C86    H284    1.112   .     S
C86    C87     1.527   .     S
C86    H285    1.110   .     S
C87    H287    1.110   .     S
C87    H288    1.111   .     S
C87    H286    1.107   .     S
C88    H290    1.115   .     S
C88    C89     1.528   .     S
C88    O558    1.411   .     S
C88    H291    1.115   .     S
C89    C91     1.526   .     S
C89    H293    1.112   .     S
C89    H292    1.111   .     S
C90    C133    1.445   .     S
C90    C112    1.392   .     A
C90    C1194   1.414   .     S
C91    H296    1.111   .     S
C91    H294    1.111   .     S
C91    H295    1.111   .     S
C92    H297    1.115   .     S
C92    O559    1.413   .     S
C92    H298    1.113   .     S
C92    C93     1.527   .     S
C93    H299    1.111   .     S
C93    C94     1.524   .     S
C93    H301    1.112   .     S
C94    H302    1.111   .     S
C94    H303    1.110   .     S
C94    H304    1.108   .     S
C95    O560    1.419   .     S
C95    H305    1.110   .     S
C95    C96     1.533   .     S
C95    H306    1.117   .     S
C96    H307    1.111   .     S
C96    C97     1.526   .     S
C96    H308    1.110   .     S
C97    H310    1.110   .     S
C97    H312    1.111   .     S
C97    H309    1.111   .     S
C98    H314    1.117   .     S
C98    C99     1.531   .     S
C98    O561    1.420   .     S
C98    H313    1.112   .     S
C99    H316    1.110   .     S
C99    C100    1.527   .     S
C99    H315    1.112   .     S
C100   H317    1.111   .     S
C100   H319    1.111   .     S
C100   H318    1.111   .     S
C101   C156    1.394   .     A
C101   C134    1.445   .     S
C101   C607    1.412   1_455 S
C102   H320    1.115   .     S
C102   C103    1.528   .     S
C102   H321    1.115   .     S
C102   O562    1.411   .     S
C103   H324    1.112   .     S
C103   C104    1.526   .     S
C103   H323    1.111   .     S
C104   H325    1.111   .     S
C104   H327    1.111   .     S
C104   H326    1.111   .     S
C105   H329    1.117   .     S
C105   O563    1.419   .     S
C105   C106    1.532   .     S
C105   H328    1.111   .     S
C106   C107    1.526   .     S
C106   H331    1.108   .     S
C106   H330    1.112   .     S
C107   H334    1.110   .     S
C107   H332    1.111   .     S
C107   H335    1.110   .     S
C108   C109    1.528   .     S
C108   H337    1.115   .     S
C108   H336    1.115   .     S
C108   O564    1.412   .     S
C109   H338    1.111   .     S
C109   C110    1.526   .     S
C109   H339    1.111   .     S
C110   H341    1.111   .     S
C110   H342    1.110   .     S
C110   H340    1.111   .     S
C111   O565    1.412   .     S
C111   H343    1.115   .     S
C111   H346    1.115   .     S
C111   C114    1.527   .     S
C112   H344    1.085   .     S
C112   C1337   1.395   .     S
C113   C167    1.393   .     A
C113   C136    1.445   .     S
C114   C115    1.526   .     S
C114   H347    1.111   .     S
C114   H348    1.112   .     S
C115   H349    1.111   .     S
C115   H350    1.110   .     S
C115   H351    1.110   .     S
C116   H352    1.111   .     S
C116   O567    1.417   .     S
C116   C117    1.532   .     S
C116   H353    1.117   .     S
C117   C118    1.526   .     S
C117   H355    1.111   .     S
C117   H354    1.112   .     S
C118   H357    1.111   .     S
C118   H358    1.110   .     S
C118   H359    1.111   .     S
C119   O568    1.419   .     S
C119   H361    1.117   .     S
C119   C120    1.532   .     S
C119   H360    1.110   .     S
C120   H363    1.107   .     S
C120   C121    1.526   .     S
C120   H362    1.112   .     S
C121   H365    1.110   .     S
C121   H364    1.111   .     S
C121   H366    1.110   .     S
C122   H369    1.115   .     S
C122   O569    1.411   .     S
C122   H368    1.115   .     S
C122   C123    1.528   .     S
C123   H371    1.111   .     S
C123   C125    1.525   .     S
C123   H370    1.111   .     S
C124   C137    1.446   .     S
C124   C178    1.393   .     A
C125   H373    1.111   .     S
C125   H374    1.110   .     S
C125   H372    1.111   .     S
C126   C127    1.527   .     S
C126   O570    1.412   .     S
C126   H376    1.115   .     S
C126   H375    1.115   .     S
C127   H379    1.112   .     S
C127   C128    1.526   .     S
C127   H377    1.111   .     S
C128   H381    1.110   .     S
C128   H382    1.110   .     S
C128   H380    1.111   .     S
C129   O571    1.417   .     S
C129   C130    1.532   .     S
C129   H384    1.117   .     S
C129   H383    1.111   .     S
C130   H386    1.111   .     S
C130   C131    1.526   .     S
C130   H385    1.112   .     S
C131   H388    1.110   .     S
C131   H387    1.111   .     S
C131   H390    1.111   .     S
C132   N473    1.157   .     T
C133   N481    1.157   .     T
C134   N482    1.157   .     T
C135   C138    1.445   .     S
C135   C189    1.393   .     A
C136   N483    1.157   .     T
C137   N484    1.157   .     T
C138   N485    1.157   .     T
C139   N486    1.157   .     T
C139   C146    1.446   .     S
C140   N487    1.157   .     T
C140   C150    1.445   .     S
C141   N488    1.157   .     T
C141   C151    1.446   .     S
C142   C152    1.445   .     S
C142   N474    1.157   .     T
C143   N475    1.157   .     T
C143   C153    1.445   .     S
C144   N476    1.157   .     T
C144   C154    1.446   .     S
C145   N477    1.157   .     T
C145   C155    1.445   .     S
C146   C200    1.394   .     A
C147   N478    1.157   .     T
C147   C157    1.445   .     S
C148   C158    1.445   .     S
C148   N479    1.157   .     T
C149   N480    1.157   .     T
C149   C159    1.446   .     S
C150   C211    1.393   .     A
C150   C608    1.412   .     S
C151   C222    1.393   .     A
C153   C1199   1.409   .     S
C155   C609    1.411   1_455 S
C156   H396    1.085   .     S
C156   C750    1.397   1_455 S
C157   C610    1.413   .     S
C159   C1201   1.413   .     S
C160   C178    1.394   .     A
C160   C1177   1.394   1_545 S
C160   C161    1.450   1_554 S
C161   C189    1.394   .     A
C161   C160    1.450   1_556 S
C161   C1288   1.395   1_545 S
C162   C200    1.397   .     A
C162   C744    1.397   .     S
C162   C163    1.457   1_554 S
C163   C211    1.397   .     A
C163   C162    1.457   1_556 S
C163   C755    1.397   .     S
C164   C165    1.457   .     S
C164   C810    1.397   1_455 S
C165   C634    1.397   1_455 S
C166   C168    1.461   .     S
C166   C1189   1.400   1_545 S
C167   H407    1.085   .     S
C167   C751    1.397   1_455 S
C168   C1244   1.398   1_545 S
C169   O572    1.281   .     A
C169   O1709   1.281   1_545 S
C170   O1666   1.279   1_545 A
C170   O544    1.279   .     S
C171   O555    1.280   .     A
C171   O1079   1.280   1_455 S
C172   O566    1.279   .     A
C172   O1080   1.280   .     S
C173   O497    1.281   .     A
C173   O493    1.280   .     A
C174   O1086   1.281   .     A
C174   O1082   1.281   .     S
C175   O495    1.280   .     S
C175   O499    1.281   .     S
C176   O496    1.281   .     A
C176   O501    1.282   .     A
C177   O530    1.277   .     A
C177   C232    1.453   .     S
C177   O502    1.277   .     A
C178   H418    1.085   .     S
C179   O531    1.282   .     A
C179   O503    1.278   .     A
C180   O528    1.280   .     A
C180   O504    1.280   .     A
C181   O505    1.279   .     A
C181   O529    1.279   .     A
C182   O535    1.278   .     A
C182   O506    1.276   .     A
C183   O507    1.277   .     A
C183   O536    1.283   .     A
C184   O508    1.280   .     A
C184   C230    1.463   .     S
C184   O532    1.280   .     A
C185   O509    1.280   .     A
C185   O534    1.279   .     A
C185   C231    1.461   .     S
C186   O521    1.277   .     A
C186   O510    1.277   .     A
C187   O523    1.277   .     A
C187   O512    1.277   .     A
C188   O513    1.278   .     A
C188   O519    1.278   .     A
C189   H429    1.085   .     S
C190   O520    1.280   .     A
C190   O514    1.280   .     A
C191   O526    1.277   .     A
C191   O515    1.279   .     A
C192   O516    1.277   .     A
C192   O527    1.278   .     A
C193   O517    1.277   .     A
C193   O524    1.278   .     A
C194   O525    1.280   .     A
C194   O518    1.281   .     A
C195   O537    1.384   .     S
C195   C212    1.391   .     A
C196   C210    1.396   .     A
C196   O538    1.384   .     S
C197   O539    1.386   .     S
C197   C209    1.393   .     A
C198   O540    1.384   .     S
C198   C208    1.393   .     A
C199   C207    1.391   .     A
C199   O541    1.384   .     S
C200   H440    1.085   .     S
C201   O542    1.386   .     S
C201   C206    1.396   .     A
C202   O543    1.386   .     S
C202   C205    1.394   .     A
C203   O545    1.386   .     S
C203   C204    1.394   .     A
C204   O546    1.384   .     S
C205   O547    1.386   .     S
C206   O548    1.385   .     S
C207   O549    1.386   .     S
C208   O550    1.385   .     S
C209   O551    1.384   .     S
C209   C232    1.406   .     A
C210   C231    1.411   .     A
C210   O552    1.386   .     S
C211   H451    1.085   .     S
C212   O553    1.386   .     S
C212   C230    1.416   .     A
C213   C229    1.395   .     A
C213   O554    1.384   .     S
C213   C231    1.411   .     A
C214   C230    1.415   .     A
C214   O556    1.386   .     S
C214   C228    1.391   .     A
C215   C227    1.404   .     A
C215   O557    1.394   .     S
C216   O558    1.383   .     S
C216   C226    1.393   .     A
C216   C232    1.405   .     A
C217   O559    1.384   .     S
C217   C225    1.397   .     A
C218   O560    1.386   .     S
C218   C224    1.391   .     A
C219   O561    1.387   .     S
C219   C223    1.390   .     A
C220   O562    1.383   .     S
C220   C221    1.394   .     A
C221   O563    1.386   .     S
C222   H462    1.085   .     S
C222   C752    1.397   .     S
C223   O564    1.384   .     S
C224   O565    1.384   .     S
C225   O567    1.387   .     S
C226   O568    1.386   .     S
C227   O569    1.383   .     S
C228   O570    1.384   .     S
C229   O571    1.387   .     S
H240   C1243   1.111   .     S
H255   C662    1.111   .     S
H345   C1203   1.112   .     S
H416   C1216   1.112   1_545 S
H448   C1230   1.111   1_545 S
H465   C649    1.110   .     S
H466   C649    1.111   .     S
O489   Zn584   1.945   .     S
O489   Zn576   1.946   .     S
O489   Zn573   1.945   .     S
O489   Zn1756  1.946   1_545 S
O490   C1346   1.279   .     A
O490   Zn575   1.932   .     S
O491   Zn578   1.932   .     S
O491   C759    1.280   .     S
O492   Zn577   1.932   .     S
O492   C760    1.280   1_455 S
O493   Zn587   1.932   .     S
O494   C762    1.281   1_455 S
O494   Zn586   1.932   .     S
O495   Zn581   1.932   .     S
O496   Zn573   1.932   .     S
O497   Zn583   1.932   .     S
O498   C762    1.281   1_455 A
O498   Zn582   1.932   .     S
O499   Zn585   1.932   .     S
O500   Zn1751  1.946   1_545 S
O500   Zn579   1.946   .     S
O500   Zn581   1.945   .     S
O500   Zn585   1.945   .     S
O501   Zn584   1.932   .     S
O502   Zn576   1.940   .     S
O503   Zn575   1.940   .     S
O504   Zn578   1.940   .     S
O505   Zn577   1.940   .     S
O506   Zn580   1.940   .     S
O507   Zn579   1.940   .     S
O508   Zn574   1.940   .     S
O509   Zn588   1.940   .     S
O510   Zn575   1.940   .     S
O511   Zn582   1.946   .     S
O511   Zn574   1.945   .     S
O511   Zn1166  1.945   1_455 S
O511   Zn586   1.946   .     S
O512   Zn576   1.940   .     S
O513   Zn588   1.941   .     S
O514   Zn574   1.941   .     S
O515   Zn579   1.940   .     S
O516   Zn580   1.940   .     S
O517   Zn577   1.941   .     S
O518   Zn578   1.941   .     S
O519   Zn1171  1.940   .     S
O520   Zn582   1.940   .     S
O521   Zn1761  1.940   .     S
O522   Zn587   1.946   .     S
O522   Zn577   1.945   .     S
O522   Zn583   1.946   .     S
O522   Zn1176  1.945   1_455 S
O523   Zn584   1.940   .     S
O524   Zn587   1.940   .     S
O525   Zn1174  1.940   .     S
O526   Zn581   1.940   .     S
O527   Zn1749  1.940   .     S
O528   Zn1170  1.940   .     S
O529   Zn583   1.940   .     S
O530   Zn573   1.941   .     S
O531   Zn1757  1.941   .     S
O532   Zn586   1.940   .     S
O533   Zn580   1.932   .     S
O533   C1345   1.281   .     S
O534   Zn1175  1.940   .     S
O535   Zn1760  1.941   .     S
O536   Zn585   1.941   .     S
O544   Zn579   1.932   .     S
O555   Zn574   1.932   .     S
O566   Zn588   1.932   .     S
O572   Zn576   1.932   .     S
Zn573  O1703   1.940   1_545 S
Zn575  O1676   1.946   .     S
Zn578  O1099   1.945   .     S
Zn580  O1665   1.946   .     S
Zn581  O1707   1.941   1_545 S
Zn582  O1116   1.940   1_455 S
Zn583  O1107   1.940   1_455 S
Zn584  O1711   1.941   1_545 S
Zn585  O1697   1.940   1_545 S
Zn586  O1113   1.940   1_455 S
Zn587  O1122   1.940   1_455 S
Zn588  O1110   1.945   .     S
C589   C667    1.392   .     A
C589   H821    1.085   .     S
C589   C1924   1.394   .     S
C590   C740    1.394   .     A
C590   C753    1.397   .     A
C590   H822    1.085   .     S
C591   C803    1.416   .     A
C591   C796    1.411   .     A
C591   C767    1.464   .     S
C592   C806    1.416   .     A
C592   C768    1.463   .     S
C592   C795    1.416   .     A
C593   C805    1.410   .     A
C593   C794    1.410   .     A
C593   C769    1.462   .     S
C594   C793    1.406   .     A
C594   C770    1.453   .     S
C594   C808    1.406   .     A
C595   C792    1.412   .     A
C595   C771    1.463   .     S
C595   C807    1.415   .     A
C596   C811    1.409   .     A
C596   C791    1.411   .     A
C596   C781    1.457   .     S
C597   C790    1.416   .     A
C597   C809    1.416   .     A
C597   C782    1.465   .     S
C598   C789    1.410   .     A
C598   C774    1.456   .     S
C598   C813    1.409   .     A
C599   C787    1.406   .     A
C599   C812    1.407   .     A
C599   C775    1.454   .     S
C600   C815    1.409   .     A
C600   C786    1.407   .     A
C600   C776    1.457   .     S
C601   H833    1.085   .     S
C601   C741    1.393   .     A
C601   C1930   1.400   .     S
C602   C785    1.417   .     A
C602   C778    1.465   .     S
C602   C814    1.416   .     A
C603   C779    1.456   .     S
C603   C784    1.410   .     A
C603   C817    1.409   .     A
C604   C816    1.407   .     A
C604   C783    1.407   .     A
C604   C780    1.454   .     S
C605   C712    1.416   .     A
C605   C764    1.466   .     S
C605   C1843   1.416   1_545 S
C606   C763    1.463   .     S
C606   C723    1.414   .     A
C606   C1854   1.414   1_545 S
C607   C762    1.462   .     S
C607   C734    1.413   .     A
C607   C101    1.412   1_655 S
C608   C701    1.411   .     A
C608   C761    1.460   .     S
C609   C760    1.459   .     S
C609   C739    1.411   .     A
C609   C155    1.411   1_655 S
C610   C759    1.462   .     S
C610   C740    1.413   .     A
C611   C746    1.409   .     A
C611   C1917   1.409   1_545 S
C611   C758    1.455   .     S
C612   C742    1.393   .     A
C612   H844    1.085   .     S
C612   C756    1.398   .     A
C613   C742    1.413   .     A
C613   C757    1.464   .     S
C613   C1923   1.413   1_545 S
C614   H899    1.115   .     S
C614   H910    1.115   .     S
C614   O1125   1.412   .     S
C614   C1791   1.527   .     S
C615   H921    1.111   .     S
C615   C616    1.526   .     S
C615   C1790   1.527   1_545 S
C615   H2109   1.112   1_545 S
C616   H944    1.111   .     S
C616   H966    1.110   .     S
C616   H955    1.110   .     S
C617   C618    1.529   .     S
C617   O1126   1.411   .     S
C617   H977    1.115   .     S
C617   H979    1.115   .     S
C618   H981    1.112   .     S
C618   C619    1.526   .     S
C618   H980    1.111   .     S
C619   H985    1.111   .     S
C619   H982    1.111   .     S
C619   H983    1.111   .     S
C620   H987    1.117   .     S
C620   O1127   1.419   .     S
C620   H986    1.110   .     S
C620   C621    1.532   .     S
C621   H988    1.112   .     S
C621   H989    1.107   .     S
C621   C622    1.526   .     S
C622   H991    1.110   .     S
C622   H992    1.110   .     S
C622   H990    1.111   .     S
C623   H855    1.085   .     S
C623   C743    1.393   .     A
C623   C752    1.397   .     A
C624   H993    1.115   .     S
C624   O1128   1.411   .     S
C624   C625    1.528   .     S
C624   H994    1.115   .     S
C625   H996    1.111   .     S
C625   C626    1.525   .     S
C625   H997    1.111   .     S
C626   H1000   1.110   .     S
C626   H998    1.111   .     S
C626   H999    1.111   .     S
C627   H1002   1.115   .     S
C627   O1129   1.412   .     S
C627   H1001   1.115   .     S
C627   C1804   1.527   1_545 S
C628   H1003   1.111   .     S
C628   C629    1.526   .     S
C628   C1803   1.527   .     S
C628   H2180   1.112   .     S
C629   H1005   1.111   .     S
C629   H1007   1.110   .     S
C629   H1008   1.110   .     S
C630   O1130   1.417   .     S
C630   H1010   1.117   .     S
C630   C631    1.531   .     S
C630   H1009   1.111   .     S
C631   C632    1.526   .     S
C631   H1012   1.111   .     S
C631   H1011   1.112   .     S
C632   H1015   1.111   .     S
C632   H1014   1.110   .     S
C632   H1013   1.111   .     S
C633   O1131   1.419   .     S
C633   H1018   1.117   .     S
C633   C635    1.532   .     S
C633   H1016   1.110   .     S
C634   H866    1.085   .     S
C634   C745    1.394   .     A
C634   C165    1.397   1_655 S
C635   C636    1.526   .     S
C635   H1019   1.112   .     S
C635   H1020   1.108   .     S
C636   H1021   1.111   .     S
C636   H1022   1.110   .     S
C636   H1023   1.110   .     S
C637   H1025   1.117   .     S
C637   O1133   1.417   .     S
C637   C638    1.530   .     S
C637   H1024   1.111   .     S
C638   H1027   1.110   .     S
C638   C639    1.526   .     S
C638   H1026   1.112   .     S
C639   H1031   1.111   .     S
C639   H1029   1.111   .     S
C639   H1030   1.110   .     S
C640   O1134   1.413   .     S
C640   C641    1.527   .     S
C640   H1033   1.111   .     S
C640   H1032   1.116   .     S
C641   H1035   1.112   .     S
C641   H1034   1.112   .     S
C641   C1818   1.525   1_545 S
C642   H1037   1.110   .     S
C642   H1038   1.111   .     S
C642   C1817   1.525   .     S
C642   H2212   1.111   .     S
C643   O1135   1.416   .     S
C643   C644    1.532   .     S
C643   H1041   1.115   .     S
C643   H1040   1.111   .     S
C644   C646    1.526   .     S
C644   H1043   1.111   .     S
C644   H1042   1.112   .     S
C645   C746    1.393   .     A
C645   C754    1.400   .     A
C645   H877    1.085   .     S
C646   H1044   1.111   .     S
C646   H1045   1.110   .     S
C646   H1046   1.111   .     S
C647   C648    1.528   .     S
C647   H1047   1.116   .     S
C647   H1048   1.110   .     S
C647   O1136   1.413   .     S
C648   H1049   1.111   .     S
C648   H1051   1.112   .     S
C648   C649    1.526   .     S
C649   H1052   1.111   .     S
C650   H1055   1.110   .     S
C650   C651    1.534   .     S
C650   H1056   1.117   .     S
C650   O1137   1.419   .     S
C651   H1058   1.110   .     S
C651   C652    1.526   .     S
C651   H1057   1.111   .     S
C652   H823    1.111   .     S
C652   H1059   1.111   .     S
C652   H1060   1.110   .     S
C653   O1138   1.414   .     S
C653   H824    1.116   .     S
C653   H825    1.112   .     S
C653   C654    1.528   .     S
C654   H826    1.112   .     S
C654   H827    1.112   .     S
C654   C1831   1.525   .     S
C655   H830    1.111   .     S
C655   H829    1.110   .     S
C655   C1830   1.525   1_545 S
C655   H2004   1.111   1_545 S
C656   H888    1.085   .     S
C656   C747    1.393   .     A
C656   C1932   1.398   .     S
C657   H832    1.115   .     S
C657   C658    1.528   .     S
C657   H831    1.114   .     S
C657   O1139   1.411   .     S
C658   H835    1.112   .     S
C658   C659    1.526   .     S
C658   H834    1.111   .     S
C659   H837    1.111   .     S
C659   H836    1.111   .     S
C659   H838    1.111   .     S
C660   C661    1.528   .     S
C660   O1140   1.414   .     S
C660   H839    1.117   .     S
C660   H840    1.109   .     S
C661   H842    1.112   .     S
C661   H841    1.111   .     S
C661   C74     1.526   1_655 S
C662   H846    1.110   .     S
C662   H845    1.111   .     S
C663   O1141   1.419   .     S
C663   H847    1.110   .     S
C663   C664    1.533   .     S
C663   H848    1.117   .     S
C664   H850    1.110   .     S
C664   H849    1.111   .     S
C664   C665    1.526   .     S
C665   H851    1.111   .     S
C665   H853    1.111   .     S
C665   H852    1.110   .     S
C666   H854    1.116   .     S
C666   C668    1.527   .     S
C666   O1142   1.413   .     S
C666   H856    1.113   .     S
C667   C720    1.446   .     S
C667   C1781   1.416   .     S
C668   H857    1.112   .     S
C668   H858    1.112   .     S
C668   C669    1.524   .     S
C669   H860    1.110   .     S
C669   H861    1.110   .     S
C669   H859    1.111   .     S
C670   H862    1.110   .     S
C670   H863    1.117   .     S
C670   C671    1.534   .     S
C670   O1144   1.419   .     S
C671   H865    1.110   .     S
C671   C672    1.526   .     S
C671   H864    1.111   .     S
C672   H867    1.111   .     S
C672   H869    1.111   .     S
C672   H868    1.110   .     S
C673   H871    1.111   .     S
C673   C674    1.546   .     S
C673   O1145   1.423   .     S
C673   H870    1.106   .     S
C674   H872    1.112   .     S
C674   C675    1.527   .     S
C674   H873    1.110   .     S
C675   H875    1.110   .     S
C675   H876    1.111   .     S
C675   H874    1.107   .     S
C676   H878    1.115   .     S
C676   C677    1.528   .     S
C676   O1146   1.411   .     S
C676   H879    1.115   .     S
C677   C679    1.526   .     S
C677   H881    1.112   .     S
C677   H880    1.111   .     S
C678   C721    1.445   .     S
C678   C700    1.392   .     A
C678   C1782   1.414   .     S
C679   H884    1.111   .     S
C679   H882    1.111   .     S
C679   H883    1.111   .     S
C680   H885    1.115   .     S
C680   O1147   1.413   .     S
C680   H886    1.113   .     S
C680   C681    1.527   .     S
C681   H887    1.111   .     S
C681   C682    1.524   .     S
C681   H889    1.112   .     S
C682   H890    1.111   .     S
C682   H891    1.110   .     S
C682   H892    1.108   .     S
C683   O1148   1.419   .     S
C683   H893    1.110   .     S
C683   C684    1.533   .     S
C683   H894    1.117   .     S
C684   H895    1.111   .     S
C684   C685    1.526   .     S
C684   H896    1.110   .     S
C685   H898    1.110   .     S
C685   H900    1.111   .     S
C685   H897    1.111   .     S
C686   H902    1.117   .     S
C686   C687    1.531   .     S
C686   O1149   1.420   .     S
C686   H901    1.112   .     S
C687   H904    1.110   .     S
C687   C688    1.527   .     S
C687   H903    1.112   .     S
C688   H905    1.111   .     S
C688   H907    1.111   .     S
C688   H906    1.111   .     S
C689   C744    1.394   .     A
C689   C722    1.445   .     S
C690   H908    1.115   .     S
C690   C691    1.528   .     S
C690   H909    1.115   .     S
C690   O1150   1.411   .     S
C691   H912    1.112   .     S
C691   C692    1.526   .     S
C691   H911    1.111   .     S
C692   H913    1.111   .     S
C692   H915    1.111   .     S
C692   H914    1.111   .     S
C693   H917    1.117   .     S
C693   O1151   1.419   .     S
C693   C694    1.532   .     S
C693   H916    1.111   .     S
C694   C695    1.526   .     S
C694   H919    1.108   .     S
C694   H918    1.112   .     S
C695   H922    1.110   .     S
C695   H920    1.111   .     S
C695   H923    1.110   .     S
C696   C697    1.528   .     S
C696   H925    1.115   .     S
C696   H924    1.115   .     S
C696   O1152   1.412   .     S
C697   H926    1.111   .     S
C697   C698    1.526   .     S
C697   H927    1.111   .     S
C698   H929    1.111   .     S
C698   H930    1.110   .     S
C698   H928    1.111   .     S
C699   O1153   1.412   .     S
C699   H931    1.115   .     S
C699   H934    1.115   .     S
C699   C702    1.527   .     S
C700   H932    1.085   .     S
C700   C1925   1.395   .     S
C701   C755    1.393   .     A
C701   C724    1.445   .     S
C702   C703    1.526   .     S
C702   H935    1.111   .     S
C702   H936    1.112   .     S
C703   H937    1.111   .     S
C703   H938    1.110   .     S
C703   H939    1.110   .     S
C704   H940    1.111   .     S
C704   O1155   1.417   .     S
C704   C705    1.532   .     S
C704   H941    1.117   .     S
C705   C706    1.526   .     S
C705   H943    1.111   .     S
C705   H942    1.112   .     S
C706   H945    1.111   .     S
C706   H946    1.110   .     S
C706   H947    1.111   .     S
C707   O1156   1.419   .     S
C707   H949    1.117   .     S
C707   C708    1.532   .     S
C707   H948    1.110   .     S
C708   H951    1.107   .     S
C708   C709    1.526   .     S
C708   H950    1.112   .     S
C709   H953    1.110   .     S
C709   H952    1.111   .     S
C709   H954    1.110   .     S
C710   H957    1.115   .     S
C710   O1157   1.411   .     S
C710   H956    1.115   .     S
C710   C711    1.528   .     S
C711   H959    1.111   .     S
C711   C713    1.525   .     S
C711   H958    1.111   .     S
C712   C725    1.446   .     S
C712   C766    1.393   .     A
C713   H961    1.111   .     S
C713   H962    1.110   .     S
C713   H960    1.111   .     S
C714   C715    1.527   .     S
C714   O1158   1.412   .     S
C714   H964    1.115   .     S
C714   H963    1.115   .     S
C715   H967    1.112   .     S
C715   C716    1.526   .     S
C715   H965    1.111   .     S
C716   H969    1.110   .     S
C716   H970    1.110   .     S
C716   H968    1.111   .     S
C717   O1159   1.417   .     S
C717   C718    1.532   .     S
C717   H972    1.117   .     S
C717   H971    1.111   .     S
C718   H974    1.111   .     S
C718   C719    1.526   .     S
C718   H973    1.112   .     S
C719   H976    1.110   .     S
C719   H975    1.111   .     S
C719   H978    1.111   .     S
C720   N1061   1.157   .     T
C721   N1069   1.157   .     T
C722   N1070   1.157   .     T
C723   C726    1.445   .     S
C723   C777    1.393   .     A
C724   N1071   1.157   .     T
C725   N1072   1.157   .     T
C726   N1073   1.157   .     T
C727   N1074   1.157   .     T
C727   C734    1.446   .     S
C728   N1075   1.157   .     T
C728   C738    1.445   .     S
C729   N1076   1.157   .     T
C729   C739    1.446   .     S
C730   C740    1.445   .     S
C730   N1062   1.157   .     T
C731   N1063   1.157   .     T
C731   C741    1.445   .     S
C732   N1064   1.157   .     T
C732   C742    1.446   .     S
C733   N1065   1.157   .     T
C733   C743    1.445   .     S
C734   C788    1.394   .     A
C735   N1066   1.157   .     T
C735   C745    1.445   .     S
C736   C746    1.445   .     S
C736   N1067   1.157   .     T
C737   N1068   1.157   .     T
C737   C747    1.446   .     S
C738   C799    1.393   .     A
C738   C20     1.412   1_655 S
C739   C810    1.393   .     A
C741   C1787   1.409   .     S
C744   H984    1.085   .     S
C745   C22     1.413   1_655 S
C747   C1789   1.413   .     S
C748   C766    1.394   .     A
C748   C1765   1.394   1_545 S
C748   C749    1.450   1_554 S
C749   C777    1.394   .     A
C749   C748    1.450   1_556 S
C749   C1876   1.395   1_545 S
C750   C788    1.397   .     A
C750   C156    1.397   1_655 S
C750   C751    1.457   1_554 S
C751   C799    1.397   .     A
C751   C750    1.457   1_556 S
C751   C167    1.397   1_655 S
C752   C753    1.457   .     S
C754   C756    1.461   .     S
C754   C1777   1.400   1_545 S
C755   H995    1.085   .     S
C756   C1832   1.398   1_545 S
C757   O1160   1.281   .     A
C757   O2297   1.281   1_545 S
C758   O2254   1.279   1_545 A
C758   O1132   1.279   .     S
C759   O1143   1.280   .     A
C760   O1154   1.279   .     A
C760   O492    1.280   1_655 S
C761   O1085   1.281   .     A
C761   O1081   1.280   .     A
C762   O498    1.281   1_655 A
C762   O494    1.281   1_655 S
C763   O1083   1.280   .     S
C763   O1087   1.281   .     S
C764   O1084   1.281   .     A
C764   O1089   1.282   .     A
C765   O1118   1.277   .     A
C765   C820    1.453   .     S
C765   O1090   1.277   .     A
C766   H1006   1.085   .     S
C767   O1119   1.282   .     A
C767   O1091   1.278   .     A
C768   O1116   1.280   .     A
C768   O1092   1.280   .     A
C769   O1093   1.279   .     A
C769   O1117   1.279   .     A
C770   O1123   1.278   .     A
C770   O1094   1.276   .     A
C771   O1095   1.277   .     A
C771   O1124   1.283   .     A
C772   O1096   1.280   .     A
C772   C818    1.463   .     S
C772   O1120   1.280   .     A
C773   O1097   1.280   .     A
C773   O1122   1.279   .     A
C773   C819    1.461   .     S
C774   O1109   1.277   .     A
C774   O1098   1.277   .     A
C775   O1111   1.277   .     A
C775   O1100   1.277   .     A
C776   O1101   1.278   .     A
C776   O1107   1.278   .     A
C777   H1017   1.085   .     S
C778   O1108   1.280   .     A
C778   O1102   1.280   .     A
C779   O1114   1.277   .     A
C779   O1103   1.279   .     A
C780   O1104   1.277   .     A
C780   O1115   1.278   .     A
C781   O1105   1.277   .     A
C781   O1112   1.278   .     A
C782   O1113   1.280   .     A
C782   O1106   1.281   .     A
C783   O1125   1.384   .     S
C783   C800    1.391   .     A
C784   C798    1.396   .     A
C784   O1126   1.384   .     S
C785   O1127   1.386   .     S
C785   C797    1.393   .     A
C786   O1128   1.384   .     S
C786   C796    1.393   .     A
C787   C795    1.391   .     A
C787   O1129   1.384   .     S
C788   H1028   1.085   .     S
C789   O1130   1.386   .     S
C789   C794    1.396   .     A
C790   O1131   1.386   .     S
C790   C793    1.394   .     A
C791   O1133   1.386   .     S
C791   C792    1.394   .     A
C792   O1134   1.384   .     S
C793   O1135   1.386   .     S
C794   O1136   1.385   .     S
C795   O1137   1.386   .     S
C796   O1138   1.385   .     S
C797   O1139   1.384   .     S
C797   C820    1.406   .     A
C798   C819    1.411   .     A
C798   O1140   1.386   .     S
C799   H1039   1.085   .     S
C800   O1141   1.386   .     S
C800   C818    1.416   .     A
C801   C817    1.395   .     A
C801   O1142   1.384   .     S
C801   C819    1.411   .     A
C802   C818    1.415   .     A
C802   O1144   1.386   .     S
C802   C816    1.391   .     A
C803   C815    1.404   .     A
C803   O1145   1.394   .     S
C804   O1146   1.383   .     S
C804   C814    1.393   .     A
C804   C820    1.405   .     A
C805   O1147   1.384   .     S
C805   C813    1.397   .     A
C806   O1148   1.386   .     S
C806   C812    1.391   .     A
C807   O1149   1.387   .     S
C807   C811    1.390   .     A
C808   O1150   1.383   .     S
C808   C809    1.394   .     A
C809   O1151   1.386   .     S
C810   H1050   1.085   .     S
C810   C164    1.397   1_655 S
C811   O1152   1.384   .     S
C812   O1153   1.384   .     S
C813   O1155   1.387   .     S
C814   O1156   1.386   .     S
C815   O1157   1.383   .     S
C816   O1158   1.384   .     S
C817   O1159   1.387   .     S
H828   C1831   1.111   .     S
H843   C74     1.111   1_655 S
H933   C1791   1.112   .     S
H1004  C1804   1.112   1_545 S
H1036  C1818   1.111   1_545 S
H1053  C61     1.110   1_655 S
H1054  C61     1.111   1_655 S
O1077  Zn1172  1.945   .     S
O1077  Zn1164  1.946   .     S
O1077  Zn1161  1.945   .     S
O1077  Zn2344  1.946   1_545 S
O1078  C1934   1.279   .     A
O1078  Zn1163  1.932   .     S
O1079  Zn1166  1.932   .     S
O1079  C171    1.280   1_655 S
O1080  Zn1165  1.932   .     S
O1081  Zn1175  1.932   .     S
O1082  Zn1174  1.932   .     S
O1083  Zn1169  1.932   .     S
O1084  Zn1161  1.932   .     S
O1085  Zn1171  1.932   .     S
O1086  Zn1170  1.932   .     S
O1087  Zn1173  1.932   .     S
O1088  Zn2339  1.946   1_545 S
O1088  Zn1167  1.946   .     S
O1088  Zn1169  1.945   .     S
O1088  Zn1173  1.945   .     S
O1089  Zn1172  1.932   .     S
O1090  Zn1164  1.940   .     S
O1091  Zn1163  1.940   .     S
O1092  Zn1166  1.940   .     S
O1093  Zn1165  1.940   .     S
O1094  Zn1168  1.940   .     S
O1095  Zn1167  1.940   .     S
O1096  Zn1162  1.940   .     S
O1097  Zn1176  1.940   .     S
O1098  Zn1163  1.940   .     S
O1099  Zn1170  1.946   .     S
O1099  Zn1162  1.945   .     S
O1099  Zn1174  1.946   .     S
O1100  Zn1164  1.940   .     S
O1101  Zn1176  1.941   .     S
O1102  Zn1162  1.941   .     S
O1103  Zn1167  1.940   .     S
O1104  Zn1168  1.940   .     S
O1105  Zn1165  1.941   .     S
O1106  Zn1166  1.941   .     S
O1107  Zn583   1.940   1_655 S
O1108  Zn1170  1.940   .     S
O1109  Zn2349  1.940   .     S
O1110  Zn1175  1.946   .     S
O1110  Zn1165  1.945   .     S
O1110  Zn1171  1.946   .     S
O1111  Zn1172  1.940   .     S
O1112  Zn1175  1.940   .     S
O1113  Zn586   1.940   1_655 S
O1114  Zn1169  1.940   .     S
O1115  Zn2337  1.940   .     S
O1116  Zn582   1.940   1_655 S
O1117  Zn1171  1.940   .     S
O1118  Zn1161  1.941   .     S
O1119  Zn2345  1.941   .     S
O1120  Zn1174  1.940   .     S
O1121  Zn1168  1.932   .     S
O1121  C1933   1.281   .     S
O1122  Zn587   1.940   1_655 S
O1123  Zn2348  1.941   .     S
O1124  Zn1173  1.941   .     S
O1132  Zn1167  1.932   .     S
O1143  Zn1162  1.932   .     S
O1154  Zn1176  1.932   .     S
O1160  Zn1164  1.932   .     S
Zn1161 O2291   1.940   1_545 S
Zn1163 O2264   1.946   .     S
Zn1166 O511    1.945   1_655 S
Zn1168 O2253   1.946   .     S
Zn1169 O2295   1.941   1_545 S
Zn1172 O2299   1.941   1_545 S
Zn1173 O2285   1.940   1_545 S
Zn1176 O522    1.945   1_655 S
C1177  C1255   1.392   .     A
C1177  H1409   1.085   .     S
C1177  C160    1.394   1_565 S
C1178  C1328   1.394   .     A
C1178  C1341   1.397   .     A
C1178  H1410   1.085   .     S
C1179  C1391   1.416   .     A
C1179  C1384   1.411   .     A
C1179  C1355   1.464   .     S
C1180  C1394   1.416   .     A
C1180  C1356   1.463   .     S
C1180  C1383   1.416   .     A
C1181  C1393   1.410   .     A
C1181  C1382   1.410   .     A
C1181  C1357   1.462   .     S
C1182  C1381   1.406   .     A
C1182  C1358   1.453   .     S
C1182  C1396   1.406   .     A
C1183  C1380   1.412   .     A
C1183  C1359   1.463   .     S
C1183  C1395   1.415   .     A
C1184  C1399   1.409   .     A
C1184  C1379   1.411   .     A
C1184  C1369   1.457   .     S
C1185  C1378   1.416   .     A
C1185  C1397   1.416   .     A
C1185  C1370   1.465   .     S
C1186  C1377   1.410   .     A
C1186  C1362   1.456   .     S
C1186  C1401   1.409   .     A
C1187  C1375   1.406   .     A
C1187  C1400   1.407   .     A
C1187  C1363   1.454   .     S
C1188  C1403   1.409   .     A
C1188  C1374   1.407   .     A
C1188  C1364   1.457   .     S
C1189  H1421   1.085   .     S
C1189  C1329   1.393   .     A
C1189  C166    1.400   1_565 S
C1190  C1373   1.417   .     A
C1190  C1366   1.465   .     S
C1190  C1402   1.416   .     A
C1191  C1367   1.456   .     S
C1191  C1372   1.410   .     A
C1191  C1405   1.409   .     A
C1192  C1404   1.407   .     A
C1192  C1371   1.407   .     A
C1192  C1368   1.454   .     S
C1193  C1300   1.416   .     A
C1193  C1352   1.466   .     S
C1194  C1351   1.463   .     S
C1194  C1311   1.414   .     A
C1195  C1350   1.462   .     S
C1195  C1322   1.413   .     A
C1195  C1865   1.412   .     S
C1196  C1289   1.411   .     A
C1196  C1349   1.460   .     S
C1196  C1914   1.412   1_455 S
C1197  C1348   1.459   .     S
C1197  C1327   1.411   .     A
C1197  C1919   1.411   .     S
C1198  C1347   1.462   .     S
C1198  C1328   1.413   .     A
C1198  C1921   1.413   1_455 S
C1199  C1334   1.409   .     A
C1199  C1346   1.455   .     S
C1200  C1330   1.393   .     A
C1200  H1432   1.085   .     S
C1200  C1344   1.398   .     A
C1201  C1330   1.413   .     A
C1201  C1345   1.464   .     S
C1202  H1487   1.115   .     S
C1202  H1498   1.115   .     S
C1202  O1713   1.412   .     S
C1202  C27     1.527   1_565 S
C1203  H1509   1.111   .     S
C1203  C1204   1.526   .     S
C1204  H1532   1.111   .     S
C1204  H1554   1.110   .     S
C1204  H1543   1.110   .     S
C1205  C1206   1.529   .     S
C1205  O1714   1.411   .     S
C1205  H1565   1.115   .     S
C1205  H1567   1.115   .     S
C1206  H1569   1.112   .     S
C1206  C1207   1.526   .     S
C1206  H1568   1.111   .     S
C1207  H1573   1.111   .     S
C1207  H1570   1.111   .     S
C1207  H1571   1.111   .     S
C1208  H1575   1.117   .     S
C1208  O1715   1.419   .     S
C1208  H1574   1.110   .     S
C1208  C1209   1.532   .     S
C1209  H1576   1.112   .     S
C1209  H1577   1.107   .     S
C1209  C1210   1.526   .     S
C1210  H1579   1.110   .     S
C1210  H1580   1.110   .     S
C1210  H1578   1.111   .     S
C1211  H1443   1.085   .     S
C1211  C1331   1.393   .     A
C1211  C1340   1.397   .     A
C1212  H1581   1.115   .     S
C1212  O1716   1.411   .     S
C1212  C1213   1.528   .     S
C1212  H1582   1.115   .     S
C1213  H1584   1.111   .     S
C1213  C1214   1.525   .     S
C1213  H1585   1.111   .     S
C1214  H1588   1.110   .     S
C1214  H1586   1.111   .     S
C1214  H1587   1.111   .     S
C1215  H1590   1.115   .     S
C1215  O1717   1.412   .     S
C1215  H1589   1.115   .     S
C1216  H1591   1.111   .     S
C1216  C1217   1.526   .     S
C1216  C39     1.527   1_565 S
C1216  H416    1.112   1_565 S
C1217  H1593   1.111   .     S
C1217  H1595   1.110   .     S
C1217  H1596   1.110   .     S
C1218  O1718   1.417   .     S
C1218  H1598   1.117   .     S
C1218  C1219   1.531   .     S
C1218  H1597   1.111   .     S
C1219  C1220   1.526   .     S
C1219  H1600   1.111   .     S
C1219  H1599   1.112   .     S
C1220  H1603   1.111   .     S
C1220  H1602   1.110   .     S
C1220  H1601   1.111   .     S
C1221  O1719   1.419   .     S
C1221  H1606   1.117   .     S
C1221  C1223   1.532   .     S
C1221  H1604   1.110   .     S
C1222  H1454   1.085   .     S
C1222  C1333   1.394   .     A
C1222  C1929   1.397   .     S
C1223  C1224   1.526   .     S
C1223  H1607   1.112   .     S
C1223  H1608   1.108   .     S
C1224  H1609   1.111   .     S
C1224  H1610   1.110   .     S
C1224  H1611   1.110   .     S
C1225  H1613   1.117   .     S
C1225  O1721   1.417   .     S
C1225  C1226   1.530   .     S
C1225  H1612   1.111   .     S
C1226  H1615   1.110   .     S
C1226  C1227   1.526   .     S
C1226  H1614   1.112   .     S
C1227  H1619   1.111   .     S
C1227  H1617   1.111   .     S
C1227  H1618   1.110   .     S
C1228  O1722   1.413   .     S
C1228  C1229   1.527   .     S
C1228  H1621   1.111   .     S
C1228  H1620   1.116   .     S
C1229  H1623   1.112   .     S
C1229  H1622   1.112   .     S
C1230  H1625   1.110   .     S
C1230  H1626   1.111   .     S
C1230  C53     1.525   1_565 S
C1230  H448    1.111   1_565 S
C1231  O1723   1.416   .     S
C1231  C1232   1.532   .     S
C1231  H1629   1.115   .     S
C1231  H1628   1.111   .     S
C1232  C1234   1.526   .     S
C1232  H1631   1.111   .     S
C1232  H1630   1.112   .     S
C1233  C1334   1.393   .     A
C1233  C1342   1.400   .     A
C1233  H1465   1.085   .     S
C1234  H1632   1.111   .     S
C1234  H1633   1.110   .     S
C1234  H1634   1.111   .     S
C1235  C1236   1.528   .     S
C1235  H1635   1.116   .     S
C1235  H1636   1.110   .     S
C1235  O1724   1.413   .     S
C1236  H1637   1.111   .     S
C1236  H1639   1.112   .     S
C1236  C1237   1.526   .     S
C1237  H1640   1.111   .     S
C1237  H2229   1.110   1_455 S
C1237  H2230   1.111   1_455 S
C1238  H1643   1.110   .     S
C1238  C1239   1.534   .     S
C1238  H1644   1.117   .     S
C1238  O1725   1.419   .     S
C1239  H1646   1.110   .     S
C1239  C1240   1.526   .     S
C1239  H1645   1.111   .     S
C1240  H1411   1.111   .     S
C1240  H1647   1.111   .     S
C1240  H1648   1.110   .     S
C1241  O1726   1.414   .     S
C1241  H1412   1.116   .     S
C1241  H1413   1.112   .     S
C1241  C1242   1.528   .     S
C1242  H1414   1.112   .     S
C1242  H1415   1.112   .     S
C1242  C67     1.525   1_565 S
C1243  H1418   1.111   .     S
C1243  H1417   1.110   .     S
C1244  H1476   1.085   .     S
C1244  C1335   1.393   .     A
C1244  C168    1.398   1_565 S
C1245  H1420   1.115   .     S
C1245  C1246   1.528   .     S
C1245  H1419   1.114   .     S
C1245  O1727   1.411   .     S
C1246  H1423   1.112   .     S
C1246  C1247   1.526   .     S
C1246  H1422   1.111   .     S
C1247  H1425   1.111   .     S
C1247  H1424   1.111   .     S
C1247  H1426   1.111   .     S
C1248  C1249   1.528   .     S
C1248  O1728   1.414   .     S
C1248  H1427   1.117   .     S
C1248  H1428   1.109   .     S
C1249  H1430   1.112   .     S
C1249  H1429   1.111   .     S
C1249  C1838   1.526   .     S
C1250  H1434   1.110   .     S
C1250  H1433   1.111   .     S
C1250  C1837   1.526   1_455 S
C1250  H2019   1.111   1_455 S
C1251  O1729   1.419   .     S
C1251  H1435   1.110   .     S
C1251  C1252   1.533   .     S
C1251  H1436   1.117   .     S
C1252  H1438   1.110   .     S
C1252  H1437   1.111   .     S
C1252  C1253   1.526   .     S
C1253  H1439   1.111   .     S
C1253  H1441   1.111   .     S
C1253  H1440   1.110   .     S
C1254  H1442   1.116   .     S
C1254  C1256   1.527   .     S
C1254  O1730   1.413   .     S
C1254  H1444   1.113   .     S
C1255  C1308   1.446   .     S
C1255  C17     1.416   1_565 S
C1256  H1445   1.112   .     S
C1256  H1446   1.112   .     S
C1256  C1257   1.524   .     S
C1257  H1448   1.110   .     S
C1257  H1449   1.110   .     S
C1257  H1447   1.111   .     S
C1258  H1450   1.110   .     S
C1258  H1451   1.117   .     S
C1258  C1259   1.534   .     S
C1258  O1732   1.419   .     S
C1259  H1453   1.110   .     S
C1259  C1260   1.526   .     S
C1259  H1452   1.111   .     S
C1260  H1455   1.111   .     S
C1260  H1457   1.111   .     S
C1260  H1456   1.110   .     S
C1261  H1459   1.111   .     S
C1261  C1262   1.546   .     S
C1261  O1733   1.423   .     S
C1261  H1458   1.106   .     S
C1262  H1460   1.112   .     S
C1262  C1263   1.527   .     S
C1262  H1461   1.110   .     S
C1263  H1463   1.110   .     S
C1263  H1464   1.111   .     S
C1263  H1462   1.107   .     S
C1264  H1466   1.115   .     S
C1264  C1265   1.528   .     S
C1264  O1734   1.411   .     S
C1264  H1467   1.115   .     S
C1265  C1267   1.526   .     S
C1265  H1469   1.112   .     S
C1265  H1468   1.111   .     S
C1266  C1309   1.445   .     S
C1266  C1288   1.392   .     A
C1266  C18     1.414   1_565 S
C1267  H1472   1.111   .     S
C1267  H1470   1.111   .     S
C1267  H1471   1.111   .     S
C1268  H1473   1.115   .     S
C1268  O1735   1.413   .     S
C1268  H1474   1.113   .     S
C1268  C1269   1.527   .     S
C1269  H1475   1.111   .     S
C1269  C1270   1.524   .     S
C1269  H1477   1.112   .     S
C1270  H1478   1.111   .     S
C1270  H1479   1.110   .     S
C1270  H1480   1.108   .     S
C1271  O1736   1.419   .     S
C1271  H1481   1.110   .     S
C1271  C1272   1.533   .     S
C1271  H1482   1.117   .     S
C1272  H1483   1.111   .     S
C1272  C1273   1.526   .     S
C1272  H1484   1.110   .     S
C1273  H1486   1.110   .     S
C1273  H1488   1.111   .     S
C1273  H1485   1.111   .     S
C1274  H1490   1.117   .     S
C1274  C1275   1.531   .     S
C1274  O1737   1.420   .     S
C1274  H1489   1.112   .     S
C1275  H1492   1.110   .     S
C1275  C1276   1.527   .     S
C1275  H1491   1.112   .     S
C1276  H1493   1.111   .     S
C1276  H1495   1.111   .     S
C1276  H1494   1.111   .     S
C1277  C1332   1.394   .     A
C1277  C1310   1.445   .     S
C1277  C1783   1.412   1_455 S
C1278  H1496   1.115   .     S
C1278  C1279   1.528   .     S
C1278  H1497   1.115   .     S
C1278  O1738   1.411   .     S
C1279  H1500   1.112   .     S
C1279  C1280   1.526   .     S
C1279  H1499   1.111   .     S
C1280  H1501   1.111   .     S
C1280  H1503   1.111   .     S
C1280  H1502   1.111   .     S
C1281  H1505   1.117   .     S
C1281  O1739   1.419   .     S
C1281  C1282   1.532   .     S
C1281  H1504   1.111   .     S
C1282  C1283   1.526   .     S
C1282  H1507   1.108   .     S
C1282  H1506   1.112   .     S
C1283  H1510   1.110   .     S
C1283  H1508   1.111   .     S
C1283  H1511   1.110   .     S
C1284  C1285   1.528   .     S
C1284  H1513   1.115   .     S
C1284  H1512   1.115   .     S
C1284  O1740   1.412   .     S
C1285  H1514   1.111   .     S
C1285  C1286   1.526   .     S
C1285  H1515   1.111   .     S
C1286  H1517   1.111   .     S
C1286  H1518   1.110   .     S
C1286  H1516   1.111   .     S
C1287  O1741   1.412   .     S
C1287  H1519   1.115   .     S
C1287  H1522   1.115   .     S
C1287  C1290   1.527   .     S
C1288  H1520   1.085   .     S
C1288  C161    1.395   1_565 S
C1289  C1343   1.393   .     A
C1289  C1312   1.445   .     S
C1290  C1291   1.526   .     S
C1290  H1523   1.111   .     S
C1290  H1524   1.112   .     S
C1291  H1525   1.111   .     S
C1291  H1526   1.110   .     S
C1291  H1527   1.110   .     S
C1292  H1528   1.111   .     S
C1292  O1743   1.417   .     S
C1292  C1293   1.532   .     S
C1292  H1529   1.117   .     S
C1293  C1294   1.526   .     S
C1293  H1531   1.111   .     S
C1293  H1530   1.112   .     S
C1294  H1533   1.111   .     S
C1294  H1534   1.110   .     S
C1294  H1535   1.111   .     S
C1295  O1744   1.419   .     S
C1295  H1537   1.117   .     S
C1295  C1296   1.532   .     S
C1295  H1536   1.110   .     S
C1296  H1539   1.107   .     S
C1296  C1297   1.526   .     S
C1296  H1538   1.112   .     S
C1297  H1541   1.110   .     S
C1297  H1540   1.111   .     S
C1297  H1542   1.110   .     S
C1298  H1545   1.115   .     S
C1298  O1745   1.411   .     S
C1298  H1544   1.115   .     S
C1298  C1299   1.528   .     S
C1299  H1547   1.111   .     S
C1299  C1301   1.525   .     S
C1299  H1546   1.111   .     S
C1300  C1313   1.446   .     S
C1300  C1354   1.393   .     A
C1301  H1549   1.111   .     S
C1301  H1550   1.110   .     S
C1301  H1548   1.111   .     S
C1302  C1303   1.527   .     S
C1302  O1746   1.412   .     S
C1302  H1552   1.115   .     S
C1302  H1551   1.115   .     S
C1303  H1555   1.112   .     S
C1303  C1304   1.526   .     S
C1303  H1553   1.111   .     S
C1304  H1557   1.110   .     S
C1304  H1558   1.110   .     S
C1304  H1556   1.111   .     S
C1305  O1747   1.417   .     S
C1305  C1306   1.532   .     S
C1305  H1560   1.117   .     S
C1305  H1559   1.111   .     S
C1306  H1562   1.111   .     S
C1306  C1307   1.526   .     S
C1306  H1561   1.112   .     S
C1307  H1564   1.110   .     S
C1307  H1563   1.111   .     S
C1307  H1566   1.111   .     S
C1308  N1649   1.157   .     T
C1309  N1657   1.157   .     T
C1310  N1658   1.157   .     T
C1311  C1314   1.445   .     S
C1311  C1365   1.393   .     A
C1312  N1659   1.157   .     T
C1313  N1660   1.157   .     T
C1314  N1661   1.157   .     T
C1315  N1662   1.157   .     T
C1315  C1322   1.446   .     S
C1316  N1663   1.157   .     T
C1316  C1326   1.445   .     S
C1317  N1664   1.157   .     T
C1317  C1327   1.446   .     S
C1318  C1328   1.445   .     S
C1318  N1650   1.157   .     T
C1319  N1651   1.157   .     T
C1319  C1329   1.445   .     S
C1320  N1652   1.157   .     T
C1320  C1330   1.446   .     S
C1321  N1653   1.157   .     T
C1321  C1331   1.445   .     S
C1322  C1376   1.394   .     A
C1323  N1654   1.157   .     T
C1323  C1333   1.445   .     S
C1324  C1334   1.445   .     S
C1324  N1655   1.157   .     T
C1325  N1656   1.157   .     T
C1325  C1335   1.446   .     S
C1326  C1387   1.393   .     A
C1326  C1784   1.412   .     S
C1327  C1398   1.393   .     A
C1329  C23     1.409   1_565 S
C1331  C1785   1.411   1_455 S
C1332  H1572   1.085   .     S
C1332  C1926   1.397   1_455 S
C1333  C1786   1.413   .     S
C1335  C25     1.413   1_565 S
C1336  C1354   1.394   .     A
C1336  C1337   1.450   1_554 S
C1337  C1365   1.394   .     A
C1337  C1336   1.450   1_556 S
C1338  C1376   1.397   .     A
C1338  C1920   1.397   .     S
C1338  C1339   1.457   1_554 S
C1339  C1387   1.397   .     A
C1339  C1338   1.457   1_556 S
C1339  C1931   1.397   .     S
C1340  C1341   1.457   .     S
C1340  C1986   1.397   1_455 S
C1341  C1810   1.397   1_455 S
C1342  C1344   1.461   .     S
C1343  H1583   1.085   .     S
C1343  C1927   1.397   1_455 S
C1345  O1748   1.281   .     A
C1346  O1720   1.279   .     S
C1347  O1731   1.280   .     A
C1347  O2255   1.280   1_455 S
C1348  O1742   1.279   .     A
C1348  O2256   1.280   .     S
C1349  O1673   1.281   .     A
C1349  O1669   1.280   .     A
C1350  O2262   1.281   .     A
C1350  O2258   1.281   .     S
C1351  O1671   1.280   .     S
C1351  O1675   1.281   .     S
C1352  O1672   1.281   .     A
C1352  O1677   1.282   .     A
C1353  O1706   1.277   .     A
C1353  C1408   1.453   .     S
C1353  O1678   1.277   .     A
C1354  H1594   1.085   .     S
C1355  O1707   1.282   .     A
C1355  O1679   1.278   .     A
C1356  O1704   1.280   .     A
C1356  O1680   1.280   .     A
C1357  O1681   1.279   .     A
C1357  O1705   1.279   .     A
C1358  O1711   1.278   .     A
C1358  O1682   1.276   .     A
C1359  O1683   1.277   .     A
C1359  O1712   1.283   .     A
C1360  O1684   1.280   .     A
C1360  C1406   1.463   .     S
C1360  O1708   1.280   .     A
C1361  O1685   1.280   .     A
C1361  O1710   1.279   .     A
C1361  C1407   1.461   .     S
C1362  O1697   1.277   .     A
C1362  O1686   1.277   .     A
C1363  O1699   1.277   .     A
C1363  O1688   1.277   .     A
C1364  O1689   1.278   .     A
C1364  O1695   1.278   .     A
C1365  H1605   1.085   .     S
C1366  O1696   1.280   .     A
C1366  O1690   1.280   .     A
C1367  O1702   1.277   .     A
C1367  O1691   1.279   .     A
C1368  O1692   1.277   .     A
C1368  O1703   1.278   .     A
C1369  O1693   1.277   .     A
C1369  O1700   1.278   .     A
C1370  O1701   1.280   .     A
C1370  O1694   1.281   .     A
C1371  O1713   1.384   .     S
C1371  C1388   1.391   .     A
C1372  C1386   1.396   .     A
C1372  O1714   1.384   .     S
C1373  O1715   1.386   .     S
C1373  C1385   1.393   .     A
C1374  O1716   1.384   .     S
C1374  C1384   1.393   .     A
C1375  C1383   1.391   .     A
C1375  O1717   1.384   .     S
C1376  H1616   1.085   .     S
C1377  O1718   1.386   .     S
C1377  C1382   1.396   .     A
C1378  O1719   1.386   .     S
C1378  C1381   1.394   .     A
C1379  O1721   1.386   .     S
C1379  C1380   1.394   .     A
C1380  O1722   1.384   .     S
C1381  O1723   1.386   .     S
C1382  O1724   1.385   .     S
C1383  O1725   1.386   .     S
C1384  O1726   1.385   .     S
C1385  O1727   1.384   .     S
C1385  C1408   1.406   .     A
C1386  C1407   1.411   .     A
C1386  O1728   1.386   .     S
C1387  H1627   1.085   .     S
C1388  O1729   1.386   .     S
C1388  C1406   1.416   .     A
C1389  C1405   1.395   .     A
C1389  O1730   1.384   .     S
C1389  C1407   1.411   .     A
C1390  C1406   1.415   .     A
C1390  O1732   1.386   .     S
C1390  C1404   1.391   .     A
C1391  C1403   1.404   .     A
C1391  O1733   1.394   .     S
C1392  O1734   1.383   .     S
C1392  C1402   1.393   .     A
C1392  C1408   1.405   .     A
C1393  O1735   1.384   .     S
C1393  C1401   1.397   .     A
C1394  O1736   1.386   .     S
C1394  C1400   1.391   .     A
C1395  O1737   1.387   .     S
C1395  C1399   1.390   .     A
C1396  O1738   1.383   .     S
C1396  C1397   1.394   .     A
C1397  O1739   1.386   .     S
C1398  H1638   1.085   .     S
C1398  C1928   1.397   .     S
C1399  O1740   1.384   .     S
C1400  O1741   1.384   .     S
C1401  O1743   1.387   .     S
C1402  O1744   1.386   .     S
C1403  O1745   1.383   .     S
C1404  O1746   1.384   .     S
C1405  O1747   1.387   .     S
H1416  C67     1.111   1_565 S
H1431  C1838   1.111   .     S
H1521  C27     1.112   1_565 S
H1641  C1825   1.110   .     S
H1642  C1825   1.111   .     S
O1665  Zn1760  1.945   .     S
O1665  Zn1752  1.946   .     S
O1665  Zn1749  1.945   .     S
O1666  C170    1.279   1_565 A
O1666  Zn1751  1.932   .     S
O1667  Zn1754  1.932   .     S
O1667  C1935   1.280   .     S
O1668  Zn1753  1.932   .     S
O1668  C1936   1.280   1_455 S
O1669  Zn1763  1.932   .     S
O1670  C1938   1.281   1_455 S
O1670  Zn1762  1.932   .     S
O1671  Zn1757  1.932   .     S
O1672  Zn1749  1.932   .     S
O1673  Zn1759  1.932   .     S
O1674  C1938   1.281   1_455 A
O1674  Zn1758  1.932   .     S
O1675  Zn1761  1.932   .     S
O1676  Zn1755  1.946   .     S
O1676  Zn1757  1.945   .     S
O1676  Zn1761  1.945   .     S
O1677  Zn1760  1.932   .     S
O1678  Zn1752  1.940   .     S
O1679  Zn1751  1.940   .     S
O1680  Zn1754  1.940   .     S
O1681  Zn1753  1.940   .     S
O1682  Zn1756  1.940   .     S
O1683  Zn1755  1.940   .     S
O1684  Zn1750  1.940   .     S
O1685  Zn1764  1.940   .     S
O1686  Zn1751  1.940   .     S
O1687  Zn1758  1.946   .     S
O1687  Zn1750  1.945   .     S
O1687  Zn2342  1.945   1_455 S
O1687  Zn1762  1.946   .     S
O1688  Zn1752  1.940   .     S
O1689  Zn1764  1.941   .     S
O1690  Zn1750  1.941   .     S
O1691  Zn1755  1.940   .     S
O1692  Zn1756  1.940   .     S
O1693  Zn1753  1.941   .     S
O1694  Zn1754  1.941   .     S
O1695  Zn2347  1.940   .     S
O1696  Zn1758  1.940   .     S
O1697  Zn585   1.940   1_565 S
O1698  Zn1763  1.946   .     S
O1698  Zn1753  1.945   .     S
O1698  Zn1759  1.946   .     S
O1698  Zn2352  1.945   1_455 S
O1699  Zn1760  1.940   .     S
O1700  Zn1763  1.940   .     S
O1701  Zn2350  1.940   .     S
O1702  Zn1757  1.940   .     S
O1703  Zn573   1.940   1_565 S
O1704  Zn2346  1.940   .     S
O1705  Zn1759  1.940   .     S
O1706  Zn1749  1.941   .     S
O1707  Zn581   1.941   1_565 S
O1708  Zn1762  1.940   .     S
O1709  Zn1756  1.932   .     S
O1709  C169    1.281   1_565 S
O1710  Zn2351  1.940   .     S
O1711  Zn584   1.941   1_565 S
O1712  Zn1761  1.941   .     S
O1720  Zn1755  1.932   .     S
O1731  Zn1750  1.932   .     S
O1742  Zn1764  1.932   .     S
O1748  Zn1752  1.932   .     S
Zn1751 O500    1.946   1_565 S
Zn1754 O2275   1.945   .     S
Zn1756 O489    1.946   1_565 S
Zn1758 O2292   1.940   1_455 S
Zn1759 O2283   1.940   1_455 S
Zn1762 O2289   1.940   1_455 S
Zn1763 O2298   1.940   1_455 S
Zn1764 O2286   1.945   .     S
C1765  C1843   1.392   .     A
C1765  H1997   1.085   .     S
C1765  C748    1.394   1_565 S
C1766  C1916   1.394   .     A
C1766  C1929   1.397   .     A
C1766  H1998   1.085   .     S
C1767  C1979   1.416   .     A
C1767  C1972   1.411   .     A
C1767  C1943   1.464   .     S
C1768  C1982   1.416   .     A
C1768  C1944   1.463   .     S
C1768  C1971   1.416   .     A
C1769  C1981   1.410   .     A
C1769  C1970   1.410   .     A
C1769  C1945   1.462   .     S
C1770  C1969   1.406   .     A
C1770  C1946   1.453   .     S
C1770  C1984   1.406   .     A
C1771  C1968   1.412   .     A
C1771  C1947   1.463   .     S
C1771  C1983   1.415   .     A
C1772  C1987   1.409   .     A
C1772  C1967   1.411   .     A
C1772  C1957   1.457   .     S
C1773  C1966   1.416   .     A
C1773  C1985   1.416   .     A
C1773  C1958   1.465   .     S
C1774  C1965   1.410   .     A
C1774  C1950   1.456   .     S
C1774  C1989   1.409   .     A
C1775  C1963   1.406   .     A
C1775  C1988   1.407   .     A
C1775  C1951   1.454   .     S
C1776  C1991   1.409   .     A
C1776  C1962   1.407   .     A
C1776  C1952   1.457   .     S
C1777  H2009   1.085   .     S
C1777  C1917   1.393   .     A
C1777  C754    1.400   1_565 S
C1778  C1961   1.417   .     A
C1778  C1954   1.465   .     S
C1778  C1990   1.416   .     A
C1779  C1955   1.456   .     S
C1779  C1960   1.410   .     A
C1779  C1993   1.409   .     A
C1780  C1992   1.407   .     A
C1780  C1959   1.407   .     A
C1780  C1956   1.454   .     S
C1781  C1888   1.416   .     A
C1781  C1940   1.466   .     S
C1782  C1939   1.463   .     S
C1782  C1899   1.414   .     A
C1783  C1938   1.462   .     S
C1783  C1910   1.413   .     A
C1783  C1277   1.412   1_655 S
C1784  C1877   1.411   .     A
C1784  C1937   1.460   .     S
C1785  C1936   1.459   .     S
C1785  C1915   1.411   .     A
C1785  C1331   1.411   1_655 S
C1786  C1935   1.462   .     S
C1786  C1916   1.413   .     A
C1787  C1922   1.409   .     A
C1787  C1934   1.455   .     S
C1788  C1918   1.393   .     A
C1788  H2020   1.085   .     S
C1788  C1932   1.398   .     A
C1789  C1918   1.413   .     A
C1789  C1933   1.464   .     S
C1790  H2075   1.115   .     S
C1790  H2086   1.115   .     S
C1790  O2301   1.412   .     S
C1790  C615    1.527   1_565 S
C1791  H2097   1.111   .     S
C1791  C1792   1.526   .     S
C1792  H2120   1.111   .     S
C1792  H2142   1.110   .     S
C1792  H2131   1.110   .     S
C1793  C1794   1.529   .     S
C1793  O2302   1.411   .     S
C1793  H2153   1.115   .     S
C1793  H2155   1.115   .     S
C1794  H2157   1.112   .     S
C1794  C1795   1.526   .     S
C1794  H2156   1.111   .     S
C1795  H2161   1.111   .     S
C1795  H2158   1.111   .     S
C1795  H2159   1.111   .     S
C1796  H2163   1.117   .     S
C1796  O2303   1.419   .     S
C1796  H2162   1.110   .     S
C1796  C1797   1.532   .     S
C1797  H2164   1.112   .     S
C1797  H2165   1.107   .     S
C1797  C1798   1.526   .     S
C1798  H2167   1.110   .     S
C1798  H2168   1.110   .     S
C1798  H2166   1.111   .     S
C1799  H2031   1.085   .     S
C1799  C1919   1.393   .     A
C1799  C1928   1.397   .     A
C1800  H2169   1.115   .     S
C1800  O2304   1.411   .     S
C1800  C1801   1.528   .     S
C1800  H2170   1.115   .     S
C1801  H2172   1.111   .     S
C1801  C1802   1.525   .     S
C1801  H2173   1.111   .     S
C1802  H2176   1.110   .     S
C1802  H2174   1.111   .     S
C1802  H2175   1.111   .     S
C1803  H2178   1.115   .     S
C1803  O2305   1.412   .     S
C1803  H2177   1.115   .     S
C1804  H2179   1.111   .     S
C1804  C1805   1.526   .     S
C1804  C627    1.527   1_565 S
C1804  H1004   1.112   1_565 S
C1805  H2181   1.111   .     S
C1805  H2183   1.110   .     S
C1805  H2184   1.110   .     S
C1806  O2306   1.417   .     S
C1806  H2186   1.117   .     S
C1806  C1807   1.531   .     S
C1806  H2185   1.111   .     S
C1807  C1808   1.526   .     S
C1807  H2188   1.111   .     S
C1807  H2187   1.112   .     S
C1808  H2191   1.111   .     S
C1808  H2190   1.110   .     S
C1808  H2189   1.111   .     S
C1809  O2307   1.419   .     S
C1809  H2194   1.117   .     S
C1809  C1811   1.532   .     S
C1809  H2192   1.110   .     S
C1810  H2042   1.085   .     S
C1810  C1921   1.394   .     A
C1810  C1341   1.397   1_655 S
C1811  C1812   1.526   .     S
C1811  H2195   1.112   .     S
C1811  H2196   1.108   .     S
C1812  H2197   1.111   .     S
C1812  H2198   1.110   .     S
C1812  H2199   1.110   .     S
C1813  H2201   1.117   .     S
C1813  O2309   1.417   .     S
C1813  C1814   1.530   .     S
C1813  H2200   1.111   .     S
C1814  H2203   1.110   .     S
C1814  C1815   1.526   .     S
C1814  H2202   1.112   .     S
C1815  H2207   1.111   .     S
C1815  H2205   1.111   .     S
C1815  H2206   1.110   .     S
C1816  O2310   1.413   .     S
C1816  C1817   1.527   .     S
C1816  H2209   1.111   .     S
C1816  H2208   1.116   .     S
C1817  H2211   1.112   .     S
C1817  H2210   1.112   .     S
C1818  H2213   1.110   .     S
C1818  H2214   1.111   .     S
C1818  C641    1.525   1_565 S
C1818  H1036   1.111   1_565 S
C1819  O2311   1.416   .     S
C1819  C1820   1.532   .     S
C1819  H2217   1.115   .     S
C1819  H2216   1.111   .     S
C1820  C1822   1.526   .     S
C1820  H2219   1.111   .     S
C1820  H2218   1.112   .     S
C1821  C1922   1.393   .     A
C1821  C1930   1.400   .     A
C1821  H2053   1.085   .     S
C1822  H2220   1.111   .     S
C1822  H2221   1.110   .     S
C1822  H2222   1.111   .     S
C1823  C1824   1.528   .     S
C1823  H2223   1.116   .     S
C1823  H2224   1.110   .     S
C1823  O2312   1.413   .     S
C1824  H2225   1.111   .     S
C1824  H2227   1.112   .     S
C1824  C1825   1.526   .     S
C1825  H2228   1.111   .     S
C1826  H2231   1.110   .     S
C1826  C1827   1.534   .     S
C1826  H2232   1.117   .     S
C1826  O2313   1.419   .     S
C1827  H2234   1.110   .     S
C1827  C1828   1.526   .     S
C1827  H2233   1.111   .     S
C1828  H1999   1.111   .     S
C1828  H2235   1.111   .     S
C1828  H2236   1.110   .     S
C1829  O2314   1.414   .     S
C1829  H2000   1.116   .     S
C1829  H2001   1.112   .     S
C1829  C1830   1.528   .     S
C1830  H2002   1.112   .     S
C1830  H2003   1.112   .     S
C1830  C655    1.525   1_565 S
C1831  H2006   1.111   .     S
C1831  H2005   1.110   .     S
C1832  H2064   1.085   .     S
C1832  C1923   1.393   .     A
C1832  C756    1.398   1_565 S
C1833  H2008   1.115   .     S
C1833  C1834   1.528   .     S
C1833  H2007   1.114   .     S
C1833  O2315   1.411   .     S
C1834  H2011   1.112   .     S
C1834  C1835   1.526   .     S
C1834  H2010   1.111   .     S
C1835  H2013   1.111   .     S
C1835  H2012   1.111   .     S
C1835  H2014   1.111   .     S
C1836  C1837   1.528   .     S
C1836  O2316   1.414   .     S
C1836  H2015   1.117   .     S
C1836  H2016   1.109   .     S
C1837  H2018   1.112   .     S
C1837  H2017   1.111   .     S
C1837  C1250   1.526   1_655 S
C1838  H2022   1.110   .     S
C1838  H2021   1.111   .     S
C1839  O2317   1.419   .     S
C1839  H2023   1.110   .     S
C1839  C1840   1.533   .     S
C1839  H2024   1.117   .     S
C1840  H2026   1.110   .     S
C1840  H2025   1.111   .     S
C1840  C1841   1.526   .     S
C1841  H2027   1.111   .     S
C1841  H2029   1.111   .     S
C1841  H2028   1.110   .     S
C1842  H2030   1.116   .     S
C1842  C1844   1.527   .     S
C1842  O2318   1.413   .     S
C1842  H2032   1.113   .     S
C1843  C1896   1.446   .     S
C1843  C605    1.416   1_565 S
C1844  H2033   1.112   .     S
C1844  H2034   1.112   .     S
C1844  C1845   1.524   .     S
C1845  H2036   1.110   .     S
C1845  H2037   1.110   .     S
C1845  H2035   1.111   .     S
C1846  H2038   1.110   .     S
C1846  H2039   1.117   .     S
C1846  C1847   1.534   .     S
C1846  O2320   1.419   .     S
C1847  H2041   1.110   .     S
C1847  C1848   1.526   .     S
C1847  H2040   1.111   .     S
C1848  H2043   1.111   .     S
C1848  H2045   1.111   .     S
C1848  H2044   1.110   .     S
C1849  H2047   1.111   .     S
C1849  C1850   1.546   .     S
C1849  O2321   1.423   .     S
C1849  H2046   1.106   .     S
C1850  H2048   1.112   .     S
C1850  C1851   1.527   .     S
C1850  H2049   1.110   .     S
C1851  H2051   1.110   .     S
C1851  H2052   1.111   .     S
C1851  H2050   1.107   .     S
C1852  H2054   1.115   .     S
C1852  C1853   1.528   .     S
C1852  O2322   1.411   .     S
C1852  H2055   1.115   .     S
C1853  C1855   1.526   .     S
C1853  H2057   1.112   .     S
C1853  H2056   1.111   .     S
C1854  C1897   1.445   .     S
C1854  C1876   1.392   .     A
C1854  C606    1.414   1_565 S
C1855  H2060   1.111   .     S
C1855  H2058   1.111   .     S
C1855  H2059   1.111   .     S
C1856  H2061   1.115   .     S
C1856  O2323   1.413   .     S
C1856  H2062   1.113   .     S
C1856  C1857   1.527   .     S
C1857  H2063   1.111   .     S
C1857  C1858   1.524   .     S
C1857  H2065   1.112   .     S
C1858  H2066   1.111   .     S
C1858  H2067   1.110   .     S
C1858  H2068   1.108   .     S
C1859  O2324   1.419   .     S
C1859  H2069   1.110   .     S
C1859  C1860   1.533   .     S
C1859  H2070   1.117   .     S
C1860  H2071   1.111   .     S
C1860  C1861   1.526   .     S
C1860  H2072   1.110   .     S
C1861  H2074   1.110   .     S
C1861  H2076   1.111   .     S
C1861  H2073   1.111   .     S
C1862  H2078   1.117   .     S
C1862  C1863   1.531   .     S
C1862  O2325   1.420   .     S
C1862  H2077   1.112   .     S
C1863  H2080   1.110   .     S
C1863  C1864   1.527   .     S
C1863  H2079   1.112   .     S
C1864  H2081   1.111   .     S
C1864  H2083   1.111   .     S
C1864  H2082   1.111   .     S
C1865  C1920   1.394   .     A
C1865  C1898   1.445   .     S
C1866  H2084   1.115   .     S
C1866  C1867   1.528   .     S
C1866  H2085   1.115   .     S
C1866  O2326   1.411   .     S
C1867  H2088   1.112   .     S
C1867  C1868   1.526   .     S
C1867  H2087   1.111   .     S
C1868  H2089   1.111   .     S
C1868  H2091   1.111   .     S
C1868  H2090   1.111   .     S
C1869  H2093   1.117   .     S
C1869  O2327   1.419   .     S
C1869  C1870   1.532   .     S
C1869  H2092   1.111   .     S
C1870  C1871   1.526   .     S
C1870  H2095   1.108   .     S
C1870  H2094   1.112   .     S
C1871  H2098   1.110   .     S
C1871  H2096   1.111   .     S
C1871  H2099   1.110   .     S
C1872  C1873   1.528   .     S
C1872  H2101   1.115   .     S
C1872  H2100   1.115   .     S
C1872  O2328   1.412   .     S
C1873  H2102   1.111   .     S
C1873  C1874   1.526   .     S
C1873  H2103   1.111   .     S
C1874  H2105   1.111   .     S
C1874  H2106   1.110   .     S
C1874  H2104   1.111   .     S
C1875  O2329   1.412   .     S
C1875  H2107   1.115   .     S
C1875  H2110   1.115   .     S
C1875  C1878   1.527   .     S
C1876  H2108   1.085   .     S
C1876  C749    1.395   1_565 S
C1877  C1931   1.393   .     A
C1877  C1900   1.445   .     S
C1878  C1879   1.526   .     S
C1878  H2111   1.111   .     S
C1878  H2112   1.112   .     S
C1879  H2113   1.111   .     S
C1879  H2114   1.110   .     S
C1879  H2115   1.110   .     S
C1880  H2116   1.111   .     S
C1880  O2331   1.417   .     S
C1880  C1881   1.532   .     S
C1880  H2117   1.117   .     S
C1881  C1882   1.526   .     S
C1881  H2119   1.111   .     S
C1881  H2118   1.112   .     S
C1882  H2121   1.111   .     S
C1882  H2122   1.110   .     S
C1882  H2123   1.111   .     S
C1883  O2332   1.419   .     S
C1883  H2125   1.117   .     S
C1883  C1884   1.532   .     S
C1883  H2124   1.110   .     S
C1884  H2127   1.107   .     S
C1884  C1885   1.526   .     S
C1884  H2126   1.112   .     S
C1885  H2129   1.110   .     S
C1885  H2128   1.111   .     S
C1885  H2130   1.110   .     S
C1886  H2133   1.115   .     S
C1886  O2333   1.411   .     S
C1886  H2132   1.115   .     S
C1886  C1887   1.528   .     S
C1887  H2135   1.111   .     S
C1887  C1889   1.525   .     S
C1887  H2134   1.111   .     S
C1888  C1901   1.446   .     S
C1888  C1942   1.393   .     A
C1889  H2137   1.111   .     S
C1889  H2138   1.110   .     S
C1889  H2136   1.111   .     S
C1890  C1891   1.527   .     S
C1890  O2334   1.412   .     S
C1890  H2140   1.115   .     S
C1890  H2139   1.115   .     S
C1891  H2143   1.112   .     S
C1891  C1892   1.526   .     S
C1891  H2141   1.111   .     S
C1892  H2145   1.110   .     S
C1892  H2146   1.110   .     S
C1892  H2144   1.111   .     S
C1893  O2335   1.417   .     S
C1893  C1894   1.532   .     S
C1893  H2148   1.117   .     S
C1893  H2147   1.111   .     S
C1894  H2150   1.111   .     S
C1894  C1895   1.526   .     S
C1894  H2149   1.112   .     S
C1895  H2152   1.110   .     S
C1895  H2151   1.111   .     S
C1895  H2154   1.111   .     S
C1896  N2237   1.157   .     T
C1897  N2245   1.157   .     T
C1898  N2246   1.157   .     T
C1899  C1902   1.445   .     S
C1899  C1953   1.393   .     A
C1900  N2247   1.157   .     T
C1901  N2248   1.157   .     T
C1902  N2249   1.157   .     T
C1903  N2250   1.157   .     T
C1903  C1910   1.446   .     S
C1904  N2251   1.157   .     T
C1904  C1914   1.445   .     S
C1905  N2252   1.157   .     T
C1905  C1915   1.446   .     S
C1906  C1916   1.445   .     S
C1906  N2238   1.157   .     T
C1907  N2239   1.157   .     T
C1907  C1917   1.445   .     S
C1908  N2240   1.157   .     T
C1908  C1918   1.446   .     S
C1909  N2241   1.157   .     T
C1909  C1919   1.445   .     S
C1910  C1964   1.394   .     A
C1911  N2242   1.157   .     T
C1911  C1921   1.445   .     S
C1912  C1922   1.445   .     S
C1912  N2243   1.157   .     T
C1913  N2244   1.157   .     T
C1913  C1923   1.446   .     S
C1914  C1975   1.393   .     A
C1914  C1196   1.412   1_655 S
C1915  C1986   1.393   .     A
C1917  C611    1.409   1_565 S
C1920  H2160   1.085   .     S
C1921  C1198   1.413   1_655 S
C1923  C613    1.413   1_565 S
C1924  C1942   1.394   .     A
C1924  C1925   1.450   1_554 S
C1925  C1953   1.394   .     A
C1925  C1924   1.450   1_556 S
C1926  C1964   1.397   .     A
C1926  C1332   1.397   1_655 S
C1926  C1927   1.457   1_554 S
C1927  C1975   1.397   .     A
C1927  C1926   1.457   1_556 S
C1927  C1343   1.397   1_655 S
C1928  C1929   1.457   .     S
C1930  C1932   1.461   .     S
C1931  H2171   1.085   .     S
C1933  O2336   1.281   .     A
C1934  O2308   1.279   .     S
C1935  O2319   1.280   .     A
C1936  O2330   1.279   .     A
C1936  O1668   1.280   1_655 S
C1937  O2261   1.281   .     A
C1937  O2257   1.280   .     A
C1938  O1674   1.281   1_655 A
C1938  O1670   1.281   1_655 S
C1939  O2259   1.280   .     S
C1939  O2263   1.281   .     S
C1940  O2260   1.281   .     A
C1940  O2265   1.282   .     A
C1941  O2294   1.277   .     A
C1941  C1996   1.453   .     S
C1941  O2266   1.277   .     A
C1942  H2182   1.085   .     S
C1943  O2295   1.282   .     A
C1943  O2267   1.278   .     A
C1944  O2292   1.280   .     A
C1944  O2268   1.280   .     A
C1945  O2269   1.279   .     A
C1945  O2293   1.279   .     A
C1946  O2299   1.278   .     A
C1946  O2270   1.276   .     A
C1947  O2271   1.277   .     A
C1947  O2300   1.283   .     A
C1948  O2272   1.280   .     A
C1948  C1994   1.463   .     S
C1948  O2296   1.280   .     A
C1949  O2273   1.280   .     A
C1949  O2298   1.279   .     A
C1949  C1995   1.461   .     S
C1950  O2285   1.277   .     A
C1950  O2274   1.277   .     A
C1951  O2287   1.277   .     A
C1951  O2276   1.277   .     A
C1952  O2277   1.278   .     A
C1952  O2283   1.278   .     A
C1953  H2193   1.085   .     S
C1954  O2284   1.280   .     A
C1954  O2278   1.280   .     A
C1955  O2290   1.277   .     A
C1955  O2279   1.279   .     A
C1956  O2280   1.277   .     A
C1956  O2291   1.278   .     A
C1957  O2281   1.277   .     A
C1957  O2288   1.278   .     A
C1958  O2289   1.280   .     A
C1958  O2282   1.281   .     A
C1959  O2301   1.384   .     S
C1959  C1976   1.391   .     A
C1960  C1974   1.396   .     A
C1960  O2302   1.384   .     S
C1961  O2303   1.386   .     S
C1961  C1973   1.393   .     A
C1962  O2304   1.384   .     S
C1962  C1972   1.393   .     A
C1963  C1971   1.391   .     A
C1963  O2305   1.384   .     S
C1964  H2204   1.085   .     S
C1965  O2306   1.386   .     S
C1965  C1970   1.396   .     A
C1966  O2307   1.386   .     S
C1966  C1969   1.394   .     A
C1967  O2309   1.386   .     S
C1967  C1968   1.394   .     A
C1968  O2310   1.384   .     S
C1969  O2311   1.386   .     S
C1970  O2312   1.385   .     S
C1971  O2313   1.386   .     S
C1972  O2314   1.385   .     S
C1973  O2315   1.384   .     S
C1973  C1996   1.406   .     A
C1974  C1995   1.411   .     A
C1974  O2316   1.386   .     S
C1975  H2215   1.085   .     S
C1976  O2317   1.386   .     S
C1976  C1994   1.416   .     A
C1977  C1993   1.395   .     A
C1977  O2318   1.384   .     S
C1977  C1995   1.411   .     A
C1978  C1994   1.415   .     A
C1978  O2320   1.386   .     S
C1978  C1992   1.391   .     A
C1979  C1991   1.404   .     A
C1979  O2321   1.394   .     S
C1980  O2322   1.383   .     S
C1980  C1990   1.393   .     A
C1980  C1996   1.405   .     A
C1981  O2323   1.384   .     S
C1981  C1989   1.397   .     A
C1982  O2324   1.386   .     S
C1982  C1988   1.391   .     A
C1983  O2325   1.387   .     S
C1983  C1987   1.390   .     A
C1984  O2326   1.383   .     S
C1984  C1985   1.394   .     A
C1985  O2327   1.386   .     S
C1986  H2226   1.085   .     S
C1986  C1340   1.397   1_655 S
C1987  O2328   1.384   .     S
C1988  O2329   1.384   .     S
C1989  O2331   1.387   .     S
C1990  O2332   1.386   .     S
C1991  O2333   1.383   .     S
C1992  O2334   1.384   .     S
C1993  O2335   1.387   .     S
H2004  C655    1.111   1_565 S
H2019  C1250   1.111   1_655 S
H2109  C615    1.112   1_565 S
H2229  C1237   1.110   1_655 S
H2230  C1237   1.111   1_655 S
O2253  Zn2348  1.945   .     S
O2253  Zn2340  1.946   .     S
O2253  Zn2337  1.945   .     S
O2254  C758    1.279   1_565 A
O2254  Zn2339  1.932   .     S
O2255  Zn2342  1.932   .     S
O2255  C1347   1.280   1_655 S
O2256  Zn2341  1.932   .     S
O2257  Zn2351  1.932   .     S
O2258  Zn2350  1.932   .     S
O2259  Zn2345  1.932   .     S
O2260  Zn2337  1.932   .     S
O2261  Zn2347  1.932   .     S
O2262  Zn2346  1.932   .     S
O2263  Zn2349  1.932   .     S
O2264  Zn2343  1.946   .     S
O2264  Zn2345  1.945   .     S
O2264  Zn2349  1.945   .     S
O2265  Zn2348  1.932   .     S
O2266  Zn2340  1.940   .     S
O2267  Zn2339  1.940   .     S
O2268  Zn2342  1.940   .     S
O2269  Zn2341  1.940   .     S
O2270  Zn2344  1.940   .     S
O2271  Zn2343  1.940   .     S
O2272  Zn2338  1.940   .     S
O2273  Zn2352  1.940   .     S
O2274  Zn2339  1.940   .     S
O2275  Zn2346  1.946   .     S
O2275  Zn2338  1.945   .     S
O2275  Zn2350  1.946   .     S
O2276  Zn2340  1.940   .     S
O2277  Zn2352  1.941   .     S
O2278  Zn2338  1.941   .     S
O2279  Zn2343  1.940   .     S
O2280  Zn2344  1.940   .     S
O2281  Zn2341  1.941   .     S
O2282  Zn2342  1.941   .     S
O2283  Zn1759  1.940   1_655 S
O2284  Zn2346  1.940   .     S
O2285  Zn1173  1.940   1_565 S
O2286  Zn2351  1.946   .     S
O2286  Zn2341  1.945   .     S
O2286  Zn2347  1.946   .     S
O2287  Zn2348  1.940   .     S
O2288  Zn2351  1.940   .     S
O2289  Zn1762  1.940   1_655 S
O2290  Zn2345  1.940   .     S
O2291  Zn1161  1.940   1_565 S
O2292  Zn1758  1.940   1_655 S
O2293  Zn2347  1.940   .     S
O2294  Zn2337  1.941   .     S
O2295  Zn1169  1.941   1_565 S
O2296  Zn2350  1.940   .     S
O2297  Zn2344  1.932   .     S
O2297  C757    1.281   1_565 S
O2298  Zn1763  1.940   1_655 S
O2299  Zn1172  1.941   1_565 S
O2300  Zn2349  1.941   .     S
O2308  Zn2343  1.932   .     S
O2319  Zn2338  1.932   .     S
O2330  Zn2352  1.932   .     S
O2336  Zn2340  1.932   .     S
Zn2339 O1088   1.946   1_565 S
Zn2342 O1687   1.945   1_655 S
Zn2344 O1077   1.946   1_565 S
Zn2352 O1698   1.945   1_655 S
