data_str_m2_o1_o5_pcu_sym.60
_audit_creation_date              2020-01-03
_audit_creation_method            'Materials Studio'
_symmetry_space_group_name_H-M    'P1'
_symmetry_Int_Tables_number       1
_symmetry_cell_setting            triclinic
loop_
_symmetry_equiv_pos_as_xyz
  x,y,z
_cell_length_a                    32.6381
_cell_length_b                    28.7883
_cell_length_c                    27.1833
_cell_angle_alpha                 89.9978
_cell_angle_beta                  92.0567
_cell_angle_gamma                 90.0141
loop_
_atom_site_label
_atom_site_type_symbol
_atom_site_fract_x
_atom_site_fract_y
_atom_site_fract_z
_atom_site_U_iso_or_equiv
_atom_site_adp_type
_atom_site_occupancy
O1     O     0.10655   0.20625   0.16666   0.00000  Uiso   1.00
O2     O     0.22679   0.12709   0.16667   0.00000  Uiso   1.00
O3     O     0.22679   0.20625   0.16667   0.00000  Uiso   1.00
O4     O     0.10655   0.12709   0.16666   0.00000  Uiso   1.00
C5     C     0.08758   0.16666   0.17082   0.00000  Uiso   1.00
C6     C     0.24575   0.16667   0.16252   0.00000  Uiso   1.00
O7     O     0.16667   0.20625   0.09613   0.00000  Uiso   1.00
O8     O     0.16667   0.12708   0.23720   0.00000  Uiso   1.00
O9     O     0.16667   0.20625   0.23720   0.00000  Uiso   1.00
O10    O     0.16667   0.12708   0.09613   0.00000  Uiso   1.00
C11    C     0.16656   0.16667   0.07361   0.00000  Uiso   1.00
C12    C     0.16678   0.16667   0.25972   0.00000  Uiso   1.00
Cu13   Cu    0.16667   0.21355   0.16667   0.00000  Uiso   1.00
Cu14   Cu    0.16667   0.11978   0.16667   0.00000  Uiso   1.00
C15    C     0.16663   0.16667   0.02187   0.00000  Uiso   1.00
C16    C     0.16670   0.16667   0.31146   0.00000  Uiso   1.00
C17    C     0.02087   0.12426   0.17273   0.00000  Uiso   1.00
C18    C     0.31246   0.20907   0.16063   0.00000  Uiso   1.00
C19    C     0.31243   0.12428   0.16049   0.00000  Uiso   1.00
C20    C     0.02090   0.20904   0.17288   0.00000  Uiso   1.00
C21    C     0.29063   0.16668   0.15903   0.00000  Uiso   1.00
C22    C     0.04271   0.16665   0.17433   0.00000  Uiso   1.00
C23    C     0.14672   0.02468   0.12972   0.00000  Uiso   1.00
C24    C     0.18661   0.30865   0.20362   0.00000  Uiso   1.00
C25    C     0.18661   0.02470   0.20362   0.00000  Uiso   1.00
C26    C     0.14670   0.30864   0.12973   0.00000  Uiso   1.00
N27    N     0.16667   0.28402   0.16667   0.00000  Uiso   1.00
N28    N     0.16667   0.04931   0.16667   0.00000  Uiso   1.00
Br29   Br    0.04472   0.06626   0.19598   0.00000  Uiso   1.00
Br30   Br    0.28862   0.26706   0.13737   0.00000  Uiso   1.00
Br31   Br    0.28854   0.06636   0.13706   0.00000  Uiso   1.00
Br32   Br    0.04479   0.26695   0.19636   0.00000  Uiso   1.00
N33    N     0.12572   0.04841   0.09008   0.00000  Uiso   1.00
O34    O     0.08738   0.05951   0.09388   0.00000  Uiso   1.00
O35    O     0.14144   0.04855   0.04677   0.00000  Uiso   1.00
N36    N     0.20763   0.28492   0.24324   0.00000  Uiso   1.00
O37    O     0.24601   0.27399   0.23948   0.00000  Uiso   1.00
O38    O     0.19188   0.28465   0.28653   0.00000  Uiso   1.00
N39    N     0.20770   0.04844   0.24319   0.00000  Uiso   1.00
O40    O     0.19198   0.04877   0.28649   0.00000  Uiso   1.00
O41    O     0.24610   0.05926   0.23938   0.00000  Uiso   1.00
N42    N     0.12553   0.28489   0.09024   0.00000  Uiso   1.00
O43    O     0.14131   0.28431   0.04696   0.00000  Uiso   1.00
O44    O     0.08695   0.27473   0.09393   0.00000  Uiso   1.00
O45    O     0.43988   0.20625   0.16666   0.00000  Uiso   1.00
O46    O     0.56012   0.12709   0.16667   0.00000  Uiso   1.00
O47    O     0.56012   0.20625   0.16667   0.00000  Uiso   1.00
O48    O     0.43988   0.12709   0.16666   0.00000  Uiso   1.00
C49    C     0.42092   0.16666   0.17082   0.00000  Uiso   1.00
C50    C     0.57908   0.16667   0.16252   0.00000  Uiso   1.00
O51    O     0.50000   0.20625   0.09613   0.00000  Uiso   1.00
O52    O     0.50000   0.12708   0.23720   0.00000  Uiso   1.00
O53    O     0.50000   0.20625   0.23720   0.00000  Uiso   1.00
O54    O     0.50000   0.12708   0.09613   0.00000  Uiso   1.00
C55    C     0.49989   0.16667   0.07361   0.00000  Uiso   1.00
C56    C     0.50011   0.16667   0.25972   0.00000  Uiso   1.00
Cu57   Cu    0.50000   0.21355   0.16667   0.00000  Uiso   1.00
Cu58   Cu    0.50000   0.11978   0.16667   0.00000  Uiso   1.00
C59    C     0.49996   0.16667   0.02187   0.00000  Uiso   1.00
C60    C     0.50004   0.16667   0.31146   0.00000  Uiso   1.00
C61    C     0.35421   0.12426   0.17273   0.00000  Uiso   1.00
C62    C     0.64580   0.20907   0.16063   0.00000  Uiso   1.00
C63    C     0.64577   0.12428   0.16049   0.00000  Uiso   1.00
C64    C     0.35423   0.20904   0.17288   0.00000  Uiso   1.00
C65    C     0.62396   0.16668   0.15903   0.00000  Uiso   1.00
C66    C     0.37604   0.16665   0.17433   0.00000  Uiso   1.00
C67    C     0.48005   0.02468   0.12972   0.00000  Uiso   1.00
C68    C     0.51995   0.30865   0.20362   0.00000  Uiso   1.00
C69    C     0.51995   0.02470   0.20362   0.00000  Uiso   1.00
C70    C     0.48003   0.30864   0.12973   0.00000  Uiso   1.00
N71    N     0.50000   0.28402   0.16667   0.00000  Uiso   1.00
N72    N     0.50000   0.04931   0.16667   0.00000  Uiso   1.00
Br73   Br    0.37806   0.06626   0.19598   0.00000  Uiso   1.00
Br74   Br    0.62196   0.26706   0.13737   0.00000  Uiso   1.00
Br75   Br    0.62187   0.06636   0.13706   0.00000  Uiso   1.00
Br76   Br    0.37812   0.26695   0.19636   0.00000  Uiso   1.00
N77    N     0.45906   0.04841   0.09008   0.00000  Uiso   1.00
O78    O     0.42072   0.05951   0.09388   0.00000  Uiso   1.00
O79    O     0.47477   0.04855   0.04677   0.00000  Uiso   1.00
N80    N     0.54097   0.28492   0.24324   0.00000  Uiso   1.00
O81    O     0.57934   0.27399   0.23948   0.00000  Uiso   1.00
O82    O     0.52521   0.28465   0.28653   0.00000  Uiso   1.00
N83    N     0.54103   0.04844   0.24319   0.00000  Uiso   1.00
O84    O     0.52531   0.04877   0.28649   0.00000  Uiso   1.00
O85    O     0.57944   0.05926   0.23938   0.00000  Uiso   1.00
N86    N     0.45886   0.28489   0.09024   0.00000  Uiso   1.00
O87    O     0.47464   0.28431   0.04696   0.00000  Uiso   1.00
O88    O     0.42028   0.27473   0.09393   0.00000  Uiso   1.00
O89    O     0.77321   0.20625   0.16666   0.00000  Uiso   1.00
O90    O     0.89345   0.12709   0.16667   0.00000  Uiso   1.00
O91    O     0.89345   0.20625   0.16667   0.00000  Uiso   1.00
O92    O     0.77321   0.12709   0.16666   0.00000  Uiso   1.00
C93    C     0.75425   0.16666   0.17082   0.00000  Uiso   1.00
C94    C     0.91242   0.16667   0.16252   0.00000  Uiso   1.00
O95    O     0.83333   0.20625   0.09613   0.00000  Uiso   1.00
O96    O     0.83333   0.12708   0.23720   0.00000  Uiso   1.00
O97    O     0.83333   0.20625   0.23720   0.00000  Uiso   1.00
O98    O     0.83333   0.12708   0.09613   0.00000  Uiso   1.00
C99    C     0.83322   0.16667   0.07361   0.00000  Uiso   1.00
C100   C     0.83344   0.16667   0.25972   0.00000  Uiso   1.00
Cu101  Cu    0.83333   0.21355   0.16667   0.00000  Uiso   1.00
Cu102  Cu    0.83333   0.11978   0.16667   0.00000  Uiso   1.00
C103   C     0.83330   0.16667   0.02187   0.00000  Uiso   1.00
C104   C     0.83337   0.16667   0.31146   0.00000  Uiso   1.00
C105   C     0.68754   0.12426   0.17273   0.00000  Uiso   1.00
C106   C     0.97913   0.20907   0.16063   0.00000  Uiso   1.00
C107   C     0.97910   0.12428   0.16049   0.00000  Uiso   1.00
C108   C     0.68757   0.20904   0.17288   0.00000  Uiso   1.00
C109   C     0.95729   0.16668   0.15903   0.00000  Uiso   1.00
C110   C     0.70938   0.16665   0.17433   0.00000  Uiso   1.00
C111   C     0.81338   0.02468   0.12972   0.00000  Uiso   1.00
C112   C     0.85328   0.30865   0.20362   0.00000  Uiso   1.00
C113   C     0.85328   0.02470   0.20362   0.00000  Uiso   1.00
C114   C     0.81337   0.30864   0.12973   0.00000  Uiso   1.00
N115   N     0.83333   0.28402   0.16667   0.00000  Uiso   1.00
N116   N     0.83333   0.04931   0.16667   0.00000  Uiso   1.00
Br117  Br    0.71139   0.06626   0.19598   0.00000  Uiso   1.00
Br118  Br    0.95529   0.26706   0.13737   0.00000  Uiso   1.00
Br119  Br    0.95521   0.06636   0.13706   0.00000  Uiso   1.00
Br120  Br    0.71146   0.26695   0.19636   0.00000  Uiso   1.00
N121   N     0.79239   0.04841   0.09008   0.00000  Uiso   1.00
O122   O     0.75405   0.05951   0.09388   0.00000  Uiso   1.00
O123   O     0.80810   0.04855   0.04677   0.00000  Uiso   1.00
N124   N     0.87430   0.28492   0.24324   0.00000  Uiso   1.00
O125   O     0.91268   0.27399   0.23948   0.00000  Uiso   1.00
O126   O     0.85855   0.28465   0.28653   0.00000  Uiso   1.00
N127   N     0.87436   0.04844   0.24319   0.00000  Uiso   1.00
O128   O     0.85865   0.04877   0.28649   0.00000  Uiso   1.00
O129   O     0.91277   0.05926   0.23938   0.00000  Uiso   1.00
N130   N     0.79219   0.28489   0.09024   0.00000  Uiso   1.00
O131   O     0.80797   0.28431   0.04696   0.00000  Uiso   1.00
O132   O     0.75362   0.27473   0.09393   0.00000  Uiso   1.00
O133   O     0.10655   0.53958   0.16666   0.00000  Uiso   1.00
O134   O     0.22679   0.46042   0.16667   0.00000  Uiso   1.00
O135   O     0.22679   0.53958   0.16667   0.00000  Uiso   1.00
O136   O     0.10655   0.46042   0.16666   0.00000  Uiso   1.00
C137   C     0.08758   0.49999   0.17082   0.00000  Uiso   1.00
C138   C     0.24575   0.50001   0.16252   0.00000  Uiso   1.00
O139   O     0.16667   0.53959   0.09613   0.00000  Uiso   1.00
O140   O     0.16667   0.46041   0.23720   0.00000  Uiso   1.00
O141   O     0.16667   0.53959   0.23720   0.00000  Uiso   1.00
O142   O     0.16667   0.46041   0.09613   0.00000  Uiso   1.00
C143   C     0.16656   0.50000   0.07361   0.00000  Uiso   1.00
C144   C     0.16678   0.50000   0.25972   0.00000  Uiso   1.00
Cu145  Cu    0.16667   0.54689   0.16667   0.00000  Uiso   1.00
Cu146  Cu    0.16667   0.45311   0.16667   0.00000  Uiso   1.00
C147   C     0.16663   0.50000   0.02187   0.00000  Uiso   1.00
C148   C     0.16670   0.50000   0.31146   0.00000  Uiso   1.00
C149   C     0.02087   0.45759   0.17273   0.00000  Uiso   1.00
C150   C     0.31246   0.54240   0.16063   0.00000  Uiso   1.00
C151   C     0.31243   0.45761   0.16049   0.00000  Uiso   1.00
C152   C     0.02090   0.54238   0.17288   0.00000  Uiso   1.00
C153   C     0.29063   0.50001   0.15903   0.00000  Uiso   1.00
C154   C     0.04271   0.49998   0.17433   0.00000  Uiso   1.00
C155   C     0.14672   0.35802   0.12972   0.00000  Uiso   1.00
C156   C     0.18661   0.64198   0.20362   0.00000  Uiso   1.00
C157   C     0.18661   0.35803   0.20362   0.00000  Uiso   1.00
C158   C     0.14670   0.64197   0.12973   0.00000  Uiso   1.00
N159   N     0.16667   0.61736   0.16667   0.00000  Uiso   1.00
N160   N     0.16667   0.38264   0.16667   0.00000  Uiso   1.00
Br161  Br    0.04472   0.39960   0.19598   0.00000  Uiso   1.00
Br162  Br    0.28862   0.60040   0.13737   0.00000  Uiso   1.00
Br163  Br    0.28854   0.39969   0.13706   0.00000  Uiso   1.00
Br164  Br    0.04479   0.60029   0.19636   0.00000  Uiso   1.00
N165   N     0.12572   0.38174   0.09008   0.00000  Uiso   1.00
O166   O     0.08738   0.39285   0.09388   0.00000  Uiso   1.00
O167   O     0.14144   0.38188   0.04677   0.00000  Uiso   1.00
N168   N     0.20763   0.61826   0.24324   0.00000  Uiso   1.00
O169   O     0.24601   0.60732   0.23948   0.00000  Uiso   1.00
O170   O     0.19188   0.61798   0.28653   0.00000  Uiso   1.00
N171   N     0.20770   0.38177   0.24319   0.00000  Uiso   1.00
O172   O     0.19198   0.38210   0.28649   0.00000  Uiso   1.00
O173   O     0.24610   0.39259   0.23938   0.00000  Uiso   1.00
N174   N     0.12553   0.61822   0.09024   0.00000  Uiso   1.00
O175   O     0.14131   0.61764   0.04696   0.00000  Uiso   1.00
O176   O     0.08695   0.60806   0.09393   0.00000  Uiso   1.00
O177   O     0.43988   0.53958   0.16666   0.00000  Uiso   1.00
O178   O     0.56012   0.46042   0.16667   0.00000  Uiso   1.00
O179   O     0.56012   0.53958   0.16667   0.00000  Uiso   1.00
O180   O     0.43988   0.46042   0.16666   0.00000  Uiso   1.00
C181   C     0.42092   0.49999   0.17082   0.00000  Uiso   1.00
C182   C     0.57908   0.50001   0.16252   0.00000  Uiso   1.00
O183   O     0.50000   0.53959   0.09613   0.00000  Uiso   1.00
O184   O     0.50000   0.46041   0.23720   0.00000  Uiso   1.00
O185   O     0.50000   0.53959   0.23720   0.00000  Uiso   1.00
O186   O     0.50000   0.46041   0.09613   0.00000  Uiso   1.00
C187   C     0.49989   0.50000   0.07361   0.00000  Uiso   1.00
C188   C     0.50011   0.50000   0.25972   0.00000  Uiso   1.00
Cu189  Cu    0.50000   0.54689   0.16667   0.00000  Uiso   1.00
Cu190  Cu    0.50000   0.45311   0.16667   0.00000  Uiso   1.00
C191   C     0.49996   0.50000   0.02187   0.00000  Uiso   1.00
C192   C     0.50004   0.50000   0.31146   0.00000  Uiso   1.00
C193   C     0.35421   0.45759   0.17273   0.00000  Uiso   1.00
C194   C     0.64580   0.54240   0.16063   0.00000  Uiso   1.00
C195   C     0.64577   0.45761   0.16049   0.00000  Uiso   1.00
C196   C     0.35423   0.54238   0.17288   0.00000  Uiso   1.00
C197   C     0.62396   0.50001   0.15903   0.00000  Uiso   1.00
C198   C     0.37604   0.49998   0.17433   0.00000  Uiso   1.00
C199   C     0.48005   0.35802   0.12972   0.00000  Uiso   1.00
C200   C     0.51995   0.64198   0.20362   0.00000  Uiso   1.00
C201   C     0.51995   0.35803   0.20362   0.00000  Uiso   1.00
C202   C     0.48003   0.64197   0.12973   0.00000  Uiso   1.00
N203   N     0.50000   0.61736   0.16667   0.00000  Uiso   1.00
N204   N     0.50000   0.38264   0.16667   0.00000  Uiso   1.00
Br205  Br    0.37806   0.39960   0.19598   0.00000  Uiso   1.00
Br206  Br    0.62196   0.60040   0.13737   0.00000  Uiso   1.00
Br207  Br    0.62187   0.39969   0.13706   0.00000  Uiso   1.00
Br208  Br    0.37812   0.60029   0.19636   0.00000  Uiso   1.00
N209   N     0.45906   0.38174   0.09008   0.00000  Uiso   1.00
O210   O     0.42072   0.39285   0.09388   0.00000  Uiso   1.00
O211   O     0.47477   0.38188   0.04677   0.00000  Uiso   1.00
N212   N     0.54097   0.61826   0.24324   0.00000  Uiso   1.00
O213   O     0.57934   0.60732   0.23948   0.00000  Uiso   1.00
O214   O     0.52521   0.61798   0.28653   0.00000  Uiso   1.00
N215   N     0.54103   0.38177   0.24319   0.00000  Uiso   1.00
O216   O     0.52531   0.38210   0.28649   0.00000  Uiso   1.00
O217   O     0.57944   0.39259   0.23938   0.00000  Uiso   1.00
N218   N     0.45886   0.61822   0.09024   0.00000  Uiso   1.00
O219   O     0.47464   0.61764   0.04696   0.00000  Uiso   1.00
O220   O     0.42028   0.60806   0.09393   0.00000  Uiso   1.00
O221   O     0.77321   0.53958   0.16666   0.00000  Uiso   1.00
O222   O     0.89345   0.46042   0.16667   0.00000  Uiso   1.00
O223   O     0.89345   0.53958   0.16667   0.00000  Uiso   1.00
O224   O     0.77321   0.46042   0.16666   0.00000  Uiso   1.00
C225   C     0.75425   0.49999   0.17082   0.00000  Uiso   1.00
C226   C     0.91242   0.50001   0.16252   0.00000  Uiso   1.00
O227   O     0.83333   0.53959   0.09613   0.00000  Uiso   1.00
O228   O     0.83333   0.46041   0.23720   0.00000  Uiso   1.00
O229   O     0.83333   0.53959   0.23720   0.00000  Uiso   1.00
O230   O     0.83333   0.46041   0.09613   0.00000  Uiso   1.00
C231   C     0.83322   0.50000   0.07361   0.00000  Uiso   1.00
C232   C     0.83344   0.50000   0.25972   0.00000  Uiso   1.00
Cu233  Cu    0.83333   0.54689   0.16667   0.00000  Uiso   1.00
Cu234  Cu    0.83333   0.45311   0.16667   0.00000  Uiso   1.00
C235   C     0.83330   0.50000   0.02187   0.00000  Uiso   1.00
C236   C     0.83337   0.50000   0.31146   0.00000  Uiso   1.00
C237   C     0.68754   0.45759   0.17273   0.00000  Uiso   1.00
C238   C     0.97913   0.54240   0.16063   0.00000  Uiso   1.00
C239   C     0.97910   0.45761   0.16049   0.00000  Uiso   1.00
C240   C     0.68757   0.54238   0.17288   0.00000  Uiso   1.00
C241   C     0.95729   0.50001   0.15903   0.00000  Uiso   1.00
C242   C     0.70938   0.49998   0.17433   0.00000  Uiso   1.00
C243   C     0.81338   0.35802   0.12972   0.00000  Uiso   1.00
C244   C     0.85328   0.64198   0.20362   0.00000  Uiso   1.00
C245   C     0.85328   0.35803   0.20362   0.00000  Uiso   1.00
C246   C     0.81337   0.64197   0.12973   0.00000  Uiso   1.00
N247   N     0.83333   0.61736   0.16667   0.00000  Uiso   1.00
N248   N     0.83333   0.38264   0.16667   0.00000  Uiso   1.00
Br249  Br    0.71139   0.39960   0.19598   0.00000  Uiso   1.00
Br250  Br    0.95529   0.60040   0.13737   0.00000  Uiso   1.00
Br251  Br    0.95521   0.39969   0.13706   0.00000  Uiso   1.00
Br252  Br    0.71146   0.60029   0.19636   0.00000  Uiso   1.00
N253   N     0.79239   0.38174   0.09008   0.00000  Uiso   1.00
O254   O     0.75405   0.39285   0.09388   0.00000  Uiso   1.00
O255   O     0.80810   0.38188   0.04677   0.00000  Uiso   1.00
N256   N     0.87430   0.61826   0.24324   0.00000  Uiso   1.00
O257   O     0.91268   0.60732   0.23948   0.00000  Uiso   1.00
O258   O     0.85855   0.61798   0.28653   0.00000  Uiso   1.00
N259   N     0.87436   0.38177   0.24319   0.00000  Uiso   1.00
O260   O     0.85865   0.38210   0.28649   0.00000  Uiso   1.00
O261   O     0.91277   0.39259   0.23938   0.00000  Uiso   1.00
N262   N     0.79219   0.61822   0.09024   0.00000  Uiso   1.00
O263   O     0.80797   0.61764   0.04696   0.00000  Uiso   1.00
O264   O     0.75362   0.60806   0.09393   0.00000  Uiso   1.00
O265   O     0.10655   0.87291   0.16666   0.00000  Uiso   1.00
O266   O     0.22679   0.79375   0.16667   0.00000  Uiso   1.00
O267   O     0.22679   0.87291   0.16667   0.00000  Uiso   1.00
O268   O     0.10655   0.79375   0.16666   0.00000  Uiso   1.00
C269   C     0.08758   0.83333   0.17082   0.00000  Uiso   1.00
C270   C     0.24575   0.83334   0.16252   0.00000  Uiso   1.00
O271   O     0.16667   0.87292   0.09613   0.00000  Uiso   1.00
O272   O     0.16667   0.79375   0.23720   0.00000  Uiso   1.00
O273   O     0.16667   0.87292   0.23720   0.00000  Uiso   1.00
O274   O     0.16667   0.79375   0.09613   0.00000  Uiso   1.00
C275   C     0.16656   0.83333   0.07361   0.00000  Uiso   1.00
C276   C     0.16678   0.83333   0.25972   0.00000  Uiso   1.00
Cu277  Cu    0.16667   0.88022   0.16667   0.00000  Uiso   1.00
Cu278  Cu    0.16667   0.78645   0.16667   0.00000  Uiso   1.00
C279   C     0.16663   0.83333   0.02187   0.00000  Uiso   1.00
C280   C     0.16670   0.83333   0.31146   0.00000  Uiso   1.00
C281   C     0.02087   0.79093   0.17273   0.00000  Uiso   1.00
C282   C     0.31246   0.87573   0.16063   0.00000  Uiso   1.00
C283   C     0.31243   0.79095   0.16049   0.00000  Uiso   1.00
C284   C     0.02090   0.87571   0.17288   0.00000  Uiso   1.00
C285   C     0.29063   0.83334   0.15903   0.00000  Uiso   1.00
C286   C     0.04271   0.83331   0.17433   0.00000  Uiso   1.00
C287   C     0.14672   0.69135   0.12972   0.00000  Uiso   1.00
C288   C     0.18661   0.97532   0.20362   0.00000  Uiso   1.00
C289   C     0.18661   0.69136   0.20362   0.00000  Uiso   1.00
C290   C     0.14670   0.97530   0.12973   0.00000  Uiso   1.00
N291   N     0.16667   0.95069   0.16667   0.00000  Uiso   1.00
N292   N     0.16667   0.71598   0.16667   0.00000  Uiso   1.00
Br293  Br    0.04472   0.73293   0.19598   0.00000  Uiso   1.00
Br294  Br    0.28862   0.93373   0.13737   0.00000  Uiso   1.00
Br295  Br    0.28854   0.73302   0.13706   0.00000  Uiso   1.00
Br296  Br    0.04479   0.93362   0.19636   0.00000  Uiso   1.00
N297   N     0.12572   0.71507   0.09008   0.00000  Uiso   1.00
O298   O     0.08738   0.72618   0.09388   0.00000  Uiso   1.00
O299   O     0.14144   0.71522   0.04677   0.00000  Uiso   1.00
N300   N     0.20763   0.95159   0.24324   0.00000  Uiso   1.00
O301   O     0.24601   0.94065   0.23948   0.00000  Uiso   1.00
O302   O     0.19188   0.95132   0.28653   0.00000  Uiso   1.00
N303   N     0.20770   0.71510   0.24319   0.00000  Uiso   1.00
O304   O     0.19198   0.71543   0.28649   0.00000  Uiso   1.00
O305   O     0.24610   0.72593   0.23938   0.00000  Uiso   1.00
N306   N     0.12553   0.95156   0.09024   0.00000  Uiso   1.00
O307   O     0.14131   0.95097   0.04696   0.00000  Uiso   1.00
O308   O     0.08695   0.94140   0.09393   0.00000  Uiso   1.00
O309   O     0.43988   0.87291   0.16666   0.00000  Uiso   1.00
O310   O     0.56012   0.79375   0.16667   0.00000  Uiso   1.00
O311   O     0.56012   0.87291   0.16667   0.00000  Uiso   1.00
O312   O     0.43988   0.79375   0.16666   0.00000  Uiso   1.00
C313   C     0.42092   0.83333   0.17082   0.00000  Uiso   1.00
C314   C     0.57908   0.83334   0.16252   0.00000  Uiso   1.00
O315   O     0.50000   0.87292   0.09613   0.00000  Uiso   1.00
O316   O     0.50000   0.79375   0.23720   0.00000  Uiso   1.00
O317   O     0.50000   0.87292   0.23720   0.00000  Uiso   1.00
O318   O     0.50000   0.79375   0.09613   0.00000  Uiso   1.00
C319   C     0.49989   0.83333   0.07361   0.00000  Uiso   1.00
C320   C     0.50011   0.83333   0.25972   0.00000  Uiso   1.00
Cu321  Cu    0.50000   0.88022   0.16667   0.00000  Uiso   1.00
Cu322  Cu    0.50000   0.78645   0.16667   0.00000  Uiso   1.00
C323   C     0.49996   0.83333   0.02187   0.00000  Uiso   1.00
C324   C     0.50004   0.83333   0.31146   0.00000  Uiso   1.00
C325   C     0.35421   0.79093   0.17273   0.00000  Uiso   1.00
C326   C     0.64580   0.87573   0.16063   0.00000  Uiso   1.00
C327   C     0.64577   0.79095   0.16049   0.00000  Uiso   1.00
C328   C     0.35423   0.87571   0.17288   0.00000  Uiso   1.00
C329   C     0.62396   0.83334   0.15903   0.00000  Uiso   1.00
C330   C     0.37604   0.83331   0.17433   0.00000  Uiso   1.00
C331   C     0.48005   0.69135   0.12972   0.00000  Uiso   1.00
C332   C     0.51995   0.97532   0.20362   0.00000  Uiso   1.00
C333   C     0.51995   0.69136   0.20362   0.00000  Uiso   1.00
C334   C     0.48003   0.97530   0.12973   0.00000  Uiso   1.00
N335   N     0.50000   0.95069   0.16667   0.00000  Uiso   1.00
N336   N     0.50000   0.71598   0.16667   0.00000  Uiso   1.00
Br337  Br    0.37806   0.73293   0.19598   0.00000  Uiso   1.00
Br338  Br    0.62196   0.93373   0.13737   0.00000  Uiso   1.00
Br339  Br    0.62187   0.73302   0.13706   0.00000  Uiso   1.00
Br340  Br    0.37812   0.93362   0.19636   0.00000  Uiso   1.00
N341   N     0.45906   0.71507   0.09008   0.00000  Uiso   1.00
O342   O     0.42072   0.72618   0.09388   0.00000  Uiso   1.00
O343   O     0.47477   0.71522   0.04677   0.00000  Uiso   1.00
N344   N     0.54097   0.95159   0.24324   0.00000  Uiso   1.00
O345   O     0.57934   0.94065   0.23948   0.00000  Uiso   1.00
O346   O     0.52521   0.95132   0.28653   0.00000  Uiso   1.00
N347   N     0.54103   0.71510   0.24319   0.00000  Uiso   1.00
O348   O     0.52531   0.71543   0.28649   0.00000  Uiso   1.00
O349   O     0.57944   0.72593   0.23938   0.00000  Uiso   1.00
N350   N     0.45886   0.95156   0.09024   0.00000  Uiso   1.00
O351   O     0.47464   0.95097   0.04696   0.00000  Uiso   1.00
O352   O     0.42028   0.94140   0.09393   0.00000  Uiso   1.00
O353   O     0.77321   0.87291   0.16666   0.00000  Uiso   1.00
O354   O     0.89345   0.79375   0.16667   0.00000  Uiso   1.00
O355   O     0.89345   0.87291   0.16667   0.00000  Uiso   1.00
O356   O     0.77321   0.79375   0.16666   0.00000  Uiso   1.00
C357   C     0.75425   0.83333   0.17082   0.00000  Uiso   1.00
C358   C     0.91242   0.83334   0.16252   0.00000  Uiso   1.00
O359   O     0.83333   0.87292   0.09613   0.00000  Uiso   1.00
O360   O     0.83333   0.79375   0.23720   0.00000  Uiso   1.00
O361   O     0.83333   0.87292   0.23720   0.00000  Uiso   1.00
O362   O     0.83333   0.79375   0.09613   0.00000  Uiso   1.00
C363   C     0.83322   0.83333   0.07361   0.00000  Uiso   1.00
C364   C     0.83344   0.83333   0.25972   0.00000  Uiso   1.00
Cu365  Cu    0.83333   0.88022   0.16667   0.00000  Uiso   1.00
Cu366  Cu    0.83333   0.78645   0.16667   0.00000  Uiso   1.00
C367   C     0.83330   0.83333   0.02187   0.00000  Uiso   1.00
C368   C     0.83337   0.83333   0.31146   0.00000  Uiso   1.00
C369   C     0.68754   0.79093   0.17273   0.00000  Uiso   1.00
C370   C     0.97913   0.87573   0.16063   0.00000  Uiso   1.00
C371   C     0.97910   0.79095   0.16049   0.00000  Uiso   1.00
C372   C     0.68757   0.87571   0.17288   0.00000  Uiso   1.00
C373   C     0.95729   0.83334   0.15903   0.00000  Uiso   1.00
C374   C     0.70938   0.83331   0.17433   0.00000  Uiso   1.00
C375   C     0.81338   0.69135   0.12972   0.00000  Uiso   1.00
C376   C     0.85328   0.97532   0.20362   0.00000  Uiso   1.00
C377   C     0.85328   0.69136   0.20362   0.00000  Uiso   1.00
C378   C     0.81337   0.97530   0.12973   0.00000  Uiso   1.00
N379   N     0.83333   0.95069   0.16667   0.00000  Uiso   1.00
N380   N     0.83333   0.71598   0.16667   0.00000  Uiso   1.00
Br381  Br    0.71139   0.73293   0.19598   0.00000  Uiso   1.00
Br382  Br    0.95529   0.93373   0.13737   0.00000  Uiso   1.00
Br383  Br    0.95521   0.73302   0.13706   0.00000  Uiso   1.00
Br384  Br    0.71146   0.93362   0.19636   0.00000  Uiso   1.00
N385   N     0.79239   0.71507   0.09008   0.00000  Uiso   1.00
O386   O     0.75405   0.72618   0.09388   0.00000  Uiso   1.00
O387   O     0.80810   0.71522   0.04677   0.00000  Uiso   1.00
N388   N     0.87430   0.95159   0.24324   0.00000  Uiso   1.00
O389   O     0.91268   0.94065   0.23948   0.00000  Uiso   1.00
O390   O     0.85855   0.95132   0.28653   0.00000  Uiso   1.00
N391   N     0.87436   0.71510   0.24319   0.00000  Uiso   1.00
O392   O     0.85865   0.71543   0.28649   0.00000  Uiso   1.00
O393   O     0.91277   0.72593   0.23938   0.00000  Uiso   1.00
N394   N     0.79219   0.95156   0.09024   0.00000  Uiso   1.00
O395   O     0.80797   0.95097   0.04696   0.00000  Uiso   1.00
O396   O     0.75362   0.94140   0.09393   0.00000  Uiso   1.00
O397   O     0.10655   0.20625   0.50000   0.00000  Uiso   1.00
O398   O     0.22679   0.12709   0.50000   0.00000  Uiso   1.00
O399   O     0.22679   0.20625   0.50000   0.00000  Uiso   1.00
O400   O     0.10655   0.12709   0.50000   0.00000  Uiso   1.00
C401   C     0.08758   0.16666   0.50415   0.00000  Uiso   1.00
C402   C     0.24575   0.16667   0.49586   0.00000  Uiso   1.00
O403   O     0.16667   0.20625   0.42946   0.00000  Uiso   1.00
O404   O     0.16667   0.12708   0.57054   0.00000  Uiso   1.00
O405   O     0.16667   0.20625   0.57054   0.00000  Uiso   1.00
O406   O     0.16667   0.12708   0.42946   0.00000  Uiso   1.00
C407   C     0.16656   0.16667   0.40695   0.00000  Uiso   1.00
C408   C     0.16678   0.16667   0.59305   0.00000  Uiso   1.00
Cu409  Cu    0.16667   0.21355   0.50000   0.00000  Uiso   1.00
Cu410  Cu    0.16667   0.11978   0.50000   0.00000  Uiso   1.00
C411   C     0.16663   0.16667   0.35520   0.00000  Uiso   1.00
C412   C     0.16670   0.16667   0.64480   0.00000  Uiso   1.00
C413   C     0.02087   0.12426   0.50606   0.00000  Uiso   1.00
C414   C     0.31246   0.20907   0.49396   0.00000  Uiso   1.00
C415   C     0.31243   0.12428   0.49382   0.00000  Uiso   1.00
C416   C     0.02090   0.20904   0.50621   0.00000  Uiso   1.00
C417   C     0.29063   0.16668   0.49236   0.00000  Uiso   1.00
C418   C     0.04271   0.16665   0.50766   0.00000  Uiso   1.00
C419   C     0.14672   0.02468   0.46305   0.00000  Uiso   1.00
C420   C     0.18661   0.30865   0.53695   0.00000  Uiso   1.00
C421   C     0.18661   0.02470   0.53695   0.00000  Uiso   1.00
C422   C     0.14670   0.30864   0.46306   0.00000  Uiso   1.00
N423   N     0.16667   0.28402   0.50000   0.00000  Uiso   1.00
N424   N     0.16667   0.04931   0.50000   0.00000  Uiso   1.00
Br425  Br    0.04472   0.06626   0.52931   0.00000  Uiso   1.00
Br426  Br    0.28862   0.26706   0.47070   0.00000  Uiso   1.00
Br427  Br    0.28854   0.06636   0.47039   0.00000  Uiso   1.00
Br428  Br    0.04479   0.26695   0.52969   0.00000  Uiso   1.00
N429   N     0.12572   0.04841   0.42341   0.00000  Uiso   1.00
O430   O     0.08738   0.05951   0.42721   0.00000  Uiso   1.00
O431   O     0.14144   0.04855   0.38010   0.00000  Uiso   1.00
N432   N     0.20763   0.28492   0.57657   0.00000  Uiso   1.00
O433   O     0.24601   0.27399   0.57281   0.00000  Uiso   1.00
O434   O     0.19188   0.28465   0.61986   0.00000  Uiso   1.00
N435   N     0.20770   0.04844   0.57652   0.00000  Uiso   1.00
O436   O     0.19198   0.04877   0.61983   0.00000  Uiso   1.00
O437   O     0.24610   0.05926   0.57272   0.00000  Uiso   1.00
N438   N     0.12553   0.28489   0.42357   0.00000  Uiso   1.00
O439   O     0.14131   0.28431   0.38030   0.00000  Uiso   1.00
O440   O     0.08695   0.27473   0.42726   0.00000  Uiso   1.00
O441   O     0.43988   0.20625   0.50000   0.00000  Uiso   1.00
O442   O     0.56012   0.12709   0.50000   0.00000  Uiso   1.00
O443   O     0.56012   0.20625   0.50000   0.00000  Uiso   1.00
O444   O     0.43988   0.12709   0.50000   0.00000  Uiso   1.00
C445   C     0.42092   0.16666   0.50415   0.00000  Uiso   1.00
C446   C     0.57908   0.16667   0.49586   0.00000  Uiso   1.00
O447   O     0.50000   0.20625   0.42946   0.00000  Uiso   1.00
O448   O     0.50000   0.12708   0.57054   0.00000  Uiso   1.00
O449   O     0.50000   0.20625   0.57054   0.00000  Uiso   1.00
O450   O     0.50000   0.12708   0.42946   0.00000  Uiso   1.00
C451   C     0.49989   0.16667   0.40695   0.00000  Uiso   1.00
C452   C     0.50011   0.16667   0.59305   0.00000  Uiso   1.00
Cu453  Cu    0.50000   0.21355   0.50000   0.00000  Uiso   1.00
Cu454  Cu    0.50000   0.11978   0.50000   0.00000  Uiso   1.00
C455   C     0.49996   0.16667   0.35520   0.00000  Uiso   1.00
C456   C     0.50004   0.16667   0.64480   0.00000  Uiso   1.00
C457   C     0.35421   0.12426   0.50606   0.00000  Uiso   1.00
C458   C     0.64580   0.20907   0.49396   0.00000  Uiso   1.00
C459   C     0.64577   0.12428   0.49382   0.00000  Uiso   1.00
C460   C     0.35423   0.20904   0.50621   0.00000  Uiso   1.00
C461   C     0.62396   0.16668   0.49236   0.00000  Uiso   1.00
C462   C     0.37604   0.16665   0.50766   0.00000  Uiso   1.00
C463   C     0.48005   0.02468   0.46305   0.00000  Uiso   1.00
C464   C     0.51995   0.30865   0.53695   0.00000  Uiso   1.00
C465   C     0.51995   0.02470   0.53695   0.00000  Uiso   1.00
C466   C     0.48003   0.30864   0.46306   0.00000  Uiso   1.00
N467   N     0.50000   0.28402   0.50000   0.00000  Uiso   1.00
N468   N     0.50000   0.04931   0.50000   0.00000  Uiso   1.00
Br469  Br    0.37806   0.06626   0.52931   0.00000  Uiso   1.00
Br470  Br    0.62196   0.26706   0.47070   0.00000  Uiso   1.00
Br471  Br    0.62187   0.06636   0.47039   0.00000  Uiso   1.00
Br472  Br    0.37812   0.26695   0.52969   0.00000  Uiso   1.00
N473   N     0.45906   0.04841   0.42341   0.00000  Uiso   1.00
O474   O     0.42072   0.05951   0.42721   0.00000  Uiso   1.00
O475   O     0.47477   0.04855   0.38010   0.00000  Uiso   1.00
N476   N     0.54097   0.28492   0.57657   0.00000  Uiso   1.00
O477   O     0.57934   0.27399   0.57281   0.00000  Uiso   1.00
O478   O     0.52521   0.28465   0.61986   0.00000  Uiso   1.00
N479   N     0.54103   0.04844   0.57652   0.00000  Uiso   1.00
O480   O     0.52531   0.04877   0.61983   0.00000  Uiso   1.00
O481   O     0.57944   0.05926   0.57272   0.00000  Uiso   1.00
N482   N     0.45886   0.28489   0.42357   0.00000  Uiso   1.00
O483   O     0.47464   0.28431   0.38030   0.00000  Uiso   1.00
O484   O     0.42028   0.27473   0.42726   0.00000  Uiso   1.00
O485   O     0.77321   0.20625   0.50000   0.00000  Uiso   1.00
O486   O     0.89345   0.12709   0.50000   0.00000  Uiso   1.00
O487   O     0.89345   0.20625   0.50000   0.00000  Uiso   1.00
O488   O     0.77321   0.12709   0.50000   0.00000  Uiso   1.00
C489   C     0.75425   0.16666   0.50415   0.00000  Uiso   1.00
C490   C     0.91242   0.16667   0.49586   0.00000  Uiso   1.00
O491   O     0.83333   0.20625   0.42946   0.00000  Uiso   1.00
O492   O     0.83333   0.12708   0.57054   0.00000  Uiso   1.00
O493   O     0.83333   0.20625   0.57054   0.00000  Uiso   1.00
O494   O     0.83333   0.12708   0.42946   0.00000  Uiso   1.00
C495   C     0.83322   0.16667   0.40695   0.00000  Uiso   1.00
C496   C     0.83344   0.16667   0.59305   0.00000  Uiso   1.00
Cu497  Cu    0.83333   0.21355   0.50000   0.00000  Uiso   1.00
Cu498  Cu    0.83333   0.11978   0.50000   0.00000  Uiso   1.00
C499   C     0.83330   0.16667   0.35520   0.00000  Uiso   1.00
C500   C     0.83337   0.16667   0.64480   0.00000  Uiso   1.00
C501   C     0.68754   0.12426   0.50606   0.00000  Uiso   1.00
C502   C     0.97913   0.20907   0.49396   0.00000  Uiso   1.00
C503   C     0.97910   0.12428   0.49382   0.00000  Uiso   1.00
C504   C     0.68757   0.20904   0.50621   0.00000  Uiso   1.00
C505   C     0.95729   0.16668   0.49236   0.00000  Uiso   1.00
C506   C     0.70938   0.16665   0.50766   0.00000  Uiso   1.00
C507   C     0.81338   0.02468   0.46305   0.00000  Uiso   1.00
C508   C     0.85328   0.30865   0.53695   0.00000  Uiso   1.00
C509   C     0.85328   0.02470   0.53695   0.00000  Uiso   1.00
C510   C     0.81337   0.30864   0.46306   0.00000  Uiso   1.00
N511   N     0.83333   0.28402   0.50000   0.00000  Uiso   1.00
N512   N     0.83333   0.04931   0.50000   0.00000  Uiso   1.00
Br513  Br    0.71139   0.06626   0.52931   0.00000  Uiso   1.00
Br514  Br    0.95529   0.26706   0.47070   0.00000  Uiso   1.00
Br515  Br    0.95521   0.06636   0.47039   0.00000  Uiso   1.00
Br516  Br    0.71146   0.26695   0.52969   0.00000  Uiso   1.00
N517   N     0.79239   0.04841   0.42341   0.00000  Uiso   1.00
O518   O     0.75405   0.05951   0.42721   0.00000  Uiso   1.00
O519   O     0.80810   0.04855   0.38010   0.00000  Uiso   1.00
N520   N     0.87430   0.28492   0.57657   0.00000  Uiso   1.00
O521   O     0.91268   0.27399   0.57281   0.00000  Uiso   1.00
O522   O     0.85855   0.28465   0.61986   0.00000  Uiso   1.00
N523   N     0.87436   0.04844   0.57652   0.00000  Uiso   1.00
O524   O     0.85865   0.04877   0.61983   0.00000  Uiso   1.00
O525   O     0.91277   0.05926   0.57272   0.00000  Uiso   1.00
N526   N     0.79219   0.28489   0.42357   0.00000  Uiso   1.00
O527   O     0.80797   0.28431   0.38030   0.00000  Uiso   1.00
O528   O     0.75362   0.27473   0.42726   0.00000  Uiso   1.00
O529   O     0.10655   0.53958   0.50000   0.00000  Uiso   1.00
O530   O     0.22679   0.46042   0.50000   0.00000  Uiso   1.00
O531   O     0.22679   0.53958   0.50000   0.00000  Uiso   1.00
O532   O     0.10655   0.46042   0.50000   0.00000  Uiso   1.00
C533   C     0.08758   0.49999   0.50415   0.00000  Uiso   1.00
C534   C     0.24575   0.50001   0.49586   0.00000  Uiso   1.00
O535   O     0.16667   0.53959   0.42946   0.00000  Uiso   1.00
O536   O     0.16667   0.46041   0.57054   0.00000  Uiso   1.00
O537   O     0.16667   0.53959   0.57054   0.00000  Uiso   1.00
O538   O     0.16667   0.46041   0.42946   0.00000  Uiso   1.00
C539   C     0.16656   0.50000   0.40695   0.00000  Uiso   1.00
C540   C     0.16678   0.50000   0.59305   0.00000  Uiso   1.00
Cu541  Cu    0.16667   0.54689   0.50000   0.00000  Uiso   1.00
Cu542  Cu    0.16667   0.45311   0.50000   0.00000  Uiso   1.00
C543   C     0.16663   0.50000   0.35520   0.00000  Uiso   1.00
C544   C     0.16670   0.50000   0.64480   0.00000  Uiso   1.00
C545   C     0.02087   0.45759   0.50606   0.00000  Uiso   1.00
C546   C     0.31246   0.54240   0.49396   0.00000  Uiso   1.00
C547   C     0.31243   0.45761   0.49382   0.00000  Uiso   1.00
C548   C     0.02090   0.54238   0.50621   0.00000  Uiso   1.00
C549   C     0.29063   0.50001   0.49236   0.00000  Uiso   1.00
C550   C     0.04271   0.49998   0.50766   0.00000  Uiso   1.00
C551   C     0.14672   0.35802   0.46305   0.00000  Uiso   1.00
C552   C     0.18661   0.64198   0.53695   0.00000  Uiso   1.00
C553   C     0.18661   0.35803   0.53695   0.00000  Uiso   1.00
C554   C     0.14670   0.64197   0.46306   0.00000  Uiso   1.00
N555   N     0.16667   0.61736   0.50000   0.00000  Uiso   1.00
N556   N     0.16667   0.38264   0.50000   0.00000  Uiso   1.00
Br557  Br    0.04472   0.39960   0.52931   0.00000  Uiso   1.00
Br558  Br    0.28862   0.60040   0.47070   0.00000  Uiso   1.00
Br559  Br    0.28854   0.39969   0.47039   0.00000  Uiso   1.00
Br560  Br    0.04479   0.60029   0.52969   0.00000  Uiso   1.00
N561   N     0.12572   0.38174   0.42341   0.00000  Uiso   1.00
O562   O     0.08738   0.39285   0.42721   0.00000  Uiso   1.00
O563   O     0.14144   0.38188   0.38010   0.00000  Uiso   1.00
N564   N     0.20763   0.61826   0.57657   0.00000  Uiso   1.00
O565   O     0.24601   0.60732   0.57281   0.00000  Uiso   1.00
O566   O     0.19188   0.61798   0.61986   0.00000  Uiso   1.00
N567   N     0.20770   0.38177   0.57652   0.00000  Uiso   1.00
O568   O     0.19198   0.38210   0.61983   0.00000  Uiso   1.00
O569   O     0.24610   0.39259   0.57272   0.00000  Uiso   1.00
N570   N     0.12553   0.61822   0.42357   0.00000  Uiso   1.00
O571   O     0.14131   0.61764   0.38030   0.00000  Uiso   1.00
O572   O     0.08695   0.60806   0.42726   0.00000  Uiso   1.00
O573   O     0.43988   0.53958   0.50000   0.00000  Uiso   1.00
O574   O     0.56012   0.46042   0.50000   0.00000  Uiso   1.00
O575   O     0.56012   0.53958   0.50000   0.00000  Uiso   1.00
O576   O     0.43988   0.46042   0.50000   0.00000  Uiso   1.00
C577   C     0.42092   0.49999   0.50415   0.00000  Uiso   1.00
C578   C     0.57908   0.50001   0.49586   0.00000  Uiso   1.00
O579   O     0.50000   0.53959   0.42946   0.00000  Uiso   1.00
O580   O     0.50000   0.46041   0.57054   0.00000  Uiso   1.00
O581   O     0.50000   0.53959   0.57054   0.00000  Uiso   1.00
O582   O     0.50000   0.46041   0.42946   0.00000  Uiso   1.00
C583   C     0.49989   0.50000   0.40695   0.00000  Uiso   1.00
C584   C     0.50011   0.50000   0.59305   0.00000  Uiso   1.00
Cu585  Cu    0.50000   0.54689   0.50000   0.00000  Uiso   1.00
Cu586  Cu    0.50000   0.45311   0.50000   0.00000  Uiso   1.00
C587   C     0.49996   0.50000   0.35520   0.00000  Uiso   1.00
C588   C     0.50004   0.50000   0.64480   0.00000  Uiso   1.00
C589   C     0.35421   0.45759   0.50606   0.00000  Uiso   1.00
C590   C     0.64580   0.54240   0.49396   0.00000  Uiso   1.00
C591   C     0.64577   0.45761   0.49382   0.00000  Uiso   1.00
C592   C     0.35423   0.54238   0.50621   0.00000  Uiso   1.00
C593   C     0.62396   0.50001   0.49236   0.00000  Uiso   1.00
C594   C     0.37604   0.49998   0.50766   0.00000  Uiso   1.00
C595   C     0.48005   0.35802   0.46305   0.00000  Uiso   1.00
C596   C     0.51995   0.64198   0.53695   0.00000  Uiso   1.00
C597   C     0.51995   0.35803   0.53695   0.00000  Uiso   1.00
C598   C     0.48003   0.64197   0.46306   0.00000  Uiso   1.00
N599   N     0.50000   0.61736   0.50000   0.00000  Uiso   1.00
N600   N     0.50000   0.38264   0.50000   0.00000  Uiso   1.00
Br601  Br    0.37806   0.39960   0.52931   0.00000  Uiso   1.00
Br602  Br    0.62196   0.60040   0.47070   0.00000  Uiso   1.00
Br603  Br    0.62187   0.39969   0.47039   0.00000  Uiso   1.00
Br604  Br    0.37812   0.60029   0.52969   0.00000  Uiso   1.00
N605   N     0.45906   0.38174   0.42341   0.00000  Uiso   1.00
O606   O     0.42072   0.39285   0.42721   0.00000  Uiso   1.00
O607   O     0.47477   0.38188   0.38010   0.00000  Uiso   1.00
N608   N     0.54097   0.61826   0.57657   0.00000  Uiso   1.00
O609   O     0.57934   0.60732   0.57281   0.00000  Uiso   1.00
O610   O     0.52521   0.61798   0.61986   0.00000  Uiso   1.00
N611   N     0.54103   0.38177   0.57652   0.00000  Uiso   1.00
O612   O     0.52531   0.38210   0.61983   0.00000  Uiso   1.00
O613   O     0.57944   0.39259   0.57272   0.00000  Uiso   1.00
N614   N     0.45886   0.61822   0.42357   0.00000  Uiso   1.00
O615   O     0.47464   0.61764   0.38030   0.00000  Uiso   1.00
O616   O     0.42028   0.60806   0.42726   0.00000  Uiso   1.00
O617   O     0.77321   0.53958   0.50000   0.00000  Uiso   1.00
O618   O     0.89345   0.46042   0.50000   0.00000  Uiso   1.00
O619   O     0.89345   0.53958   0.50000   0.00000  Uiso   1.00
O620   O     0.77321   0.46042   0.50000   0.00000  Uiso   1.00
C621   C     0.75425   0.49999   0.50415   0.00000  Uiso   1.00
C622   C     0.91242   0.50001   0.49586   0.00000  Uiso   1.00
O623   O     0.83333   0.53959   0.42946   0.00000  Uiso   1.00
O624   O     0.83333   0.46041   0.57054   0.00000  Uiso   1.00
O625   O     0.83333   0.53959   0.57054   0.00000  Uiso   1.00
O626   O     0.83333   0.46041   0.42946   0.00000  Uiso   1.00
C627   C     0.83322   0.50000   0.40695   0.00000  Uiso   1.00
C628   C     0.83344   0.50000   0.59305   0.00000  Uiso   1.00
Cu629  Cu    0.83333   0.54689   0.50000   0.00000  Uiso   1.00
Cu630  Cu    0.83333   0.45311   0.50000   0.00000  Uiso   1.00
C631   C     0.83330   0.50000   0.35520   0.00000  Uiso   1.00
C632   C     0.83337   0.50000   0.64480   0.00000  Uiso   1.00
C633   C     0.68754   0.45759   0.50606   0.00000  Uiso   1.00
C634   C     0.97913   0.54240   0.49396   0.00000  Uiso   1.00
C635   C     0.97910   0.45761   0.49382   0.00000  Uiso   1.00
C636   C     0.68757   0.54238   0.50621   0.00000  Uiso   1.00
C637   C     0.95729   0.50001   0.49236   0.00000  Uiso   1.00
C638   C     0.70938   0.49998   0.50766   0.00000  Uiso   1.00
C639   C     0.81338   0.35802   0.46305   0.00000  Uiso   1.00
C640   C     0.85328   0.64198   0.53695   0.00000  Uiso   1.00
C641   C     0.85328   0.35803   0.53695   0.00000  Uiso   1.00
C642   C     0.81337   0.64197   0.46306   0.00000  Uiso   1.00
N643   N     0.83333   0.61736   0.50000   0.00000  Uiso   1.00
N644   N     0.83333   0.38264   0.50000   0.00000  Uiso   1.00
Br645  Br    0.71139   0.39960   0.52931   0.00000  Uiso   1.00
Br646  Br    0.95529   0.60040   0.47070   0.00000  Uiso   1.00
Br647  Br    0.95521   0.39969   0.47039   0.00000  Uiso   1.00
Br648  Br    0.71146   0.60029   0.52969   0.00000  Uiso   1.00
N649   N     0.79239   0.38174   0.42341   0.00000  Uiso   1.00
O650   O     0.75405   0.39285   0.42721   0.00000  Uiso   1.00
O651   O     0.80810   0.38188   0.38010   0.00000  Uiso   1.00
N652   N     0.87430   0.61826   0.57657   0.00000  Uiso   1.00
O653   O     0.91268   0.60732   0.57281   0.00000  Uiso   1.00
O654   O     0.85855   0.61798   0.61986   0.00000  Uiso   1.00
N655   N     0.87436   0.38177   0.57652   0.00000  Uiso   1.00
O656   O     0.85865   0.38210   0.61983   0.00000  Uiso   1.00
O657   O     0.91277   0.39259   0.57272   0.00000  Uiso   1.00
N658   N     0.79219   0.61822   0.42357   0.00000  Uiso   1.00
O659   O     0.80797   0.61764   0.38030   0.00000  Uiso   1.00
O660   O     0.75362   0.60806   0.42726   0.00000  Uiso   1.00
O661   O     0.10655   0.87291   0.50000   0.00000  Uiso   1.00
O662   O     0.22679   0.79375   0.50000   0.00000  Uiso   1.00
O663   O     0.22679   0.87291   0.50000   0.00000  Uiso   1.00
O664   O     0.10655   0.79375   0.50000   0.00000  Uiso   1.00
C665   C     0.08758   0.83333   0.50415   0.00000  Uiso   1.00
C666   C     0.24575   0.83334   0.49586   0.00000  Uiso   1.00
O667   O     0.16667   0.87292   0.42946   0.00000  Uiso   1.00
O668   O     0.16667   0.79375   0.57054   0.00000  Uiso   1.00
O669   O     0.16667   0.87292   0.57054   0.00000  Uiso   1.00
O670   O     0.16667   0.79375   0.42946   0.00000  Uiso   1.00
C671   C     0.16656   0.83333   0.40695   0.00000  Uiso   1.00
C672   C     0.16678   0.83333   0.59305   0.00000  Uiso   1.00
Cu673  Cu    0.16667   0.88022   0.50000   0.00000  Uiso   1.00
Cu674  Cu    0.16667   0.78645   0.50000   0.00000  Uiso   1.00
C675   C     0.16663   0.83333   0.35520   0.00000  Uiso   1.00
C676   C     0.16670   0.83333   0.64480   0.00000  Uiso   1.00
C677   C     0.02087   0.79093   0.50606   0.00000  Uiso   1.00
C678   C     0.31246   0.87573   0.49396   0.00000  Uiso   1.00
C679   C     0.31243   0.79095   0.49382   0.00000  Uiso   1.00
C680   C     0.02090   0.87571   0.50621   0.00000  Uiso   1.00
C681   C     0.29063   0.83334   0.49236   0.00000  Uiso   1.00
C682   C     0.04271   0.83331   0.50766   0.00000  Uiso   1.00
C683   C     0.14672   0.69135   0.46305   0.00000  Uiso   1.00
C684   C     0.18661   0.97532   0.53695   0.00000  Uiso   1.00
C685   C     0.18661   0.69136   0.53695   0.00000  Uiso   1.00
C686   C     0.14670   0.97530   0.46306   0.00000  Uiso   1.00
N687   N     0.16667   0.95069   0.50000   0.00000  Uiso   1.00
N688   N     0.16667   0.71598   0.50000   0.00000  Uiso   1.00
Br689  Br    0.04472   0.73293   0.52931   0.00000  Uiso   1.00
Br690  Br    0.28862   0.93373   0.47070   0.00000  Uiso   1.00
Br691  Br    0.28854   0.73302   0.47039   0.00000  Uiso   1.00
Br692  Br    0.04479   0.93362   0.52969   0.00000  Uiso   1.00
N693   N     0.12572   0.71507   0.42341   0.00000  Uiso   1.00
O694   O     0.08738   0.72618   0.42721   0.00000  Uiso   1.00
O695   O     0.14144   0.71522   0.38010   0.00000  Uiso   1.00
N696   N     0.20763   0.95159   0.57657   0.00000  Uiso   1.00
O697   O     0.24601   0.94065   0.57281   0.00000  Uiso   1.00
O698   O     0.19188   0.95132   0.61986   0.00000  Uiso   1.00
N699   N     0.20770   0.71510   0.57652   0.00000  Uiso   1.00
O700   O     0.19198   0.71543   0.61983   0.00000  Uiso   1.00
O701   O     0.24610   0.72593   0.57272   0.00000  Uiso   1.00
N702   N     0.12553   0.95156   0.42357   0.00000  Uiso   1.00
O703   O     0.14131   0.95097   0.38030   0.00000  Uiso   1.00
O704   O     0.08695   0.94140   0.42726   0.00000  Uiso   1.00
O705   O     0.43988   0.87291   0.50000   0.00000  Uiso   1.00
O706   O     0.56012   0.79375   0.50000   0.00000  Uiso   1.00
O707   O     0.56012   0.87291   0.50000   0.00000  Uiso   1.00
O708   O     0.43988   0.79375   0.50000   0.00000  Uiso   1.00
C709   C     0.42092   0.83333   0.50415   0.00000  Uiso   1.00
C710   C     0.57908   0.83334   0.49586   0.00000  Uiso   1.00
O711   O     0.50000   0.87292   0.42946   0.00000  Uiso   1.00
O712   O     0.50000   0.79375   0.57054   0.00000  Uiso   1.00
O713   O     0.50000   0.87292   0.57054   0.00000  Uiso   1.00
O714   O     0.50000   0.79375   0.42946   0.00000  Uiso   1.00
C715   C     0.49989   0.83333   0.40695   0.00000  Uiso   1.00
C716   C     0.50011   0.83333   0.59305   0.00000  Uiso   1.00
Cu717  Cu    0.50000   0.88022   0.50000   0.00000  Uiso   1.00
Cu718  Cu    0.50000   0.78645   0.50000   0.00000  Uiso   1.00
C719   C     0.49996   0.83333   0.35520   0.00000  Uiso   1.00
C720   C     0.50004   0.83333   0.64480   0.00000  Uiso   1.00
C721   C     0.35421   0.79093   0.50606   0.00000  Uiso   1.00
C722   C     0.64580   0.87573   0.49396   0.00000  Uiso   1.00
C723   C     0.64577   0.79095   0.49382   0.00000  Uiso   1.00
C724   C     0.35423   0.87571   0.50621   0.00000  Uiso   1.00
C725   C     0.62396   0.83334   0.49236   0.00000  Uiso   1.00
C726   C     0.37604   0.83331   0.50766   0.00000  Uiso   1.00
C727   C     0.48005   0.69135   0.46305   0.00000  Uiso   1.00
C728   C     0.51995   0.97532   0.53695   0.00000  Uiso   1.00
C729   C     0.51995   0.69136   0.53695   0.00000  Uiso   1.00
C730   C     0.48003   0.97530   0.46306   0.00000  Uiso   1.00
N731   N     0.50000   0.95069   0.50000   0.00000  Uiso   1.00
N732   N     0.50000   0.71598   0.50000   0.00000  Uiso   1.00
Br733  Br    0.37806   0.73293   0.52931   0.00000  Uiso   1.00
Br734  Br    0.62196   0.93373   0.47070   0.00000  Uiso   1.00
Br735  Br    0.62187   0.73302   0.47039   0.00000  Uiso   1.00
Br736  Br    0.37812   0.93362   0.52969   0.00000  Uiso   1.00
N737   N     0.45906   0.71507   0.42341   0.00000  Uiso   1.00
O738   O     0.42072   0.72618   0.42721   0.00000  Uiso   1.00
O739   O     0.47477   0.71522   0.38010   0.00000  Uiso   1.00
N740   N     0.54097   0.95159   0.57657   0.00000  Uiso   1.00
O741   O     0.57934   0.94065   0.57281   0.00000  Uiso   1.00
O742   O     0.52521   0.95132   0.61986   0.00000  Uiso   1.00
N743   N     0.54103   0.71510   0.57652   0.00000  Uiso   1.00
O744   O     0.52531   0.71543   0.61983   0.00000  Uiso   1.00
O745   O     0.57944   0.72593   0.57272   0.00000  Uiso   1.00
N746   N     0.45886   0.95156   0.42357   0.00000  Uiso   1.00
O747   O     0.47464   0.95097   0.38030   0.00000  Uiso   1.00
O748   O     0.42028   0.94140   0.42726   0.00000  Uiso   1.00
O749   O     0.77321   0.87291   0.50000   0.00000  Uiso   1.00
O750   O     0.89345   0.79375   0.50000   0.00000  Uiso   1.00
O751   O     0.89345   0.87291   0.50000   0.00000  Uiso   1.00
O752   O     0.77321   0.79375   0.50000   0.00000  Uiso   1.00
C753   C     0.75425   0.83333   0.50415   0.00000  Uiso   1.00
C754   C     0.91242   0.83334   0.49586   0.00000  Uiso   1.00
O755   O     0.83333   0.87292   0.42946   0.00000  Uiso   1.00
O756   O     0.83333   0.79375   0.57054   0.00000  Uiso   1.00
O757   O     0.83333   0.87292   0.57054   0.00000  Uiso   1.00
O758   O     0.83333   0.79375   0.42946   0.00000  Uiso   1.00
C759   C     0.83322   0.83333   0.40695   0.00000  Uiso   1.00
C760   C     0.83344   0.83333   0.59305   0.00000  Uiso   1.00
Cu761  Cu    0.83333   0.88022   0.50000   0.00000  Uiso   1.00
Cu762  Cu    0.83333   0.78645   0.50000   0.00000  Uiso   1.00
C763   C     0.83330   0.83333   0.35520   0.00000  Uiso   1.00
C764   C     0.83337   0.83333   0.64480   0.00000  Uiso   1.00
C765   C     0.68754   0.79093   0.50606   0.00000  Uiso   1.00
C766   C     0.97913   0.87573   0.49396   0.00000  Uiso   1.00
C767   C     0.97910   0.79095   0.49382   0.00000  Uiso   1.00
C768   C     0.68757   0.87571   0.50621   0.00000  Uiso   1.00
C769   C     0.95729   0.83334   0.49236   0.00000  Uiso   1.00
C770   C     0.70938   0.83331   0.50766   0.00000  Uiso   1.00
C771   C     0.81338   0.69135   0.46305   0.00000  Uiso   1.00
C772   C     0.85328   0.97532   0.53695   0.00000  Uiso   1.00
C773   C     0.85328   0.69136   0.53695   0.00000  Uiso   1.00
C774   C     0.81337   0.97530   0.46306   0.00000  Uiso   1.00
N775   N     0.83333   0.95069   0.50000   0.00000  Uiso   1.00
N776   N     0.83333   0.71598   0.50000   0.00000  Uiso   1.00
Br777  Br    0.71139   0.73293   0.52931   0.00000  Uiso   1.00
Br778  Br    0.95529   0.93373   0.47070   0.00000  Uiso   1.00
Br779  Br    0.95521   0.73302   0.47039   0.00000  Uiso   1.00
Br780  Br    0.71146   0.93362   0.52969   0.00000  Uiso   1.00
N781   N     0.79239   0.71507   0.42341   0.00000  Uiso   1.00
O782   O     0.75405   0.72618   0.42721   0.00000  Uiso   1.00
O783   O     0.80810   0.71522   0.38010   0.00000  Uiso   1.00
N784   N     0.87430   0.95159   0.57657   0.00000  Uiso   1.00
O785   O     0.91268   0.94065   0.57281   0.00000  Uiso   1.00
O786   O     0.85855   0.95132   0.61986   0.00000  Uiso   1.00
N787   N     0.87436   0.71510   0.57652   0.00000  Uiso   1.00
O788   O     0.85865   0.71543   0.61983   0.00000  Uiso   1.00
O789   O     0.91277   0.72593   0.57272   0.00000  Uiso   1.00
N790   N     0.79219   0.95156   0.42357   0.00000  Uiso   1.00
O791   O     0.80797   0.95097   0.38030   0.00000  Uiso   1.00
O792   O     0.75362   0.94140   0.42726   0.00000  Uiso   1.00
O793   O     0.10655   0.20625   0.83333   0.00000  Uiso   1.00
O794   O     0.22679   0.12709   0.83334   0.00000  Uiso   1.00
O795   O     0.22679   0.20625   0.83334   0.00000  Uiso   1.00
O796   O     0.10655   0.12709   0.83333   0.00000  Uiso   1.00
C797   C     0.08758   0.16666   0.83748   0.00000  Uiso   1.00
C798   C     0.24575   0.16667   0.82919   0.00000  Uiso   1.00
O799   O     0.16667   0.20625   0.76280   0.00000  Uiso   1.00
O800   O     0.16667   0.12708   0.90387   0.00000  Uiso   1.00
O801   O     0.16667   0.20625   0.90387   0.00000  Uiso   1.00
O802   O     0.16667   0.12708   0.76280   0.00000  Uiso   1.00
C803   C     0.16656   0.16667   0.74028   0.00000  Uiso   1.00
C804   C     0.16678   0.16667   0.92639   0.00000  Uiso   1.00
Cu805  Cu    0.16667   0.21355   0.83333   0.00000  Uiso   1.00
Cu806  Cu    0.16667   0.11978   0.83333   0.00000  Uiso   1.00
C807   C     0.16663   0.16667   0.68854   0.00000  Uiso   1.00
C808   C     0.16670   0.16667   0.97813   0.00000  Uiso   1.00
C809   C     0.02087   0.12426   0.83940   0.00000  Uiso   1.00
C810   C     0.31246   0.20907   0.82730   0.00000  Uiso   1.00
C811   C     0.31243   0.12428   0.82716   0.00000  Uiso   1.00
C812   C     0.02090   0.20904   0.83954   0.00000  Uiso   1.00
C813   C     0.29063   0.16668   0.82570   0.00000  Uiso   1.00
C814   C     0.04271   0.16665   0.84099   0.00000  Uiso   1.00
C815   C     0.14672   0.02468   0.79638   0.00000  Uiso   1.00
C816   C     0.18661   0.30865   0.87029   0.00000  Uiso   1.00
C817   C     0.18661   0.02470   0.87029   0.00000  Uiso   1.00
C818   C     0.14670   0.30864   0.79640   0.00000  Uiso   1.00
N819   N     0.16667   0.28402   0.83333   0.00000  Uiso   1.00
N820   N     0.16667   0.04931   0.83333   0.00000  Uiso   1.00
Br821  Br    0.04472   0.06626   0.86265   0.00000  Uiso   1.00
Br822  Br    0.28862   0.26706   0.80403   0.00000  Uiso   1.00
Br823  Br    0.28854   0.06636   0.80372   0.00000  Uiso   1.00
Br824  Br    0.04479   0.26695   0.86302   0.00000  Uiso   1.00
N825   N     0.12572   0.04841   0.75674   0.00000  Uiso   1.00
O826   O     0.08738   0.05951   0.76054   0.00000  Uiso   1.00
O827   O     0.14144   0.04855   0.71343   0.00000  Uiso   1.00
N828   N     0.20763   0.28492   0.90990   0.00000  Uiso   1.00
O829   O     0.24601   0.27399   0.90614   0.00000  Uiso   1.00
O830   O     0.19188   0.28465   0.95319   0.00000  Uiso   1.00
N831   N     0.20770   0.04844   0.90985   0.00000  Uiso   1.00
O832   O     0.19198   0.04877   0.95316   0.00000  Uiso   1.00
O833   O     0.24610   0.05926   0.90605   0.00000  Uiso   1.00
N834   N     0.12553   0.28489   0.75690   0.00000  Uiso   1.00
O835   O     0.14131   0.28431   0.71363   0.00000  Uiso   1.00
O836   O     0.08695   0.27473   0.76059   0.00000  Uiso   1.00
O837   O     0.43988   0.20625   0.83333   0.00000  Uiso   1.00
O838   O     0.56012   0.12709   0.83334   0.00000  Uiso   1.00
O839   O     0.56012   0.20625   0.83334   0.00000  Uiso   1.00
O840   O     0.43988   0.12709   0.83333   0.00000  Uiso   1.00
C841   C     0.42092   0.16666   0.83748   0.00000  Uiso   1.00
C842   C     0.57908   0.16667   0.82919   0.00000  Uiso   1.00
O843   O     0.50000   0.20625   0.76280   0.00000  Uiso   1.00
O844   O     0.50000   0.12708   0.90387   0.00000  Uiso   1.00
O845   O     0.50000   0.20625   0.90387   0.00000  Uiso   1.00
O846   O     0.50000   0.12708   0.76280   0.00000  Uiso   1.00
C847   C     0.49989   0.16667   0.74028   0.00000  Uiso   1.00
C848   C     0.50011   0.16667   0.92639   0.00000  Uiso   1.00
Cu849  Cu    0.50000   0.21355   0.83333   0.00000  Uiso   1.00
Cu850  Cu    0.50000   0.11978   0.83333   0.00000  Uiso   1.00
C851   C     0.49996   0.16667   0.68854   0.00000  Uiso   1.00
C852   C     0.50004   0.16667   0.97813   0.00000  Uiso   1.00
C853   C     0.35421   0.12426   0.83940   0.00000  Uiso   1.00
C854   C     0.64580   0.20907   0.82730   0.00000  Uiso   1.00
C855   C     0.64577   0.12428   0.82716   0.00000  Uiso   1.00
C856   C     0.35423   0.20904   0.83954   0.00000  Uiso   1.00
C857   C     0.62396   0.16668   0.82570   0.00000  Uiso   1.00
C858   C     0.37604   0.16665   0.84099   0.00000  Uiso   1.00
C859   C     0.48005   0.02468   0.79638   0.00000  Uiso   1.00
C860   C     0.51995   0.30865   0.87029   0.00000  Uiso   1.00
C861   C     0.51995   0.02470   0.87029   0.00000  Uiso   1.00
C862   C     0.48003   0.30864   0.79640   0.00000  Uiso   1.00
N863   N     0.50000   0.28402   0.83333   0.00000  Uiso   1.00
N864   N     0.50000   0.04931   0.83333   0.00000  Uiso   1.00
Br865  Br    0.37806   0.06626   0.86265   0.00000  Uiso   1.00
Br866  Br    0.62196   0.26706   0.80403   0.00000  Uiso   1.00
Br867  Br    0.62187   0.06636   0.80372   0.00000  Uiso   1.00
Br868  Br    0.37812   0.26695   0.86302   0.00000  Uiso   1.00
N869   N     0.45906   0.04841   0.75674   0.00000  Uiso   1.00
O870   O     0.42072   0.05951   0.76054   0.00000  Uiso   1.00
O871   O     0.47477   0.04855   0.71343   0.00000  Uiso   1.00
N872   N     0.54097   0.28492   0.90990   0.00000  Uiso   1.00
O873   O     0.57934   0.27399   0.90614   0.00000  Uiso   1.00
O874   O     0.52521   0.28465   0.95319   0.00000  Uiso   1.00
N875   N     0.54103   0.04844   0.90985   0.00000  Uiso   1.00
O876   O     0.52531   0.04877   0.95316   0.00000  Uiso   1.00
O877   O     0.57944   0.05926   0.90605   0.00000  Uiso   1.00
N878   N     0.45886   0.28489   0.75690   0.00000  Uiso   1.00
O879   O     0.47464   0.28431   0.71363   0.00000  Uiso   1.00
O880   O     0.42028   0.27473   0.76059   0.00000  Uiso   1.00
O881   O     0.77321   0.20625   0.83333   0.00000  Uiso   1.00
O882   O     0.89345   0.12709   0.83334   0.00000  Uiso   1.00
O883   O     0.89345   0.20625   0.83334   0.00000  Uiso   1.00
O884   O     0.77321   0.12709   0.83333   0.00000  Uiso   1.00
C885   C     0.75425   0.16666   0.83748   0.00000  Uiso   1.00
C886   C     0.91242   0.16667   0.82919   0.00000  Uiso   1.00
O887   O     0.83333   0.20625   0.76280   0.00000  Uiso   1.00
O888   O     0.83333   0.12708   0.90387   0.00000  Uiso   1.00
O889   O     0.83333   0.20625   0.90387   0.00000  Uiso   1.00
O890   O     0.83333   0.12708   0.76280   0.00000  Uiso   1.00
C891   C     0.83322   0.16667   0.74028   0.00000  Uiso   1.00
C892   C     0.83344   0.16667   0.92639   0.00000  Uiso   1.00
Cu893  Cu    0.83333   0.21355   0.83333   0.00000  Uiso   1.00
Cu894  Cu    0.83333   0.11978   0.83333   0.00000  Uiso   1.00
C895   C     0.83330   0.16667   0.68854   0.00000  Uiso   1.00
C896   C     0.83337   0.16667   0.97813   0.00000  Uiso   1.00
C897   C     0.68754   0.12426   0.83940   0.00000  Uiso   1.00
C898   C     0.97913   0.20907   0.82730   0.00000  Uiso   1.00
C899   C     0.97910   0.12428   0.82716   0.00000  Uiso   1.00
C900   C     0.68757   0.20904   0.83954   0.00000  Uiso   1.00
C901   C     0.95729   0.16668   0.82570   0.00000  Uiso   1.00
C902   C     0.70938   0.16665   0.84099   0.00000  Uiso   1.00
C903   C     0.81338   0.02468   0.79638   0.00000  Uiso   1.00
C904   C     0.85328   0.30865   0.87029   0.00000  Uiso   1.00
C905   C     0.85328   0.02470   0.87029   0.00000  Uiso   1.00
C906   C     0.81337   0.30864   0.79640   0.00000  Uiso   1.00
N907   N     0.83333   0.28402   0.83333   0.00000  Uiso   1.00
N908   N     0.83333   0.04931   0.83333   0.00000  Uiso   1.00
Br909  Br    0.71139   0.06626   0.86265   0.00000  Uiso   1.00
Br910  Br    0.95529   0.26706   0.80403   0.00000  Uiso   1.00
Br911  Br    0.95521   0.06636   0.80372   0.00000  Uiso   1.00
Br912  Br    0.71146   0.26695   0.86302   0.00000  Uiso   1.00
N913   N     0.79239   0.04841   0.75674   0.00000  Uiso   1.00
O914   O     0.75405   0.05951   0.76054   0.00000  Uiso   1.00
O915   O     0.80810   0.04855   0.71343   0.00000  Uiso   1.00
N916   N     0.87430   0.28492   0.90990   0.00000  Uiso   1.00
O917   O     0.91268   0.27399   0.90614   0.00000  Uiso   1.00
O918   O     0.85855   0.28465   0.95319   0.00000  Uiso   1.00
N919   N     0.87436   0.04844   0.90985   0.00000  Uiso   1.00
O920   O     0.85865   0.04877   0.95316   0.00000  Uiso   1.00
O921   O     0.91277   0.05926   0.90605   0.00000  Uiso   1.00
N922   N     0.79219   0.28489   0.75690   0.00000  Uiso   1.00
O923   O     0.80797   0.28431   0.71363   0.00000  Uiso   1.00
O924   O     0.75362   0.27473   0.76059   0.00000  Uiso   1.00
O925   O     0.10655   0.53958   0.83333   0.00000  Uiso   1.00
O926   O     0.22679   0.46042   0.83334   0.00000  Uiso   1.00
O927   O     0.22679   0.53958   0.83334   0.00000  Uiso   1.00
O928   O     0.10655   0.46042   0.83333   0.00000  Uiso   1.00
C929   C     0.08758   0.49999   0.83748   0.00000  Uiso   1.00
C930   C     0.24575   0.50001   0.82919   0.00000  Uiso   1.00
O931   O     0.16667   0.53959   0.76280   0.00000  Uiso   1.00
O932   O     0.16667   0.46041   0.90387   0.00000  Uiso   1.00
O933   O     0.16667   0.53959   0.90387   0.00000  Uiso   1.00
O934   O     0.16667   0.46041   0.76280   0.00000  Uiso   1.00
C935   C     0.16656   0.50000   0.74028   0.00000  Uiso   1.00
C936   C     0.16678   0.50000   0.92639   0.00000  Uiso   1.00
Cu937  Cu    0.16667   0.54689   0.83333   0.00000  Uiso   1.00
Cu938  Cu    0.16667   0.45311   0.83333   0.00000  Uiso   1.00
C939   C     0.16663   0.50000   0.68854   0.00000  Uiso   1.00
C940   C     0.16670   0.50000   0.97813   0.00000  Uiso   1.00
C941   C     0.02087   0.45759   0.83940   0.00000  Uiso   1.00
C942   C     0.31246   0.54240   0.82730   0.00000  Uiso   1.00
C943   C     0.31243   0.45761   0.82716   0.00000  Uiso   1.00
C944   C     0.02090   0.54238   0.83954   0.00000  Uiso   1.00
C945   C     0.29063   0.50001   0.82570   0.00000  Uiso   1.00
C946   C     0.04271   0.49998   0.84099   0.00000  Uiso   1.00
C947   C     0.14672   0.35802   0.79638   0.00000  Uiso   1.00
C948   C     0.18661   0.64198   0.87029   0.00000  Uiso   1.00
C949   C     0.18661   0.35803   0.87029   0.00000  Uiso   1.00
C950   C     0.14670   0.64197   0.79640   0.00000  Uiso   1.00
N951   N     0.16667   0.61736   0.83333   0.00000  Uiso   1.00
N952   N     0.16667   0.38264   0.83333   0.00000  Uiso   1.00
Br953  Br    0.04472   0.39960   0.86265   0.00000  Uiso   1.00
Br954  Br    0.28862   0.60040   0.80403   0.00000  Uiso   1.00
Br955  Br    0.28854   0.39969   0.80372   0.00000  Uiso   1.00
Br956  Br    0.04479   0.60029   0.86302   0.00000  Uiso   1.00
N957   N     0.12572   0.38174   0.75674   0.00000  Uiso   1.00
O958   O     0.08738   0.39285   0.76054   0.00000  Uiso   1.00
O959   O     0.14144   0.38188   0.71343   0.00000  Uiso   1.00
N960   N     0.20763   0.61826   0.90990   0.00000  Uiso   1.00
O961   O     0.24601   0.60732   0.90614   0.00000  Uiso   1.00
O962   O     0.19188   0.61798   0.95319   0.00000  Uiso   1.00
N963   N     0.20770   0.38177   0.90985   0.00000  Uiso   1.00
O964   O     0.19198   0.38210   0.95316   0.00000  Uiso   1.00
O965   O     0.24610   0.39259   0.90605   0.00000  Uiso   1.00
N966   N     0.12553   0.61822   0.75690   0.00000  Uiso   1.00
O967   O     0.14131   0.61764   0.71363   0.00000  Uiso   1.00
O968   O     0.08695   0.60806   0.76059   0.00000  Uiso   1.00
O969   O     0.43988   0.53958   0.83333   0.00000  Uiso   1.00
O970   O     0.56012   0.46042   0.83334   0.00000  Uiso   1.00
O971   O     0.56012   0.53958   0.83334   0.00000  Uiso   1.00
O972   O     0.43988   0.46042   0.83333   0.00000  Uiso   1.00
C973   C     0.42092   0.49999   0.83748   0.00000  Uiso   1.00
C974   C     0.57908   0.50001   0.82919   0.00000  Uiso   1.00
O975   O     0.50000   0.53959   0.76280   0.00000  Uiso   1.00
O976   O     0.50000   0.46041   0.90387   0.00000  Uiso   1.00
O977   O     0.50000   0.53959   0.90387   0.00000  Uiso   1.00
O978   O     0.50000   0.46041   0.76280   0.00000  Uiso   1.00
C979   C     0.49989   0.50000   0.74028   0.00000  Uiso   1.00
C980   C     0.50011   0.50000   0.92639   0.00000  Uiso   1.00
Cu981  Cu    0.50000   0.54689   0.83333   0.00000  Uiso   1.00
Cu982  Cu    0.50000   0.45311   0.83333   0.00000  Uiso   1.00
C983   C     0.49996   0.50000   0.68854   0.00000  Uiso   1.00
C984   C     0.50004   0.50000   0.97813   0.00000  Uiso   1.00
C985   C     0.35421   0.45759   0.83940   0.00000  Uiso   1.00
C986   C     0.64580   0.54240   0.82730   0.00000  Uiso   1.00
C987   C     0.64577   0.45761   0.82716   0.00000  Uiso   1.00
C988   C     0.35423   0.54238   0.83954   0.00000  Uiso   1.00
C989   C     0.62396   0.50001   0.82570   0.00000  Uiso   1.00
C990   C     0.37604   0.49998   0.84099   0.00000  Uiso   1.00
C991   C     0.48005   0.35802   0.79638   0.00000  Uiso   1.00
C992   C     0.51995   0.64198   0.87029   0.00000  Uiso   1.00
C993   C     0.51995   0.35803   0.87029   0.00000  Uiso   1.00
C994   C     0.48003   0.64197   0.79640   0.00000  Uiso   1.00
N995   N     0.50000   0.61736   0.83333   0.00000  Uiso   1.00
N996   N     0.50000   0.38264   0.83333   0.00000  Uiso   1.00
Br997  Br    0.37806   0.39960   0.86265   0.00000  Uiso   1.00
Br998  Br    0.62196   0.60040   0.80403   0.00000  Uiso   1.00
Br999  Br    0.62187   0.39969   0.80372   0.00000  Uiso   1.00
Br1000 Br    0.37812   0.60029   0.86302   0.00000  Uiso   1.00
N1001  N     0.45906   0.38174   0.75674   0.00000  Uiso   1.00
O1002  O     0.42072   0.39285   0.76054   0.00000  Uiso   1.00
O1003  O     0.47477   0.38188   0.71343   0.00000  Uiso   1.00
N1004  N     0.54097   0.61826   0.90990   0.00000  Uiso   1.00
O1005  O     0.57934   0.60732   0.90614   0.00000  Uiso   1.00
O1006  O     0.52521   0.61798   0.95319   0.00000  Uiso   1.00
N1007  N     0.54103   0.38177   0.90985   0.00000  Uiso   1.00
O1008  O     0.52531   0.38210   0.95316   0.00000  Uiso   1.00
O1009  O     0.57944   0.39259   0.90605   0.00000  Uiso   1.00
N1010  N     0.45886   0.61822   0.75690   0.00000  Uiso   1.00
O1011  O     0.47464   0.61764   0.71363   0.00000  Uiso   1.00
O1012  O     0.42028   0.60806   0.76059   0.00000  Uiso   1.00
O1013  O     0.77321   0.53958   0.83333   0.00000  Uiso   1.00
O1014  O     0.89345   0.46042   0.83334   0.00000  Uiso   1.00
O1015  O     0.89345   0.53958   0.83334   0.00000  Uiso   1.00
O1016  O     0.77321   0.46042   0.83333   0.00000  Uiso   1.00
C1017  C     0.75425   0.49999   0.83748   0.00000  Uiso   1.00
C1018  C     0.91242   0.50001   0.82919   0.00000  Uiso   1.00
O1019  O     0.83333   0.53959   0.76280   0.00000  Uiso   1.00
O1020  O     0.83333   0.46041   0.90387   0.00000  Uiso   1.00
O1021  O     0.83333   0.53959   0.90387   0.00000  Uiso   1.00
O1022  O     0.83333   0.46041   0.76280   0.00000  Uiso   1.00
C1023  C     0.83322   0.50000   0.74028   0.00000  Uiso   1.00
C1024  C     0.83344   0.50000   0.92639   0.00000  Uiso   1.00
Cu1025 Cu    0.83333   0.54689   0.83333   0.00000  Uiso   1.00
Cu1026 Cu    0.83333   0.45311   0.83333   0.00000  Uiso   1.00
C1027  C     0.83330   0.50000   0.68854   0.00000  Uiso   1.00
C1028  C     0.83337   0.50000   0.97813   0.00000  Uiso   1.00
C1029  C     0.68754   0.45759   0.83940   0.00000  Uiso   1.00
C1030  C     0.97913   0.54240   0.82730   0.00000  Uiso   1.00
C1031  C     0.97910   0.45761   0.82716   0.00000  Uiso   1.00
C1032  C     0.68757   0.54238   0.83954   0.00000  Uiso   1.00
C1033  C     0.95729   0.50001   0.82570   0.00000  Uiso   1.00
C1034  C     0.70938   0.49998   0.84099   0.00000  Uiso   1.00
C1035  C     0.81338   0.35802   0.79638   0.00000  Uiso   1.00
C1036  C     0.85328   0.64198   0.87029   0.00000  Uiso   1.00
C1037  C     0.85328   0.35803   0.87029   0.00000  Uiso   1.00
C1038  C     0.81337   0.64197   0.79640   0.00000  Uiso   1.00
N1039  N     0.83333   0.61736   0.83333   0.00000  Uiso   1.00
N1040  N     0.83333   0.38264   0.83333   0.00000  Uiso   1.00
Br1041 Br    0.71139   0.39960   0.86265   0.00000  Uiso   1.00
Br1042 Br    0.95529   0.60040   0.80403   0.00000  Uiso   1.00
Br1043 Br    0.95521   0.39969   0.80372   0.00000  Uiso   1.00
Br1044 Br    0.71146   0.60029   0.86302   0.00000  Uiso   1.00
N1045  N     0.79239   0.38174   0.75674   0.00000  Uiso   1.00
O1046  O     0.75405   0.39285   0.76054   0.00000  Uiso   1.00
O1047  O     0.80810   0.38188   0.71343   0.00000  Uiso   1.00
N1048  N     0.87430   0.61826   0.90990   0.00000  Uiso   1.00
O1049  O     0.91268   0.60732   0.90614   0.00000  Uiso   1.00
O1050  O     0.85855   0.61798   0.95319   0.00000  Uiso   1.00
N1051  N     0.87436   0.38177   0.90985   0.00000  Uiso   1.00
O1052  O     0.85865   0.38210   0.95316   0.00000  Uiso   1.00
O1053  O     0.91277   0.39259   0.90605   0.00000  Uiso   1.00
N1054  N     0.79219   0.61822   0.75690   0.00000  Uiso   1.00
O1055  O     0.80797   0.61764   0.71363   0.00000  Uiso   1.00
O1056  O     0.75362   0.60806   0.76059   0.00000  Uiso   1.00
O1057  O     0.10655   0.87291   0.83333   0.00000  Uiso   1.00
O1058  O     0.22679   0.79375   0.83334   0.00000  Uiso   1.00
O1059  O     0.22679   0.87291   0.83334   0.00000  Uiso   1.00
O1060  O     0.10655   0.79375   0.83333   0.00000  Uiso   1.00
C1061  C     0.08758   0.83333   0.83748   0.00000  Uiso   1.00
C1062  C     0.24575   0.83334   0.82919   0.00000  Uiso   1.00
O1063  O     0.16667   0.87292   0.76280   0.00000  Uiso   1.00
O1064  O     0.16667   0.79375   0.90387   0.00000  Uiso   1.00
O1065  O     0.16667   0.87292   0.90387   0.00000  Uiso   1.00
O1066  O     0.16667   0.79375   0.76280   0.00000  Uiso   1.00
C1067  C     0.16656   0.83333   0.74028   0.00000  Uiso   1.00
C1068  C     0.16678   0.83333   0.92639   0.00000  Uiso   1.00
Cu1069 Cu    0.16667   0.88022   0.83333   0.00000  Uiso   1.00
Cu1070 Cu    0.16667   0.78645   0.83333   0.00000  Uiso   1.00
C1071  C     0.16663   0.83333   0.68854   0.00000  Uiso   1.00
C1072  C     0.16670   0.83333   0.97813   0.00000  Uiso   1.00
C1073  C     0.02087   0.79093   0.83940   0.00000  Uiso   1.00
C1074  C     0.31246   0.87573   0.82730   0.00000  Uiso   1.00
C1075  C     0.31243   0.79095   0.82716   0.00000  Uiso   1.00
C1076  C     0.02090   0.87571   0.83954   0.00000  Uiso   1.00
C1077  C     0.29063   0.83334   0.82570   0.00000  Uiso   1.00
C1078  C     0.04271   0.83331   0.84099   0.00000  Uiso   1.00
C1079  C     0.14672   0.69135   0.79638   0.00000  Uiso   1.00
C1080  C     0.18661   0.97532   0.87029   0.00000  Uiso   1.00
C1081  C     0.18661   0.69136   0.87029   0.00000  Uiso   1.00
C1082  C     0.14670   0.97530   0.79640   0.00000  Uiso   1.00
N1083  N     0.16667   0.95069   0.83333   0.00000  Uiso   1.00
N1084  N     0.16667   0.71598   0.83333   0.00000  Uiso   1.00
Br1085 Br    0.04472   0.73293   0.86265   0.00000  Uiso   1.00
Br1086 Br    0.28862   0.93373   0.80403   0.00000  Uiso   1.00
Br1087 Br    0.28854   0.73302   0.80372   0.00000  Uiso   1.00
Br1088 Br    0.04479   0.93362   0.86302   0.00000  Uiso   1.00
N1089  N     0.12572   0.71507   0.75674   0.00000  Uiso   1.00
O1090  O     0.08738   0.72618   0.76054   0.00000  Uiso   1.00
O1091  O     0.14144   0.71522   0.71343   0.00000  Uiso   1.00
N1092  N     0.20763   0.95159   0.90990   0.00000  Uiso   1.00
O1093  O     0.24601   0.94065   0.90614   0.00000  Uiso   1.00
O1094  O     0.19188   0.95132   0.95319   0.00000  Uiso   1.00
N1095  N     0.20770   0.71510   0.90985   0.00000  Uiso   1.00
O1096  O     0.19198   0.71543   0.95316   0.00000  Uiso   1.00
O1097  O     0.24610   0.72593   0.90605   0.00000  Uiso   1.00
N1098  N     0.12553   0.95156   0.75690   0.00000  Uiso   1.00
O1099  O     0.14131   0.95097   0.71363   0.00000  Uiso   1.00
O1100  O     0.08695   0.94140   0.76059   0.00000  Uiso   1.00
O1101  O     0.43988   0.87291   0.83333   0.00000  Uiso   1.00
O1102  O     0.56012   0.79375   0.83334   0.00000  Uiso   1.00
O1103  O     0.56012   0.87291   0.83334   0.00000  Uiso   1.00
O1104  O     0.43988   0.79375   0.83333   0.00000  Uiso   1.00
C1105  C     0.42092   0.83333   0.83748   0.00000  Uiso   1.00
C1106  C     0.57908   0.83334   0.82919   0.00000  Uiso   1.00
O1107  O     0.50000   0.87292   0.76280   0.00000  Uiso   1.00
O1108  O     0.50000   0.79375   0.90387   0.00000  Uiso   1.00
O1109  O     0.50000   0.87292   0.90387   0.00000  Uiso   1.00
O1110  O     0.50000   0.79375   0.76280   0.00000  Uiso   1.00
C1111  C     0.49989   0.83333   0.74028   0.00000  Uiso   1.00
C1112  C     0.50011   0.83333   0.92639   0.00000  Uiso   1.00
Cu1113 Cu    0.50000   0.88022   0.83333   0.00000  Uiso   1.00
Cu1114 Cu    0.50000   0.78645   0.83333   0.00000  Uiso   1.00
C1115  C     0.49996   0.83333   0.68854   0.00000  Uiso   1.00
C1116  C     0.50004   0.83333   0.97813   0.00000  Uiso   1.00
C1117  C     0.35421   0.79093   0.83940   0.00000  Uiso   1.00
C1118  C     0.64580   0.87573   0.82730   0.00000  Uiso   1.00
C1119  C     0.64577   0.79095   0.82716   0.00000  Uiso   1.00
C1120  C     0.35423   0.87571   0.83954   0.00000  Uiso   1.00
C1121  C     0.62396   0.83334   0.82570   0.00000  Uiso   1.00
C1122  C     0.37604   0.83331   0.84099   0.00000  Uiso   1.00
C1123  C     0.48005   0.69135   0.79638   0.00000  Uiso   1.00
C1124  C     0.51995   0.97532   0.87029   0.00000  Uiso   1.00
C1125  C     0.51995   0.69136   0.87029   0.00000  Uiso   1.00
C1126  C     0.48003   0.97530   0.79640   0.00000  Uiso   1.00
N1127  N     0.50000   0.95069   0.83333   0.00000  Uiso   1.00
N1128  N     0.50000   0.71598   0.83333   0.00000  Uiso   1.00
Br1129 Br    0.37806   0.73293   0.86265   0.00000  Uiso   1.00
Br1130 Br    0.62196   0.93373   0.80403   0.00000  Uiso   1.00
Br1131 Br    0.62187   0.73302   0.80372   0.00000  Uiso   1.00
Br1132 Br    0.37812   0.93362   0.86302   0.00000  Uiso   1.00
N1133  N     0.45906   0.71507   0.75674   0.00000  Uiso   1.00
O1134  O     0.42072   0.72618   0.76054   0.00000  Uiso   1.00
O1135  O     0.47477   0.71522   0.71343   0.00000  Uiso   1.00
N1136  N     0.54097   0.95159   0.90990   0.00000  Uiso   1.00
O1137  O     0.57934   0.94065   0.90614   0.00000  Uiso   1.00
O1138  O     0.52521   0.95132   0.95319   0.00000  Uiso   1.00
N1139  N     0.54103   0.71510   0.90985   0.00000  Uiso   1.00
O1140  O     0.52531   0.71543   0.95316   0.00000  Uiso   1.00
O1141  O     0.57944   0.72593   0.90605   0.00000  Uiso   1.00
N1142  N     0.45886   0.95156   0.75690   0.00000  Uiso   1.00
O1143  O     0.47464   0.95097   0.71363   0.00000  Uiso   1.00
O1144  O     0.42028   0.94140   0.76059   0.00000  Uiso   1.00
O1145  O     0.77321   0.87291   0.83333   0.00000  Uiso   1.00
O1146  O     0.89345   0.79375   0.83334   0.00000  Uiso   1.00
O1147  O     0.89345   0.87291   0.83334   0.00000  Uiso   1.00
O1148  O     0.77321   0.79375   0.83333   0.00000  Uiso   1.00
C1149  C     0.75425   0.83333   0.83748   0.00000  Uiso   1.00
C1150  C     0.91242   0.83334   0.82919   0.00000  Uiso   1.00
O1151  O     0.83333   0.87292   0.76280   0.00000  Uiso   1.00
O1152  O     0.83333   0.79375   0.90387   0.00000  Uiso   1.00
O1153  O     0.83333   0.87292   0.90387   0.00000  Uiso   1.00
O1154  O     0.83333   0.79375   0.76280   0.00000  Uiso   1.00
C1155  C     0.83322   0.83333   0.74028   0.00000  Uiso   1.00
C1156  C     0.83344   0.83333   0.92639   0.00000  Uiso   1.00
Cu1157 Cu    0.83333   0.88022   0.83333   0.00000  Uiso   1.00
Cu1158 Cu    0.83333   0.78645   0.83333   0.00000  Uiso   1.00
C1159  C     0.83330   0.83333   0.68854   0.00000  Uiso   1.00
C1160  C     0.83337   0.83333   0.97813   0.00000  Uiso   1.00
C1161  C     0.68754   0.79093   0.83940   0.00000  Uiso   1.00
C1162  C     0.97913   0.87573   0.82730   0.00000  Uiso   1.00
C1163  C     0.97910   0.79095   0.82716   0.00000  Uiso   1.00
C1164  C     0.68757   0.87571   0.83954   0.00000  Uiso   1.00
C1165  C     0.95729   0.83334   0.82570   0.00000  Uiso   1.00
C1166  C     0.70938   0.83331   0.84099   0.00000  Uiso   1.00
C1167  C     0.81338   0.69135   0.79638   0.00000  Uiso   1.00
C1168  C     0.85328   0.97532   0.87029   0.00000  Uiso   1.00
C1169  C     0.85328   0.69136   0.87029   0.00000  Uiso   1.00
C1170  C     0.81337   0.97530   0.79640   0.00000  Uiso   1.00
N1171  N     0.83333   0.95069   0.83333   0.00000  Uiso   1.00
N1172  N     0.83333   0.71598   0.83333   0.00000  Uiso   1.00
Br1173 Br    0.71139   0.73293   0.86265   0.00000  Uiso   1.00
Br1174 Br    0.95529   0.93373   0.80403   0.00000  Uiso   1.00
Br1175 Br    0.95521   0.73302   0.80372   0.00000  Uiso   1.00
Br1176 Br    0.71146   0.93362   0.86302   0.00000  Uiso   1.00
N1177  N     0.79239   0.71507   0.75674   0.00000  Uiso   1.00
O1178  O     0.75405   0.72618   0.76054   0.00000  Uiso   1.00
O1179  O     0.80810   0.71522   0.71343   0.00000  Uiso   1.00
N1180  N     0.87430   0.95159   0.90990   0.00000  Uiso   1.00
O1181  O     0.91268   0.94065   0.90614   0.00000  Uiso   1.00
O1182  O     0.85855   0.95132   0.95319   0.00000  Uiso   1.00
N1183  N     0.87436   0.71510   0.90985   0.00000  Uiso   1.00
O1184  O     0.85865   0.71543   0.95316   0.00000  Uiso   1.00
O1185  O     0.91277   0.72593   0.90605   0.00000  Uiso   1.00
N1186  N     0.79219   0.95156   0.75690   0.00000  Uiso   1.00
O1187  O     0.80797   0.95097   0.71363   0.00000  Uiso   1.00
O1188  O     0.75362   0.94140   0.76059   0.00000  Uiso   1.00
loop_
_geom_bond_atom_site_label_1
_geom_bond_atom_site_label_2
_geom_bond_distance
_geom_bond_site_symmetry_2
_ccdc_geom_bond_type
O1     C5      1.304   .     A
O1     Cu13    1.973   .     S
O2     C6      1.303   .     A
O2     Cu14    1.973   .     S
O3     Cu13    1.973   .     S
O3     C6      1.304   .     A
O4     Cu14    1.973   .     S
O4     C5      1.303   .     A
C5     C22     1.471   .     S
C6     C21     1.471   .     S
O7     C11     1.294   .     A
O7     Cu13    1.929   .     S
O8     C12     1.294   .     A
O8     Cu14    1.929   .     S
O9     C12     1.294   .     A
O9     Cu13    1.929   .     S
O10    C11     1.294   .     A
O10    Cu14    1.929   .     S
C11    C15     1.407   .     S
C12    C16     1.407   .     S
Cu13   Cu14    2.700   .     S
Cu13   N27     2.029   .     S
Cu14   N28     2.029   .     S
C15    C808    1.189   1_554 S
C16    C411    1.189   .     S
C17    Br29    1.939   .     S
C17    C22     1.413   .     A
C17    C107    1.392   1_455 S
C18    Br30    1.939   .     S
C18    C21     1.413   .     A
C18    C64     1.392   .     S
C19    Br31    1.939   .     S
C19    C21     1.413   .     A
C19    C61     1.392   .     S
C20    C22     1.413   .     A
C20    Br32    1.939   .     S
C20    C106    1.392   1_455 S
C23    N28     1.374   .     A
C23    N33     1.430   .     S
C23    C290    1.422   1_545 S
C24    N27     1.374   .     A
C24    N36     1.430   .     S
C24    C157    1.422   .     S
C25    N39     1.430   .     S
C25    N28     1.374   .     A
C25    C288    1.422   1_545 S
C26    N27     1.374   .     A
C26    N42     1.430   .     S
C26    C155    1.422   .     S
N33    O34     1.299   .     A
N33    O35     1.301   .     A
N36    O38     1.301   .     A
N36    O37     1.299   .     A
N39    O41     1.299   .     A
N39    O40     1.301   .     A
N42    O43     1.301   .     A
N42    O44     1.300   .     A
O45    C49     1.304   .     A
O45    Cu57    1.973   .     S
O46    C50     1.303   .     A
O46    Cu58    1.973   .     S
O47    Cu57    1.973   .     S
O47    C50     1.304   .     A
O48    Cu58    1.973   .     S
O48    C49     1.303   .     A
C49    C66     1.471   .     S
C50    C65     1.471   .     S
O51    C55     1.294   .     A
O51    Cu57    1.929   .     S
O52    C56     1.294   .     A
O52    Cu58    1.929   .     S
O53    C56     1.294   .     A
O53    Cu57    1.929   .     S
O54    C55     1.294   .     A
O54    Cu58    1.929   .     S
C55    C59     1.407   .     S
C56    C60     1.407   .     S
Cu57   Cu58    2.700   .     S
Cu57   N71     2.029   .     S
Cu58   N72     2.029   .     S
C59    C852    1.189   1_554 S
C60    C455    1.189   .     S
C61    Br73    1.939   .     S
C61    C66     1.413   .     A
C62    Br74    1.939   .     S
C62    C65     1.413   .     A
C62    C108    1.392   .     S
C63    Br75    1.939   .     S
C63    C65     1.413   .     A
C63    C105    1.392   .     S
C64    C66     1.413   .     A
C64    Br76    1.939   .     S
C67    N72     1.374   .     A
C67    N77     1.430   .     S
C67    C334    1.422   1_545 S
C68    N71     1.374   .     A
C68    N80     1.430   .     S
C68    C201    1.422   .     S
C69    N83     1.430   .     S
C69    N72     1.374   .     A
C69    C332    1.422   1_545 S
C70    N71     1.374   .     A
C70    N86     1.430   .     S
C70    C199    1.422   .     S
N77    O78     1.299   .     A
N77    O79     1.301   .     A
N80    O82     1.301   .     A
N80    O81     1.299   .     A
N83    O85     1.299   .     A
N83    O84     1.301   .     A
N86    O87     1.301   .     A
N86    O88     1.300   .     A
O89    C93     1.304   .     A
O89    Cu101   1.973   .     S
O90    C94     1.303   .     A
O90    Cu102   1.973   .     S
O91    Cu101   1.973   .     S
O91    C94     1.304   .     A
O92    Cu102   1.973   .     S
O92    C93     1.303   .     A
C93    C110    1.471   .     S
C94    C109    1.471   .     S
O95    C99     1.294   .     A
O95    Cu101   1.929   .     S
O96    C100    1.294   .     A
O96    Cu102   1.929   .     S
O97    C100    1.294   .     A
O97    Cu101   1.929   .     S
O98    C99     1.294   .     A
O98    Cu102   1.929   .     S
C99    C103    1.407   .     S
C100   C104    1.407   .     S
Cu101  Cu102   2.700   .     S
Cu101  N115    2.029   .     S
Cu102  N116    2.029   .     S
C103   C896    1.189   1_554 S
C104   C499    1.189   .     S
C105   Br117   1.939   .     S
C105   C110    1.413   .     A
C106   Br118   1.939   .     S
C106   C109    1.413   .     A
C106   C20     1.392   1_655 S
C107   Br119   1.939   .     S
C107   C109    1.413   .     A
C107   C17     1.392   1_655 S
C108   C110    1.413   .     A
C108   Br120   1.939   .     S
C111   N116    1.374   .     A
C111   N121    1.430   .     S
C111   C378    1.422   1_545 S
C112   N115    1.374   .     A
C112   N124    1.430   .     S
C112   C245    1.422   .     S
C113   N127    1.430   .     S
C113   N116    1.374   .     A
C113   C376    1.422   1_545 S
C114   N115    1.374   .     A
C114   N130    1.430   .     S
C114   C243    1.422   .     S
N121   O122    1.299   .     A
N121   O123    1.301   .     A
N124   O126    1.301   .     A
N124   O125    1.299   .     A
N127   O129    1.299   .     A
N127   O128    1.301   .     A
N130   O131    1.301   .     A
N130   O132    1.300   .     A
O133   C137    1.304   .     A
O133   Cu145   1.973   .     S
O134   C138    1.303   .     A
O134   Cu146   1.973   .     S
O135   Cu145   1.973   .     S
O135   C138    1.304   .     A
O136   Cu146   1.973   .     S
O136   C137    1.303   .     A
C137   C154    1.471   .     S
C138   C153    1.471   .     S
O139   C143    1.294   .     A
O139   Cu145   1.929   .     S
O140   C144    1.294   .     A
O140   Cu146   1.929   .     S
O141   C144    1.294   .     A
O141   Cu145   1.929   .     S
O142   C143    1.294   .     A
O142   Cu146   1.929   .     S
C143   C147    1.407   .     S
C144   C148    1.407   .     S
Cu145  Cu146   2.700   .     S
Cu145  N159    2.029   .     S
Cu146  N160    2.029   .     S
C147   C940    1.189   1_554 S
C148   C543    1.189   .     S
C149   Br161   1.939   .     S
C149   C154    1.413   .     A
C149   C239    1.392   1_455 S
C150   Br162   1.939   .     S
C150   C153    1.413   .     A
C150   C196    1.392   .     S
C151   Br163   1.939   .     S
C151   C153    1.413   .     A
C151   C193    1.392   .     S
C152   C154    1.413   .     A
C152   Br164   1.939   .     S
C152   C238    1.392   1_455 S
C155   N160    1.374   .     A
C155   N165    1.430   .     S
C156   N159    1.374   .     A
C156   N168    1.430   .     S
C156   C289    1.422   .     S
C157   N171    1.430   .     S
C157   N160    1.374   .     A
C158   N159    1.374   .     A
C158   N174    1.430   .     S
C158   C287    1.422   .     S
N165   O166    1.299   .     A
N165   O167    1.301   .     A
N168   O170    1.301   .     A
N168   O169    1.299   .     A
N171   O173    1.299   .     A
N171   O172    1.301   .     A
N174   O175    1.301   .     A
N174   O176    1.300   .     A
O177   C181    1.304   .     A
O177   Cu189   1.973   .     S
O178   C182    1.303   .     A
O178   Cu190   1.973   .     S
O179   Cu189   1.973   .     S
O179   C182    1.304   .     A
O180   Cu190   1.973   .     S
O180   C181    1.303   .     A
C181   C198    1.471   .     S
C182   C197    1.471   .     S
O183   C187    1.294   .     A
O183   Cu189   1.929   .     S
O184   C188    1.294   .     A
O184   Cu190   1.929   .     S
O185   C188    1.294   .     A
O185   Cu189   1.929   .     S
O186   C187    1.294   .     A
O186   Cu190   1.929   .     S
C187   C191    1.407   .     S
C188   C192    1.407   .     S
Cu189  Cu190   2.700   .     S
Cu189  N203    2.029   .     S
Cu190  N204    2.029   .     S
C191   C984    1.189   1_554 S
C192   C587    1.189   .     S
C193   Br205   1.939   .     S
C193   C198    1.413   .     A
C194   Br206   1.939   .     S
C194   C197    1.413   .     A
C194   C240    1.392   .     S
C195   Br207   1.939   .     S
C195   C197    1.413   .     A
C195   C237    1.392   .     S
C196   C198    1.413   .     A
C196   Br208   1.939   .     S
C199   N204    1.374   .     A
C199   N209    1.430   .     S
C200   N203    1.374   .     A
C200   N212    1.430   .     S
C200   C333    1.422   .     S
C201   N215    1.430   .     S
C201   N204    1.374   .     A
C202   N203    1.374   .     A
C202   N218    1.430   .     S
C202   C331    1.422   .     S
N209   O210    1.299   .     A
N209   O211    1.301   .     A
N212   O214    1.301   .     A
N212   O213    1.299   .     A
N215   O217    1.299   .     A
N215   O216    1.301   .     A
N218   O219    1.301   .     A
N218   O220    1.300   .     A
O221   C225    1.304   .     A
O221   Cu233   1.973   .     S
O222   C226    1.303   .     A
O222   Cu234   1.973   .     S
O223   Cu233   1.973   .     S
O223   C226    1.304   .     A
O224   Cu234   1.973   .     S
O224   C225    1.303   .     A
C225   C242    1.471   .     S
C226   C241    1.471   .     S
O227   C231    1.294   .     A
O227   Cu233   1.929   .     S
O228   C232    1.294   .     A
O228   Cu234   1.929   .     S
O229   C232    1.294   .     A
O229   Cu233   1.929   .     S
O230   C231    1.294   .     A
O230   Cu234   1.929   .     S
C231   C235    1.407   .     S
C232   C236    1.407   .     S
Cu233  Cu234   2.700   .     S
Cu233  N247    2.029   .     S
Cu234  N248    2.029   .     S
C235   C1028   1.189   1_554 S
C236   C631    1.189   .     S
C237   Br249   1.939   .     S
C237   C242    1.413   .     A
C238   Br250   1.939   .     S
C238   C241    1.413   .     A
C238   C152    1.392   1_655 S
C239   Br251   1.939   .     S
C239   C241    1.413   .     A
C239   C149    1.392   1_655 S
C240   C242    1.413   .     A
C240   Br252   1.939   .     S
C243   N248    1.374   .     A
C243   N253    1.430   .     S
C244   N247    1.374   .     A
C244   N256    1.430   .     S
C244   C377    1.422   .     S
C245   N259    1.430   .     S
C245   N248    1.374   .     A
C246   N247    1.374   .     A
C246   N262    1.430   .     S
C246   C375    1.422   .     S
N253   O254    1.299   .     A
N253   O255    1.301   .     A
N256   O258    1.301   .     A
N256   O257    1.299   .     A
N259   O261    1.299   .     A
N259   O260    1.301   .     A
N262   O263    1.301   .     A
N262   O264    1.300   .     A
O265   C269    1.304   .     A
O265   Cu277   1.973   .     S
O266   C270    1.303   .     A
O266   Cu278   1.973   .     S
O267   Cu277   1.973   .     S
O267   C270    1.304   .     A
O268   Cu278   1.973   .     S
O268   C269    1.303   .     A
C269   C286    1.471   .     S
C270   C285    1.471   .     S
O271   C275    1.294   .     A
O271   Cu277   1.929   .     S
O272   C276    1.294   .     A
O272   Cu278   1.929   .     S
O273   C276    1.294   .     A
O273   Cu277   1.929   .     S
O274   C275    1.294   .     A
O274   Cu278   1.929   .     S
C275   C279    1.407   .     S
C276   C280    1.407   .     S
Cu277  Cu278   2.700   .     S
Cu277  N291    2.029   .     S
Cu278  N292    2.029   .     S
C279   C1072   1.189   1_554 S
C280   C675    1.189   .     S
C281   Br293   1.939   .     S
C281   C286    1.413   .     A
C281   C371    1.392   1_455 S
C282   Br294   1.939   .     S
C282   C285    1.413   .     A
C282   C328    1.392   .     S
C283   Br295   1.939   .     S
C283   C285    1.413   .     A
C283   C325    1.392   .     S
C284   C286    1.413   .     A
C284   Br296   1.939   .     S
C284   C370    1.392   1_455 S
C287   N292    1.374   .     A
C287   N297    1.430   .     S
C288   N291    1.374   .     A
C288   N300    1.430   .     S
C288   C25     1.422   1_565 S
C289   N303    1.430   .     S
C289   N292    1.374   .     A
C290   N291    1.374   .     A
C290   N306    1.430   .     S
C290   C23     1.422   1_565 S
N297   O298    1.299   .     A
N297   O299    1.301   .     A
N300   O302    1.301   .     A
N300   O301    1.299   .     A
N303   O305    1.299   .     A
N303   O304    1.301   .     A
N306   O307    1.301   .     A
N306   O308    1.300   .     A
O309   C313    1.304   .     A
O309   Cu321   1.973   .     S
O310   C314    1.303   .     A
O310   Cu322   1.973   .     S
O311   Cu321   1.973   .     S
O311   C314    1.304   .     A
O312   Cu322   1.973   .     S
O312   C313    1.303   .     A
C313   C330    1.471   .     S
C314   C329    1.471   .     S
O315   C319    1.294   .     A
O315   Cu321   1.929   .     S
O316   C320    1.294   .     A
O316   Cu322   1.929   .     S
O317   C320    1.294   .     A
O317   Cu321   1.929   .     S
O318   C319    1.294   .     A
O318   Cu322   1.929   .     S
C319   C323    1.407   .     S
C320   C324    1.407   .     S
Cu321  Cu322   2.700   .     S
Cu321  N335    2.029   .     S
Cu322  N336    2.029   .     S
C323   C1116   1.189   1_554 S
C324   C719    1.189   .     S
C325   Br337   1.939   .     S
C325   C330    1.413   .     A
C326   Br338   1.939   .     S
C326   C329    1.413   .     A
C326   C372    1.392   .     S
C327   Br339   1.939   .     S
C327   C329    1.413   .     A
C327   C369    1.392   .     S
C328   C330    1.413   .     A
C328   Br340   1.939   .     S
C331   N336    1.374   .     A
C331   N341    1.430   .     S
C332   N335    1.374   .     A
C332   N344    1.430   .     S
C332   C69     1.422   1_565 S
C333   N347    1.430   .     S
C333   N336    1.374   .     A
C334   N335    1.374   .     A
C334   N350    1.430   .     S
C334   C67     1.422   1_565 S
N341   O342    1.299   .     A
N341   O343    1.301   .     A
N344   O346    1.301   .     A
N344   O345    1.299   .     A
N347   O349    1.299   .     A
N347   O348    1.301   .     A
N350   O351    1.301   .     A
N350   O352    1.300   .     A
O353   C357    1.304   .     A
O353   Cu365   1.973   .     S
O354   C358    1.303   .     A
O354   Cu366   1.973   .     S
O355   Cu365   1.973   .     S
O355   C358    1.304   .     A
O356   Cu366   1.973   .     S
O356   C357    1.303   .     A
C357   C374    1.471   .     S
C358   C373    1.471   .     S
O359   C363    1.294   .     A
O359   Cu365   1.929   .     S
O360   C364    1.294   .     A
O360   Cu366   1.929   .     S
O361   C364    1.294   .     A
O361   Cu365   1.929   .     S
O362   C363    1.294   .     A
O362   Cu366   1.929   .     S
C363   C367    1.407   .     S
C364   C368    1.407   .     S
Cu365  Cu366   2.700   .     S
Cu365  N379    2.029   .     S
Cu366  N380    2.029   .     S
C367   C1160   1.189   1_554 S
C368   C763    1.189   .     S
C369   Br381   1.939   .     S
C369   C374    1.413   .     A
C370   Br382   1.939   .     S
C370   C373    1.413   .     A
C370   C284    1.392   1_655 S
C371   Br383   1.939   .     S
C371   C373    1.413   .     A
C371   C281    1.392   1_655 S
C372   C374    1.413   .     A
C372   Br384   1.939   .     S
C375   N380    1.374   .     A
C375   N385    1.430   .     S
C376   N379    1.374   .     A
C376   N388    1.430   .     S
C376   C113    1.422   1_565 S
C377   N391    1.430   .     S
C377   N380    1.374   .     A
C378   N379    1.374   .     A
C378   N394    1.430   .     S
C378   C111    1.422   1_565 S
N385   O386    1.299   .     A
N385   O387    1.301   .     A
N388   O390    1.301   .     A
N388   O389    1.299   .     A
N391   O393    1.299   .     A
N391   O392    1.301   .     A
N394   O395    1.301   .     A
N394   O396    1.300   .     A
O397   C401    1.304   .     A
O397   Cu409   1.973   .     S
O398   C402    1.303   .     A
O398   Cu410   1.973   .     S
O399   Cu409   1.973   .     S
O399   C402    1.304   .     A
O400   Cu410   1.973   .     S
O400   C401    1.303   .     A
C401   C418    1.471   .     S
C402   C417    1.471   .     S
O403   C407    1.294   .     A
O403   Cu409   1.929   .     S
O404   C408    1.294   .     A
O404   Cu410   1.929   .     S
O405   C408    1.294   .     A
O405   Cu409   1.929   .     S
O406   C407    1.294   .     A
O406   Cu410   1.929   .     S
C407   C411    1.407   .     S
C408   C412    1.407   .     S
Cu409  Cu410   2.700   .     S
Cu409  N423    2.029   .     S
Cu410  N424    2.029   .     S
C412   C807    1.189   .     S
C413   Br425   1.939   .     S
C413   C418    1.413   .     A
C413   C503    1.392   1_455 S
C414   Br426   1.939   .     S
C414   C417    1.413   .     A
C414   C460    1.392   .     S
C415   Br427   1.939   .     S
C415   C417    1.413   .     A
C415   C457    1.392   .     S
C416   C418    1.413   .     A
C416   Br428   1.939   .     S
C416   C502    1.392   1_455 S
C419   N424    1.374   .     A
C419   N429    1.430   .     S
C419   C686    1.422   1_545 S
C420   N423    1.374   .     A
C420   N432    1.430   .     S
C420   C553    1.422   .     S
C421   N435    1.430   .     S
C421   N424    1.374   .     A
C421   C684    1.422   1_545 S
C422   N423    1.374   .     A
C422   N438    1.430   .     S
C422   C551    1.422   .     S
N429   O430    1.299   .     A
N429   O431    1.301   .     A
N432   O434    1.301   .     A
N432   O433    1.299   .     A
N435   O437    1.299   .     A
N435   O436    1.301   .     A
N438   O439    1.301   .     A
N438   O440    1.300   .     A
O441   C445    1.304   .     A
O441   Cu453   1.973   .     S
O442   C446    1.303   .     A
O442   Cu454   1.973   .     S
O443   Cu453   1.973   .     S
O443   C446    1.304   .     A
O444   Cu454   1.973   .     S
O444   C445    1.303   .     A
C445   C462    1.471   .     S
C446   C461    1.471   .     S
O447   C451    1.294   .     A
O447   Cu453   1.929   .     S
O448   C452    1.294   .     A
O448   Cu454   1.929   .     S
O449   C452    1.294   .     A
O449   Cu453   1.929   .     S
O450   C451    1.294   .     A
O450   Cu454   1.929   .     S
C451   C455    1.407   .     S
C452   C456    1.407   .     S
Cu453  Cu454   2.700   .     S
Cu453  N467    2.029   .     S
Cu454  N468    2.029   .     S
C456   C851    1.189   .     S
C457   Br469   1.939   .     S
C457   C462    1.413   .     A
C458   Br470   1.939   .     S
C458   C461    1.413   .     A
C458   C504    1.392   .     S
C459   Br471   1.939   .     S
C459   C461    1.413   .     A
C459   C501    1.392   .     S
C460   C462    1.413   .     A
C460   Br472   1.939   .     S
C463   N468    1.374   .     A
C463   N473    1.430   .     S
C463   C730    1.422   1_545 S
C464   N467    1.374   .     A
C464   N476    1.430   .     S
C464   C597    1.422   .     S
C465   N479    1.430   .     S
C465   N468    1.374   .     A
C465   C728    1.422   1_545 S
C466   N467    1.374   .     A
C466   N482    1.430   .     S
C466   C595    1.422   .     S
N473   O474    1.299   .     A
N473   O475    1.301   .     A
N476   O478    1.301   .     A
N476   O477    1.299   .     A
N479   O481    1.299   .     A
N479   O480    1.301   .     A
N482   O483    1.301   .     A
N482   O484    1.300   .     A
O485   C489    1.304   .     A
O485   Cu497   1.973   .     S
O486   C490    1.303   .     A
O486   Cu498   1.973   .     S
O487   Cu497   1.973   .     S
O487   C490    1.304   .     A
O488   Cu498   1.973   .     S
O488   C489    1.303   .     A
C489   C506    1.471   .     S
C490   C505    1.471   .     S
O491   C495    1.294   .     A
O491   Cu497   1.929   .     S
O492   C496    1.294   .     A
O492   Cu498   1.929   .     S
O493   C496    1.294   .     A
O493   Cu497   1.929   .     S
O494   C495    1.294   .     A
O494   Cu498   1.929   .     S
C495   C499    1.407   .     S
C496   C500    1.407   .     S
Cu497  Cu498   2.700   .     S
Cu497  N511    2.029   .     S
Cu498  N512    2.029   .     S
C500   C895    1.189   .     S
C501   Br513   1.939   .     S
C501   C506    1.413   .     A
C502   Br514   1.939   .     S
C502   C505    1.413   .     A
C502   C416    1.392   1_655 S
C503   Br515   1.939   .     S
C503   C505    1.413   .     A
C503   C413    1.392   1_655 S
C504   C506    1.413   .     A
C504   Br516   1.939   .     S
C507   N512    1.374   .     A
C507   N517    1.430   .     S
C507   C774    1.422   1_545 S
C508   N511    1.374   .     A
C508   N520    1.430   .     S
C508   C641    1.422   .     S
C509   N523    1.430   .     S
C509   N512    1.374   .     A
C509   C772    1.422   1_545 S
C510   N511    1.374   .     A
C510   N526    1.430   .     S
C510   C639    1.422   .     S
N517   O518    1.299   .     A
N517   O519    1.301   .     A
N520   O522    1.301   .     A
N520   O521    1.299   .     A
N523   O525    1.299   .     A
N523   O524    1.301   .     A
N526   O527    1.301   .     A
N526   O528    1.300   .     A
O529   C533    1.304   .     A
O529   Cu541   1.973   .     S
O530   C534    1.303   .     A
O530   Cu542   1.973   .     S
O531   Cu541   1.973   .     S
O531   C534    1.304   .     A
O532   Cu542   1.973   .     S
O532   C533    1.303   .     A
C533   C550    1.471   .     S
C534   C549    1.471   .     S
O535   C539    1.294   .     A
O535   Cu541   1.929   .     S
O536   C540    1.294   .     A
O536   Cu542   1.929   .     S
O537   C540    1.294   .     A
O537   Cu541   1.929   .     S
O538   C539    1.294   .     A
O538   Cu542   1.929   .     S
C539   C543    1.407   .     S
C540   C544    1.407   .     S
Cu541  Cu542   2.700   .     S
Cu541  N555    2.029   .     S
Cu542  N556    2.029   .     S
C544   C939    1.189   .     S
C545   Br557   1.939   .     S
C545   C550    1.413   .     A
C545   C635    1.392   1_455 S
C546   Br558   1.939   .     S
C546   C549    1.413   .     A
C546   C592    1.392   .     S
C547   Br559   1.939   .     S
C547   C549    1.413   .     A
C547   C589    1.392   .     S
C548   C550    1.413   .     A
C548   Br560   1.939   .     S
C548   C634    1.392   1_455 S
C551   N556    1.374   .     A
C551   N561    1.430   .     S
C552   N555    1.374   .     A
C552   N564    1.430   .     S
C552   C685    1.422   .     S
C553   N567    1.430   .     S
C553   N556    1.374   .     A
C554   N555    1.374   .     A
C554   N570    1.430   .     S
C554   C683    1.422   .     S
N561   O562    1.299   .     A
N561   O563    1.301   .     A
N564   O566    1.301   .     A
N564   O565    1.299   .     A
N567   O569    1.299   .     A
N567   O568    1.301   .     A
N570   O571    1.301   .     A
N570   O572    1.300   .     A
O573   C577    1.304   .     A
O573   Cu585   1.973   .     S
O574   C578    1.303   .     A
O574   Cu586   1.973   .     S
O575   Cu585   1.973   .     S
O575   C578    1.304   .     A
O576   Cu586   1.973   .     S
O576   C577    1.303   .     A
C577   C594    1.471   .     S
C578   C593    1.471   .     S
O579   C583    1.294   .     A
O579   Cu585   1.929   .     S
O580   C584    1.294   .     A
O580   Cu586   1.929   .     S
O581   C584    1.294   .     A
O581   Cu585   1.929   .     S
O582   C583    1.294   .     A
O582   Cu586   1.929   .     S
C583   C587    1.407   .     S
C584   C588    1.407   .     S
Cu585  Cu586   2.700   .     S
Cu585  N599    2.029   .     S
Cu586  N600    2.029   .     S
C588   C983    1.189   .     S
C589   Br601   1.939   .     S
C589   C594    1.413   .     A
C590   Br602   1.939   .     S
C590   C593    1.413   .     A
C590   C636    1.392   .     S
C591   Br603   1.939   .     S
C591   C593    1.413   .     A
C591   C633    1.392   .     S
C592   C594    1.413   .     A
C592   Br604   1.939   .     S
C595   N600    1.374   .     A
C595   N605    1.430   .     S
C596   N599    1.374   .     A
C596   N608    1.430   .     S
C596   C729    1.422   .     S
C597   N611    1.430   .     S
C597   N600    1.374   .     A
C598   N599    1.374   .     A
C598   N614    1.430   .     S
C598   C727    1.422   .     S
N605   O606    1.299   .     A
N605   O607    1.301   .     A
N608   O610    1.301   .     A
N608   O609    1.299   .     A
N611   O613    1.299   .     A
N611   O612    1.301   .     A
N614   O615    1.301   .     A
N614   O616    1.300   .     A
O617   C621    1.304   .     A
O617   Cu629   1.973   .     S
O618   C622    1.303   .     A
O618   Cu630   1.973   .     S
O619   Cu629   1.973   .     S
O619   C622    1.304   .     A
O620   Cu630   1.973   .     S
O620   C621    1.303   .     A
C621   C638    1.471   .     S
C622   C637    1.471   .     S
O623   C627    1.294   .     A
O623   Cu629   1.929   .     S
O624   C628    1.294   .     A
O624   Cu630   1.929   .     S
O625   C628    1.294   .     A
O625   Cu629   1.929   .     S
O626   C627    1.294   .     A
O626   Cu630   1.929   .     S
C627   C631    1.407   .     S
C628   C632    1.407   .     S
Cu629  Cu630   2.700   .     S
Cu629  N643    2.029   .     S
Cu630  N644    2.029   .     S
C632   C1027   1.189   .     S
C633   Br645   1.939   .     S
C633   C638    1.413   .     A
C634   Br646   1.939   .     S
C634   C637    1.413   .     A
C634   C548    1.392   1_655 S
C635   Br647   1.939   .     S
C635   C637    1.413   .     A
C635   C545    1.392   1_655 S
C636   C638    1.413   .     A
C636   Br648   1.939   .     S
C639   N644    1.374   .     A
C639   N649    1.430   .     S
C640   N643    1.374   .     A
C640   N652    1.430   .     S
C640   C773    1.422   .     S
C641   N655    1.430   .     S
C641   N644    1.374   .     A
C642   N643    1.374   .     A
C642   N658    1.430   .     S
C642   C771    1.422   .     S
N649   O650    1.299   .     A
N649   O651    1.301   .     A
N652   O654    1.301   .     A
N652   O653    1.299   .     A
N655   O657    1.299   .     A
N655   O656    1.301   .     A
N658   O659    1.301   .     A
N658   O660    1.300   .     A
O661   C665    1.304   .     A
O661   Cu673   1.973   .     S
O662   C666    1.303   .     A
O662   Cu674   1.973   .     S
O663   Cu673   1.973   .     S
O663   C666    1.304   .     A
O664   Cu674   1.973   .     S
O664   C665    1.303   .     A
C665   C682    1.471   .     S
C666   C681    1.471   .     S
O667   C671    1.294   .     A
O667   Cu673   1.929   .     S
O668   C672    1.294   .     A
O668   Cu674   1.929   .     S
O669   C672    1.294   .     A
O669   Cu673   1.929   .     S
O670   C671    1.294   .     A
O670   Cu674   1.929   .     S
C671   C675    1.407   .     S
C672   C676    1.407   .     S
Cu673  Cu674   2.700   .     S
Cu673  N687    2.029   .     S
Cu674  N688    2.029   .     S
C676   C1071   1.189   .     S
C677   Br689   1.939   .     S
C677   C682    1.413   .     A
C677   C767    1.392   1_455 S
C678   Br690   1.939   .     S
C678   C681    1.413   .     A
C678   C724    1.392   .     S
C679   Br691   1.939   .     S
C679   C681    1.413   .     A
C679   C721    1.392   .     S
C680   C682    1.413   .     A
C680   Br692   1.939   .     S
C680   C766    1.392   1_455 S
C683   N688    1.374   .     A
C683   N693    1.430   .     S
C684   N687    1.374   .     A
C684   N696    1.430   .     S
C684   C421    1.422   1_565 S
C685   N699    1.430   .     S
C685   N688    1.374   .     A
C686   N687    1.374   .     A
C686   N702    1.430   .     S
C686   C419    1.422   1_565 S
N693   O694    1.299   .     A
N693   O695    1.301   .     A
N696   O698    1.301   .     A
N696   O697    1.299   .     A
N699   O701    1.299   .     A
N699   O700    1.301   .     A
N702   O703    1.301   .     A
N702   O704    1.300   .     A
O705   C709    1.304   .     A
O705   Cu717   1.973   .     S
O706   C710    1.303   .     A
O706   Cu718   1.973   .     S
O707   Cu717   1.973   .     S
O707   C710    1.304   .     A
O708   Cu718   1.973   .     S
O708   C709    1.303   .     A
C709   C726    1.471   .     S
C710   C725    1.471   .     S
O711   C715    1.294   .     A
O711   Cu717   1.929   .     S
O712   C716    1.294   .     A
O712   Cu718   1.929   .     S
O713   C716    1.294   .     A
O713   Cu717   1.929   .     S
O714   C715    1.294   .     A
O714   Cu718   1.929   .     S
C715   C719    1.407   .     S
C716   C720    1.407   .     S
Cu717  Cu718   2.700   .     S
Cu717  N731    2.029   .     S
Cu718  N732    2.029   .     S
C720   C1115   1.189   .     S
C721   Br733   1.939   .     S
C721   C726    1.413   .     A
C722   Br734   1.939   .     S
C722   C725    1.413   .     A
C722   C768    1.392   .     S
C723   Br735   1.939   .     S
C723   C725    1.413   .     A
C723   C765    1.392   .     S
C724   C726    1.413   .     A
C724   Br736   1.939   .     S
C727   N732    1.374   .     A
C727   N737    1.430   .     S
C728   N731    1.374   .     A
C728   N740    1.430   .     S
C728   C465    1.422   1_565 S
C729   N743    1.430   .     S
C729   N732    1.374   .     A
C730   N731    1.374   .     A
C730   N746    1.430   .     S
C730   C463    1.422   1_565 S
N737   O738    1.299   .     A
N737   O739    1.301   .     A
N740   O742    1.301   .     A
N740   O741    1.299   .     A
N743   O745    1.299   .     A
N743   O744    1.301   .     A
N746   O747    1.301   .     A
N746   O748    1.300   .     A
O749   C753    1.304   .     A
O749   Cu761   1.973   .     S
O750   C754    1.303   .     A
O750   Cu762   1.973   .     S
O751   Cu761   1.973   .     S
O751   C754    1.304   .     A
O752   Cu762   1.973   .     S
O752   C753    1.303   .     A
C753   C770    1.471   .     S
C754   C769    1.471   .     S
O755   C759    1.294   .     A
O755   Cu761   1.929   .     S
O756   C760    1.294   .     A
O756   Cu762   1.929   .     S
O757   C760    1.294   .     A
O757   Cu761   1.929   .     S
O758   C759    1.294   .     A
O758   Cu762   1.929   .     S
C759   C763    1.407   .     S
C760   C764    1.407   .     S
Cu761  Cu762   2.700   .     S
Cu761  N775    2.029   .     S
Cu762  N776    2.029   .     S
C764   C1159   1.189   .     S
C765   Br777   1.939   .     S
C765   C770    1.413   .     A
C766   Br778   1.939   .     S
C766   C769    1.413   .     A
C766   C680    1.392   1_655 S
C767   Br779   1.939   .     S
C767   C769    1.413   .     A
C767   C677    1.392   1_655 S
C768   C770    1.413   .     A
C768   Br780   1.939   .     S
C771   N776    1.374   .     A
C771   N781    1.430   .     S
C772   N775    1.374   .     A
C772   N784    1.430   .     S
C772   C509    1.422   1_565 S
C773   N787    1.430   .     S
C773   N776    1.374   .     A
C774   N775    1.374   .     A
C774   N790    1.430   .     S
C774   C507    1.422   1_565 S
N781   O782    1.299   .     A
N781   O783    1.301   .     A
N784   O786    1.301   .     A
N784   O785    1.299   .     A
N787   O789    1.299   .     A
N787   O788    1.301   .     A
N790   O791    1.301   .     A
N790   O792    1.300   .     A
O793   C797    1.304   .     A
O793   Cu805   1.973   .     S
O794   C798    1.303   .     A
O794   Cu806   1.973   .     S
O795   Cu805   1.973   .     S
O795   C798    1.304   .     A
O796   Cu806   1.973   .     S
O796   C797    1.303   .     A
C797   C814    1.471   .     S
C798   C813    1.471   .     S
O799   C803    1.294   .     A
O799   Cu805   1.929   .     S
O800   C804    1.294   .     A
O800   Cu806   1.929   .     S
O801   C804    1.294   .     A
O801   Cu805   1.929   .     S
O802   C803    1.294   .     A
O802   Cu806   1.929   .     S
C803   C807    1.407   .     S
C804   C808    1.407   .     S
Cu805  Cu806   2.700   .     S
Cu805  N819    2.029   .     S
Cu806  N820    2.029   .     S
C808   C15     1.189   1_556 S
C809   Br821   1.939   .     S
C809   C814    1.413   .     A
C809   C899    1.392   1_455 S
C810   Br822   1.939   .     S
C810   C813    1.413   .     A
C810   C856    1.392   .     S
C811   Br823   1.939   .     S
C811   C813    1.413   .     A
C811   C853    1.392   .     S
C812   C814    1.413   .     A
C812   Br824   1.939   .     S
C812   C898    1.392   1_455 S
C815   N820    1.374   .     A
C815   N825    1.430   .     S
C815   C1082   1.422   1_545 S
C816   N819    1.374   .     A
C816   N828    1.430   .     S
C816   C949    1.422   .     S
C817   N831    1.430   .     S
C817   N820    1.374   .     A
C817   C1080   1.422   1_545 S
C818   N819    1.374   .     A
C818   N834    1.430   .     S
C818   C947    1.422   .     S
N825   O826    1.299   .     A
N825   O827    1.301   .     A
N828   O830    1.301   .     A
N828   O829    1.299   .     A
N831   O833    1.299   .     A
N831   O832    1.301   .     A
N834   O835    1.301   .     A
N834   O836    1.300   .     A
O837   C841    1.304   .     A
O837   Cu849   1.973   .     S
O838   C842    1.303   .     A
O838   Cu850   1.973   .     S
O839   Cu849   1.973   .     S
O839   C842    1.304   .     A
O840   Cu850   1.973   .     S
O840   C841    1.303   .     A
C841   C858    1.471   .     S
C842   C857    1.471   .     S
O843   C847    1.294   .     A
O843   Cu849   1.929   .     S
O844   C848    1.294   .     A
O844   Cu850   1.929   .     S
O845   C848    1.294   .     A
O845   Cu849   1.929   .     S
O846   C847    1.294   .     A
O846   Cu850   1.929   .     S
C847   C851    1.407   .     S
C848   C852    1.407   .     S
Cu849  Cu850   2.700   .     S
Cu849  N863    2.029   .     S
Cu850  N864    2.029   .     S
C852   C59     1.189   1_556 S
C853   Br865   1.939   .     S
C853   C858    1.413   .     A
C854   Br866   1.939   .     S
C854   C857    1.413   .     A
C854   C900    1.392   .     S
C855   Br867   1.939   .     S
C855   C857    1.413   .     A
C855   C897    1.392   .     S
C856   C858    1.413   .     A
C856   Br868   1.939   .     S
C859   N864    1.374   .     A
C859   N869    1.430   .     S
C859   C1126   1.422   1_545 S
C860   N863    1.374   .     A
C860   N872    1.430   .     S
C860   C993    1.422   .     S
C861   N875    1.430   .     S
C861   N864    1.374   .     A
C861   C1124   1.422   1_545 S
C862   N863    1.374   .     A
C862   N878    1.430   .     S
C862   C991    1.422   .     S
N869   O870    1.299   .     A
N869   O871    1.301   .     A
N872   O874    1.301   .     A
N872   O873    1.299   .     A
N875   O877    1.299   .     A
N875   O876    1.301   .     A
N878   O879    1.301   .     A
N878   O880    1.300   .     A
O881   C885    1.304   .     A
O881   Cu893   1.973   .     S
O882   C886    1.303   .     A
O882   Cu894   1.973   .     S
O883   Cu893   1.973   .     S
O883   C886    1.304   .     A
O884   Cu894   1.973   .     S
O884   C885    1.303   .     A
C885   C902    1.471   .     S
C886   C901    1.471   .     S
O887   C891    1.294   .     A
O887   Cu893   1.929   .     S
O888   C892    1.294   .     A
O888   Cu894   1.929   .     S
O889   C892    1.294   .     A
O889   Cu893   1.929   .     S
O890   C891    1.294   .     A
O890   Cu894   1.929   .     S
C891   C895    1.407   .     S
C892   C896    1.407   .     S
Cu893  Cu894   2.700   .     S
Cu893  N907    2.029   .     S
Cu894  N908    2.029   .     S
C896   C103    1.189   1_556 S
C897   Br909   1.939   .     S
C897   C902    1.413   .     A
C898   Br910   1.939   .     S
C898   C901    1.413   .     A
C898   C812    1.392   1_655 S
C899   Br911   1.939   .     S
C899   C901    1.413   .     A
C899   C809    1.392   1_655 S
C900   C902    1.413   .     A
C900   Br912   1.939   .     S
C903   N908    1.374   .     A
C903   N913    1.430   .     S
C903   C1170   1.422   1_545 S
C904   N907    1.374   .     A
C904   N916    1.430   .     S
C904   C1037   1.422   .     S
C905   N919    1.430   .     S
C905   N908    1.374   .     A
C905   C1168   1.422   1_545 S
C906   N907    1.374   .     A
C906   N922    1.430   .     S
C906   C1035   1.422   .     S
N913   O914    1.299   .     A
N913   O915    1.301   .     A
N916   O918    1.301   .     A
N916   O917    1.299   .     A
N919   O921    1.299   .     A
N919   O920    1.301   .     A
N922   O923    1.301   .     A
N922   O924    1.300   .     A
O925   C929    1.304   .     A
O925   Cu937   1.973   .     S
O926   C930    1.303   .     A
O926   Cu938   1.973   .     S
O927   Cu937   1.973   .     S
O927   C930    1.304   .     A
O928   Cu938   1.973   .     S
O928   C929    1.303   .     A
C929   C946    1.471   .     S
C930   C945    1.471   .     S
O931   C935    1.294   .     A
O931   Cu937   1.929   .     S
O932   C936    1.294   .     A
O932   Cu938   1.929   .     S
O933   C936    1.294   .     A
O933   Cu937   1.929   .     S
O934   C935    1.294   .     A
O934   Cu938   1.929   .     S
C935   C939    1.407   .     S
C936   C940    1.407   .     S
Cu937  Cu938   2.700   .     S
Cu937  N951    2.029   .     S
Cu938  N952    2.029   .     S
C940   C147    1.189   1_556 S
C941   Br953   1.939   .     S
C941   C946    1.413   .     A
C941   C1031   1.392   1_455 S
C942   Br954   1.939   .     S
C942   C945    1.413   .     A
C942   C988    1.392   .     S
C943   Br955   1.939   .     S
C943   C945    1.413   .     A
C943   C985    1.392   .     S
C944   C946    1.413   .     A
C944   Br956   1.939   .     S
C944   C1030   1.392   1_455 S
C947   N952    1.374   .     A
C947   N957    1.430   .     S
C948   N951    1.374   .     A
C948   N960    1.430   .     S
C948   C1081   1.422   .     S
C949   N963    1.430   .     S
C949   N952    1.374   .     A
C950   N951    1.374   .     A
C950   N966    1.430   .     S
C950   C1079   1.422   .     S
N957   O958    1.299   .     A
N957   O959    1.301   .     A
N960   O962    1.301   .     A
N960   O961    1.299   .     A
N963   O965    1.299   .     A
N963   O964    1.301   .     A
N966   O967    1.301   .     A
N966   O968    1.300   .     A
O969   C973    1.304   .     A
O969   Cu981   1.973   .     S
O970   C974    1.303   .     A
O970   Cu982   1.973   .     S
O971   Cu981   1.973   .     S
O971   C974    1.304   .     A
O972   Cu982   1.973   .     S
O972   C973    1.303   .     A
C973   C990    1.471   .     S
C974   C989    1.471   .     S
O975   C979    1.294   .     A
O975   Cu981   1.929   .     S
O976   C980    1.294   .     A
O976   Cu982   1.929   .     S
O977   C980    1.294   .     A
O977   Cu981   1.929   .     S
O978   C979    1.294   .     A
O978   Cu982   1.929   .     S
C979   C983    1.407   .     S
C980   C984    1.407   .     S
Cu981  Cu982   2.700   .     S
Cu981  N995    2.029   .     S
Cu982  N996    2.029   .     S
C984   C191    1.189   1_556 S
C985   Br997   1.939   .     S
C985   C990    1.413   .     A
C986   Br998   1.939   .     S
C986   C989    1.413   .     A
C986   C1032   1.392   .     S
C987   Br999   1.939   .     S
C987   C989    1.413   .     A
C987   C1029   1.392   .     S
C988   C990    1.413   .     A
C988   Br1000  1.939   .     S
C991   N996    1.374   .     A
C991   N1001   1.430   .     S
C992   N995    1.374   .     A
C992   N1004   1.430   .     S
C992   C1125   1.422   .     S
C993   N1007   1.430   .     S
C993   N996    1.374   .     A
C994   N995    1.374   .     A
C994   N1010   1.430   .     S
C994   C1123   1.422   .     S
N1001  O1002   1.299   .     A
N1001  O1003   1.301   .     A
N1004  O1006   1.301   .     A
N1004  O1005   1.299   .     A
N1007  O1009   1.299   .     A
N1007  O1008   1.301   .     A
N1010  O1011   1.301   .     A
N1010  O1012   1.300   .     A
O1013  C1017   1.304   .     A
O1013  Cu1025  1.973   .     S
O1014  C1018   1.303   .     A
O1014  Cu1026  1.973   .     S
O1015  Cu1025  1.973   .     S
O1015  C1018   1.304   .     A
O1016  Cu1026  1.973   .     S
O1016  C1017   1.303   .     A
C1017  C1034   1.471   .     S
C1018  C1033   1.471   .     S
O1019  C1023   1.294   .     A
O1019  Cu1025  1.929   .     S
O1020  C1024   1.294   .     A
O1020  Cu1026  1.929   .     S
O1021  C1024   1.294   .     A
O1021  Cu1025  1.929   .     S
O1022  C1023   1.294   .     A
O1022  Cu1026  1.929   .     S
C1023  C1027   1.407   .     S
C1024  C1028   1.407   .     S
Cu1025 Cu1026  2.700   .     S
Cu1025 N1039   2.029   .     S
Cu1026 N1040   2.029   .     S
C1028  C235    1.189   1_556 S
C1029  Br1041  1.939   .     S
C1029  C1034   1.413   .     A
C1030  Br1042  1.939   .     S
C1030  C1033   1.413   .     A
C1030  C944    1.392   1_655 S
C1031  Br1043  1.939   .     S
C1031  C1033   1.413   .     A
C1031  C941    1.392   1_655 S
C1032  C1034   1.413   .     A
C1032  Br1044  1.939   .     S
C1035  N1040   1.374   .     A
C1035  N1045   1.430   .     S
C1036  N1039   1.374   .     A
C1036  N1048   1.430   .     S
C1036  C1169   1.422   .     S
C1037  N1051   1.430   .     S
C1037  N1040   1.374   .     A
C1038  N1039   1.374   .     A
C1038  N1054   1.430   .     S
C1038  C1167   1.422   .     S
N1045  O1046   1.299   .     A
N1045  O1047   1.301   .     A
N1048  O1050   1.301   .     A
N1048  O1049   1.299   .     A
N1051  O1053   1.299   .     A
N1051  O1052   1.301   .     A
N1054  O1055   1.301   .     A
N1054  O1056   1.300   .     A
O1057  C1061   1.304   .     A
O1057  Cu1069  1.973   .     S
O1058  C1062   1.303   .     A
O1058  Cu1070  1.973   .     S
O1059  Cu1069  1.973   .     S
O1059  C1062   1.304   .     A
O1060  Cu1070  1.973   .     S
O1060  C1061   1.303   .     A
C1061  C1078   1.471   .     S
C1062  C1077   1.471   .     S
O1063  C1067   1.294   .     A
O1063  Cu1069  1.929   .     S
O1064  C1068   1.294   .     A
O1064  Cu1070  1.929   .     S
O1065  C1068   1.294   .     A
O1065  Cu1069  1.929   .     S
O1066  C1067   1.294   .     A
O1066  Cu1070  1.929   .     S
C1067  C1071   1.407   .     S
C1068  C1072   1.407   .     S
Cu1069 Cu1070  2.700   .     S
Cu1069 N1083   2.029   .     S
Cu1070 N1084   2.029   .     S
C1072  C279    1.189   1_556 S
C1073  Br1085  1.939   .     S
C1073  C1078   1.413   .     A
C1073  C1163   1.392   1_455 S
C1074  Br1086  1.939   .     S
C1074  C1077   1.413   .     A
C1074  C1120   1.392   .     S
C1075  Br1087  1.939   .     S
C1075  C1077   1.413   .     A
C1075  C1117   1.392   .     S
C1076  C1078   1.413   .     A
C1076  Br1088  1.939   .     S
C1076  C1162   1.392   1_455 S
C1079  N1084   1.374   .     A
C1079  N1089   1.430   .     S
C1080  N1083   1.374   .     A
C1080  N1092   1.430   .     S
C1080  C817    1.422   1_565 S
C1081  N1095   1.430   .     S
C1081  N1084   1.374   .     A
C1082  N1083   1.374   .     A
C1082  N1098   1.430   .     S
C1082  C815    1.422   1_565 S
N1089  O1090   1.299   .     A
N1089  O1091   1.301   .     A
N1092  O1094   1.301   .     A
N1092  O1093   1.299   .     A
N1095  O1097   1.299   .     A
N1095  O1096   1.301   .     A
N1098  O1099   1.301   .     A
N1098  O1100   1.300   .     A
O1101  C1105   1.304   .     A
O1101  Cu1113  1.973   .     S
O1102  C1106   1.303   .     A
O1102  Cu1114  1.973   .     S
O1103  Cu1113  1.973   .     S
O1103  C1106   1.304   .     A
O1104  Cu1114  1.973   .     S
O1104  C1105   1.303   .     A
C1105  C1122   1.471   .     S
C1106  C1121   1.471   .     S
O1107  C1111   1.294   .     A
O1107  Cu1113  1.929   .     S
O1108  C1112   1.294   .     A
O1108  Cu1114  1.929   .     S
O1109  C1112   1.294   .     A
O1109  Cu1113  1.929   .     S
O1110  C1111   1.294   .     A
O1110  Cu1114  1.929   .     S
C1111  C1115   1.407   .     S
C1112  C1116   1.407   .     S
Cu1113 Cu1114  2.700   .     S
Cu1113 N1127   2.029   .     S
Cu1114 N1128   2.029   .     S
C1116  C323    1.189   1_556 S
C1117  Br1129  1.939   .     S
C1117  C1122   1.413   .     A
C1118  Br1130  1.939   .     S
C1118  C1121   1.413   .     A
C1118  C1164   1.392   .     S
C1119  Br1131  1.939   .     S
C1119  C1121   1.413   .     A
C1119  C1161   1.392   .     S
C1120  C1122   1.413   .     A
C1120  Br1132  1.939   .     S
C1123  N1128   1.374   .     A
C1123  N1133   1.430   .     S
C1124  N1127   1.374   .     A
C1124  N1136   1.430   .     S
C1124  C861    1.422   1_565 S
C1125  N1139   1.430   .     S
C1125  N1128   1.374   .     A
C1126  N1127   1.374   .     A
C1126  N1142   1.430   .     S
C1126  C859    1.422   1_565 S
N1133  O1134   1.299   .     A
N1133  O1135   1.301   .     A
N1136  O1138   1.301   .     A
N1136  O1137   1.299   .     A
N1139  O1141   1.299   .     A
N1139  O1140   1.301   .     A
N1142  O1143   1.301   .     A
N1142  O1144   1.300   .     A
O1145  C1149   1.304   .     A
O1145  Cu1157  1.973   .     S
O1146  C1150   1.303   .     A
O1146  Cu1158  1.973   .     S
O1147  Cu1157  1.973   .     S
O1147  C1150   1.304   .     A
O1148  Cu1158  1.973   .     S
O1148  C1149   1.303   .     A
C1149  C1166   1.471   .     S
C1150  C1165   1.471   .     S
O1151  C1155   1.294   .     A
O1151  Cu1157  1.929   .     S
O1152  C1156   1.294   .     A
O1152  Cu1158  1.929   .     S
O1153  C1156   1.294   .     A
O1153  Cu1157  1.929   .     S
O1154  C1155   1.294   .     A
O1154  Cu1158  1.929   .     S
C1155  C1159   1.407   .     S
C1156  C1160   1.407   .     S
Cu1157 Cu1158  2.700   .     S
Cu1157 N1171   2.029   .     S
Cu1158 N1172   2.029   .     S
C1160  C367    1.189   1_556 S
C1161  Br1173  1.939   .     S
C1161  C1166   1.413   .     A
C1162  Br1174  1.939   .     S
C1162  C1165   1.413   .     A
C1162  C1076   1.392   1_655 S
C1163  Br1175  1.939   .     S
C1163  C1165   1.413   .     A
C1163  C1073   1.392   1_655 S
C1164  C1166   1.413   .     A
C1164  Br1176  1.939   .     S
C1167  N1172   1.374   .     A
C1167  N1177   1.430   .     S
C1168  N1171   1.374   .     A
C1168  N1180   1.430   .     S
C1168  C905    1.422   1_565 S
C1169  N1183   1.430   .     S
C1169  N1172   1.374   .     A
C1170  N1171   1.374   .     A
C1170  N1186   1.430   .     S
C1170  C903    1.422   1_565 S
N1177  O1178   1.299   .     A
N1177  O1179   1.301   .     A
N1180  O1182   1.301   .     A
N1180  O1181   1.299   .     A
N1183  O1185   1.299   .     A
N1183  O1184   1.301   .     A
N1186  O1187   1.301   .     A
N1186  O1188   1.300   .     A
