data_str_m1_o10_o16_pcu_sym.68
_audit_creation_date              2020-01-03
_audit_creation_method            'Materials Studio'
_symmetry_space_group_name_H-M    'P1'
_symmetry_Int_Tables_number       1
_symmetry_cell_setting            triclinic
loop_
_symmetry_equiv_pos_as_xyz
  x,y,z
_cell_length_a                    32.5482
_cell_length_b                    32.6939
_cell_length_c                    31.1589
_cell_angle_alpha                 97.1906
_cell_angle_beta                  74.5104
_cell_angle_gamma                 98.7564
loop_
_atom_site_label
_atom_site_type_symbol
_atom_site_fract_x
_atom_site_fract_y
_atom_site_fract_z
_atom_site_U_iso_or_equiv
_atom_site_adp_type
_atom_site_occupancy
C1     C     0.05267   0.15933   0.26027   0.00000  Uiso   1.00
C2     C     0.17244   0.16599   0.06009   0.00000  Uiso   1.00
C3     C     0.20903   0.10610   0.05849   0.00000  Uiso   1.00
C4     C     0.28070   0.17441   0.24036   0.00000  Uiso   1.00
C5     C     0.14365   0.19617   0.41981   0.00000  Uiso   1.00
C6     C     0.32651   0.17987   0.23822   0.00000  Uiso   1.00
C7     C     0.00759   0.15700   0.26265   0.00000  Uiso   1.00
C8     C     0.18088   0.32272   0.23857   0.00000  Uiso   1.00
C9     C     0.15038   0.01241   0.26342   0.00000  Uiso   1.00
C10    C     0.15600   0.05612   0.25995   0.00000  Uiso   1.00
C11    C     0.17646   0.27790   0.24045   0.00000  Uiso   1.00
C12    C     0.14463   0.25189   0.47960   0.00000  Uiso   1.00
C13    C     0.18552   0.14766   0.12950   0.00000  Uiso   1.00
C14    C     0.14819   0.18481   0.37113   0.00000  Uiso   1.00
C15    C     0.20696   0.09430   0.01471   0.00000  Uiso   1.00
C16    C     0.19076   0.14098   0.08149   0.00000  Uiso   1.00
C17    C     0.13421   0.23668   0.43920   0.00000  Uiso   1.00
C18    C     0.10913   0.32910   0.29065   0.00000  Uiso   1.00
C19    C     0.14462   0.19504   0.08800   0.00000  Uiso   1.00
C20    C     0.13922   0.29384   0.49900   0.00000  Uiso   1.00
C21    C     0.02166   0.21047   0.21068   0.00000  Uiso   1.00
C22    C     0.16165   0.22691   0.00159   0.00000  Uiso   1.00
C23    C     0.16319   0.18439   0.48790   0.00000  Uiso   1.00
C24    C     0.15532   0.16911   0.44589   0.00000  Uiso   1.00
C25    C     0.17510   0.15722   0.01366   0.00000  Uiso   1.00
C26    C     0.18840   0.11847   0.49255   0.00000  Uiso   1.00
C27    C     0.18050   0.10373   0.45088   0.00000  Uiso   1.00
C28    C     0.16028   0.12726   0.43057   0.00000  Uiso   1.00
H29    H     0.22242   0.08646   0.07544   0.00000  Uiso   1.00
H30    H     0.31959   0.13349   0.28243   0.00000  Uiso   1.00
H31    H     0.21894   0.06557   0.49906   0.00000  Uiso   1.00
H32    H     0.17437   0.24159   0.02917   0.00000  Uiso   1.00
H33    H     0.14940   0.11220   0.40204   0.00000  Uiso   1.00
I34    I     0.23826   0.01705   0.19509   0.00000  Uiso   1.00
I35    I     0.19601   0.04549   0.41633   0.00000  Uiso   1.00
I36    I     0.10612   0.27776   0.40947   0.00000  Uiso   1.00
N37    N     0.07611   0.31599   0.31235   0.00000  Uiso   1.00
N38    N     0.12247   0.21809   0.11038   0.00000  Uiso   1.00
N39    N     0.13484   0.32738   0.01478   0.00000  Uiso   1.00
N40    N     0.04428   0.23505   0.18888   0.00000  Uiso   1.00
O41    O     0.16667   0.16667   0.25000   0.00000  Uiso   1.00
O42    O     0.15451   0.12637   0.15459   0.00000  Uiso   1.00
O43    O     0.12940   0.20391   0.34968   0.00000  Uiso   1.00
O44    O     0.20824   0.17759   0.14606   0.00000  Uiso   1.00
O45    O     0.17451   0.15880   0.34968   0.00000  Uiso   1.00
O46    O     0.17930   0.08019   0.28214   0.00000  Uiso   1.00
O47    O     0.14632   0.26085   0.27014   0.00000  Uiso   1.00
O48    O     0.07412   0.13291   0.23413   0.00000  Uiso   1.00
O49    O     0.26693   0.19272   0.21361   0.00000  Uiso   1.00
O50    O     0.07071   0.18878   0.28213   0.00000  Uiso   1.00
O51    O     0.25491   0.15226   0.27014   0.00000  Uiso   1.00
O52    O     0.13760   0.06944   0.23413   0.00000  Uiso   1.00
O53    O     0.20345   0.25620   0.21361   0.00000  Uiso   1.00
Zn54   Zn    0.19338   0.13994   0.28734   0.00000  Uiso   1.00
Zn55   Zn    0.13379   0.12458   0.21876   0.00000  Uiso   1.00
Zn56   Zn    0.21056   0.19775   0.20657   0.00000  Uiso   1.00
Zn57   Zn    0.12893   0.20439   0.28734   0.00000  Uiso   1.00
C58    C     0.38600   0.15933   0.26027   0.00000  Uiso   1.00
C59    C     0.50577   0.16599   0.06009   0.00000  Uiso   1.00
C60    C     0.54236   0.10610   0.05849   0.00000  Uiso   1.00
C61    C     0.61404   0.17441   0.24036   0.00000  Uiso   1.00
C62    C     0.47698   0.19617   0.41981   0.00000  Uiso   1.00
C63    C     0.65984   0.17987   0.23822   0.00000  Uiso   1.00
C64    C     0.34092   0.15700   0.26265   0.00000  Uiso   1.00
C65    C     0.51421   0.32272   0.23857   0.00000  Uiso   1.00
C66    C     0.48371   0.01241   0.26342   0.00000  Uiso   1.00
C67    C     0.48934   0.05612   0.25995   0.00000  Uiso   1.00
C68    C     0.50979   0.27790   0.24045   0.00000  Uiso   1.00
C69    C     0.47796   0.25189   0.47960   0.00000  Uiso   1.00
C70    C     0.51885   0.14766   0.12950   0.00000  Uiso   1.00
C71    C     0.48153   0.18481   0.37113   0.00000  Uiso   1.00
C72    C     0.54030   0.09430   0.01471   0.00000  Uiso   1.00
C73    C     0.52409   0.14098   0.08149   0.00000  Uiso   1.00
C74    C     0.46754   0.23668   0.43920   0.00000  Uiso   1.00
C75    C     0.44246   0.32910   0.29065   0.00000  Uiso   1.00
C76    C     0.47795   0.19504   0.08800   0.00000  Uiso   1.00
C77    C     0.47255   0.29384   0.49900   0.00000  Uiso   1.00
C78    C     0.35499   0.21047   0.21068   0.00000  Uiso   1.00
C79    C     0.49499   0.22691   0.00159   0.00000  Uiso   1.00
C80    C     0.49652   0.18439   0.48790   0.00000  Uiso   1.00
C81    C     0.48865   0.16911   0.44589   0.00000  Uiso   1.00
C82    C     0.50843   0.15722   0.01366   0.00000  Uiso   1.00
C83    C     0.52173   0.11847   0.49255   0.00000  Uiso   1.00
C84    C     0.51383   0.10373   0.45088   0.00000  Uiso   1.00
C85    C     0.49362   0.12726   0.43057   0.00000  Uiso   1.00
H86    H     0.55575   0.08646   0.07544   0.00000  Uiso   1.00
H87    H     0.65292   0.13349   0.28243   0.00000  Uiso   1.00
H88    H     0.55227   0.06557   0.49906   0.00000  Uiso   1.00
H89    H     0.50770   0.24159   0.02917   0.00000  Uiso   1.00
H90    H     0.48273   0.11220   0.40204   0.00000  Uiso   1.00
I91    I     0.57159   0.01705   0.19509   0.00000  Uiso   1.00
I92    I     0.52934   0.04549   0.41633   0.00000  Uiso   1.00
I93    I     0.43946   0.27776   0.40947   0.00000  Uiso   1.00
N94    N     0.40945   0.31599   0.31235   0.00000  Uiso   1.00
N95    N     0.45581   0.21809   0.11038   0.00000  Uiso   1.00
N96    N     0.46817   0.32738   0.01478   0.00000  Uiso   1.00
N97    N     0.37761   0.23505   0.18888   0.00000  Uiso   1.00
O98    O     0.50000   0.16667   0.25000   0.00000  Uiso   1.00
O99    O     0.48784   0.12637   0.15459   0.00000  Uiso   1.00
O100   O     0.46274   0.20391   0.34968   0.00000  Uiso   1.00
O101   O     0.54157   0.17759   0.14606   0.00000  Uiso   1.00
O102   O     0.50785   0.15880   0.34968   0.00000  Uiso   1.00
O103   O     0.51264   0.08019   0.28214   0.00000  Uiso   1.00
O104   O     0.47965   0.26085   0.27014   0.00000  Uiso   1.00
O105   O     0.40745   0.13291   0.23413   0.00000  Uiso   1.00
O106   O     0.60026   0.19272   0.21361   0.00000  Uiso   1.00
O107   O     0.40405   0.18878   0.28213   0.00000  Uiso   1.00
O108   O     0.58824   0.15226   0.27014   0.00000  Uiso   1.00
O109   O     0.47093   0.06944   0.23413   0.00000  Uiso   1.00
O110   O     0.53678   0.25620   0.21361   0.00000  Uiso   1.00
Zn111  Zn    0.52672   0.13994   0.28734   0.00000  Uiso   1.00
Zn112  Zn    0.46713   0.12458   0.21876   0.00000  Uiso   1.00
Zn113  Zn    0.54389   0.19775   0.20657   0.00000  Uiso   1.00
Zn114  Zn    0.46226   0.20439   0.28734   0.00000  Uiso   1.00
C115   C     0.71934   0.15933   0.26027   0.00000  Uiso   1.00
C116   C     0.83910   0.16599   0.06009   0.00000  Uiso   1.00
C117   C     0.87570   0.10610   0.05849   0.00000  Uiso   1.00
C118   C     0.94737   0.17441   0.24036   0.00000  Uiso   1.00
C119   C     0.81031   0.19617   0.41981   0.00000  Uiso   1.00
C120   C     0.99317   0.17987   0.23822   0.00000  Uiso   1.00
C121   C     0.67426   0.15700   0.26265   0.00000  Uiso   1.00
C122   C     0.84754   0.32272   0.23857   0.00000  Uiso   1.00
C123   C     0.81705   0.01241   0.26342   0.00000  Uiso   1.00
C124   C     0.82267   0.05612   0.25995   0.00000  Uiso   1.00
C125   C     0.84313   0.27790   0.24045   0.00000  Uiso   1.00
C126   C     0.81130   0.25189   0.47960   0.00000  Uiso   1.00
C127   C     0.85218   0.14766   0.12950   0.00000  Uiso   1.00
C128   C     0.81486   0.18481   0.37113   0.00000  Uiso   1.00
C129   C     0.87363   0.09430   0.01471   0.00000  Uiso   1.00
C130   C     0.85742   0.14098   0.08149   0.00000  Uiso   1.00
C131   C     0.80088   0.23668   0.43920   0.00000  Uiso   1.00
C132   C     0.77579   0.32910   0.29065   0.00000  Uiso   1.00
C133   C     0.81128   0.19504   0.08800   0.00000  Uiso   1.00
C134   C     0.80588   0.29384   0.49900   0.00000  Uiso   1.00
C135   C     0.68833   0.21047   0.21068   0.00000  Uiso   1.00
C136   C     0.82832   0.22691   0.00159   0.00000  Uiso   1.00
C137   C     0.82986   0.18439   0.48790   0.00000  Uiso   1.00
C138   C     0.82198   0.16911   0.44589   0.00000  Uiso   1.00
C139   C     0.84177   0.15722   0.01366   0.00000  Uiso   1.00
C140   C     0.85507   0.11847   0.49255   0.00000  Uiso   1.00
C141   C     0.84716   0.10373   0.45088   0.00000  Uiso   1.00
C142   C     0.82695   0.12726   0.43057   0.00000  Uiso   1.00
H143   H     0.88909   0.08646   0.07544   0.00000  Uiso   1.00
H144   H     0.98626   0.13349   0.28243   0.00000  Uiso   1.00
H145   H     0.88560   0.06557   0.49906   0.00000  Uiso   1.00
H146   H     0.84104   0.24159   0.02917   0.00000  Uiso   1.00
H147   H     0.81607   0.11220   0.40204   0.00000  Uiso   1.00
I148   I     0.90493   0.01705   0.19509   0.00000  Uiso   1.00
I149   I     0.86267   0.04549   0.41633   0.00000  Uiso   1.00
I150   I     0.77279   0.27776   0.40947   0.00000  Uiso   1.00
N151   N     0.74278   0.31599   0.31235   0.00000  Uiso   1.00
N152   N     0.78914   0.21809   0.11038   0.00000  Uiso   1.00
N153   N     0.80150   0.32738   0.01478   0.00000  Uiso   1.00
N154   N     0.71094   0.23505   0.18888   0.00000  Uiso   1.00
O155   O     0.83333   0.16667   0.25000   0.00000  Uiso   1.00
O156   O     0.82118   0.12637   0.15459   0.00000  Uiso   1.00
O157   O     0.79607   0.20391   0.34968   0.00000  Uiso   1.00
O158   O     0.87491   0.17759   0.14606   0.00000  Uiso   1.00
O159   O     0.84118   0.15880   0.34968   0.00000  Uiso   1.00
O160   O     0.84597   0.08019   0.28214   0.00000  Uiso   1.00
O161   O     0.81298   0.26085   0.27014   0.00000  Uiso   1.00
O162   O     0.74078   0.13291   0.23413   0.00000  Uiso   1.00
O163   O     0.93360   0.19272   0.21361   0.00000  Uiso   1.00
O164   O     0.73738   0.18878   0.28213   0.00000  Uiso   1.00
O165   O     0.92158   0.15226   0.27014   0.00000  Uiso   1.00
O166   O     0.80426   0.06944   0.23413   0.00000  Uiso   1.00
O167   O     0.87012   0.25620   0.21361   0.00000  Uiso   1.00
Zn168  Zn    0.86005   0.13994   0.28734   0.00000  Uiso   1.00
Zn169  Zn    0.80046   0.12458   0.21876   0.00000  Uiso   1.00
Zn170  Zn    0.87723   0.19775   0.20657   0.00000  Uiso   1.00
Zn171  Zn    0.79560   0.20439   0.28734   0.00000  Uiso   1.00
C172   C     0.05267   0.49266   0.26027   0.00000  Uiso   1.00
C173   C     0.17244   0.49932   0.06009   0.00000  Uiso   1.00
C174   C     0.20903   0.43944   0.05849   0.00000  Uiso   1.00
C175   C     0.28070   0.50775   0.24036   0.00000  Uiso   1.00
C176   C     0.14365   0.52951   0.41981   0.00000  Uiso   1.00
C177   C     0.32651   0.51320   0.23822   0.00000  Uiso   1.00
C178   C     0.00759   0.49033   0.26265   0.00000  Uiso   1.00
C179   C     0.18088   0.65605   0.23857   0.00000  Uiso   1.00
C180   C     0.15038   0.34574   0.26342   0.00000  Uiso   1.00
C181   C     0.15600   0.38945   0.25995   0.00000  Uiso   1.00
C182   C     0.17646   0.61124   0.24045   0.00000  Uiso   1.00
C183   C     0.14463   0.58522   0.47960   0.00000  Uiso   1.00
C184   C     0.18552   0.48099   0.12950   0.00000  Uiso   1.00
C185   C     0.14819   0.51814   0.37113   0.00000  Uiso   1.00
C186   C     0.20696   0.42764   0.01471   0.00000  Uiso   1.00
C187   C     0.19076   0.47431   0.08149   0.00000  Uiso   1.00
C188   C     0.13421   0.57001   0.43920   0.00000  Uiso   1.00
C189   C     0.10913   0.66243   0.29065   0.00000  Uiso   1.00
C190   C     0.14462   0.52837   0.08800   0.00000  Uiso   1.00
C191   C     0.13922   0.62717   0.49900   0.00000  Uiso   1.00
C192   C     0.02166   0.54381   0.21068   0.00000  Uiso   1.00
C193   C     0.16165   0.56024   0.00159   0.00000  Uiso   1.00
C194   C     0.16319   0.51772   0.48790   0.00000  Uiso   1.00
C195   C     0.15532   0.50244   0.44589   0.00000  Uiso   1.00
C196   C     0.17510   0.49055   0.01366   0.00000  Uiso   1.00
C197   C     0.18840   0.45180   0.49255   0.00000  Uiso   1.00
C198   C     0.18050   0.43707   0.45088   0.00000  Uiso   1.00
C199   C     0.16028   0.46060   0.43057   0.00000  Uiso   1.00
H200   H     0.22242   0.41979   0.07544   0.00000  Uiso   1.00
H201   H     0.31959   0.46682   0.28243   0.00000  Uiso   1.00
H202   H     0.21894   0.39890   0.49906   0.00000  Uiso   1.00
H203   H     0.17437   0.57492   0.02917   0.00000  Uiso   1.00
H204   H     0.14940   0.44554   0.40204   0.00000  Uiso   1.00
I205   I     0.23826   0.35038   0.19509   0.00000  Uiso   1.00
I206   I     0.19601   0.37882   0.41633   0.00000  Uiso   1.00
I207   I     0.10612   0.61109   0.40947   0.00000  Uiso   1.00
N208   N     0.07611   0.64932   0.31235   0.00000  Uiso   1.00
N209   N     0.12247   0.55143   0.11038   0.00000  Uiso   1.00
N210   N     0.13484   0.66071   0.01478   0.00000  Uiso   1.00
N211   N     0.04428   0.56838   0.18888   0.00000  Uiso   1.00
O212   O     0.16667   0.50000   0.25000   0.00000  Uiso   1.00
O213   O     0.15451   0.45970   0.15459   0.00000  Uiso   1.00
O214   O     0.12940   0.53724   0.34968   0.00000  Uiso   1.00
O215   O     0.20824   0.51092   0.14606   0.00000  Uiso   1.00
O216   O     0.17451   0.49213   0.34968   0.00000  Uiso   1.00
O217   O     0.17930   0.41352   0.28214   0.00000  Uiso   1.00
O218   O     0.14632   0.59418   0.27014   0.00000  Uiso   1.00
O219   O     0.07412   0.46625   0.23413   0.00000  Uiso   1.00
O220   O     0.26693   0.52605   0.21361   0.00000  Uiso   1.00
O221   O     0.07071   0.52211   0.28213   0.00000  Uiso   1.00
O222   O     0.25491   0.48559   0.27014   0.00000  Uiso   1.00
O223   O     0.13760   0.40277   0.23413   0.00000  Uiso   1.00
O224   O     0.20345   0.58953   0.21361   0.00000  Uiso   1.00
Zn225  Zn    0.19338   0.47327   0.28734   0.00000  Uiso   1.00
Zn226  Zn    0.13379   0.45791   0.21876   0.00000  Uiso   1.00
Zn227  Zn    0.21056   0.53109   0.20657   0.00000  Uiso   1.00
Zn228  Zn    0.12893   0.53773   0.28734   0.00000  Uiso   1.00
C229   C     0.38600   0.49266   0.26027   0.00000  Uiso   1.00
C230   C     0.50577   0.49932   0.06009   0.00000  Uiso   1.00
C231   C     0.54236   0.43944   0.05849   0.00000  Uiso   1.00
C232   C     0.61404   0.50775   0.24036   0.00000  Uiso   1.00
C233   C     0.47698   0.52951   0.41981   0.00000  Uiso   1.00
C234   C     0.65984   0.51320   0.23822   0.00000  Uiso   1.00
C235   C     0.34092   0.49033   0.26265   0.00000  Uiso   1.00
C236   C     0.51421   0.65605   0.23857   0.00000  Uiso   1.00
C237   C     0.48371   0.34574   0.26342   0.00000  Uiso   1.00
C238   C     0.48934   0.38945   0.25995   0.00000  Uiso   1.00
C239   C     0.50979   0.61124   0.24045   0.00000  Uiso   1.00
C240   C     0.47796   0.58522   0.47960   0.00000  Uiso   1.00
C241   C     0.51885   0.48099   0.12950   0.00000  Uiso   1.00
C242   C     0.48153   0.51814   0.37113   0.00000  Uiso   1.00
C243   C     0.54030   0.42764   0.01471   0.00000  Uiso   1.00
C244   C     0.52409   0.47431   0.08149   0.00000  Uiso   1.00
C245   C     0.46754   0.57001   0.43920   0.00000  Uiso   1.00
C246   C     0.44246   0.66243   0.29065   0.00000  Uiso   1.00
C247   C     0.47795   0.52837   0.08800   0.00000  Uiso   1.00
C248   C     0.47255   0.62717   0.49900   0.00000  Uiso   1.00
C249   C     0.35499   0.54381   0.21068   0.00000  Uiso   1.00
C250   C     0.49499   0.56024   0.00159   0.00000  Uiso   1.00
C251   C     0.49652   0.51772   0.48790   0.00000  Uiso   1.00
C252   C     0.48865   0.50244   0.44589   0.00000  Uiso   1.00
C253   C     0.50843   0.49055   0.01366   0.00000  Uiso   1.00
C254   C     0.52173   0.45180   0.49255   0.00000  Uiso   1.00
C255   C     0.51383   0.43707   0.45088   0.00000  Uiso   1.00
C256   C     0.49362   0.46060   0.43057   0.00000  Uiso   1.00
H257   H     0.55575   0.41979   0.07544   0.00000  Uiso   1.00
H258   H     0.65292   0.46682   0.28243   0.00000  Uiso   1.00
H259   H     0.55227   0.39890   0.49906   0.00000  Uiso   1.00
H260   H     0.50770   0.57492   0.02917   0.00000  Uiso   1.00
H261   H     0.48273   0.44554   0.40204   0.00000  Uiso   1.00
I262   I     0.57159   0.35038   0.19509   0.00000  Uiso   1.00
I263   I     0.52934   0.37882   0.41633   0.00000  Uiso   1.00
I264   I     0.43946   0.61109   0.40947   0.00000  Uiso   1.00
N265   N     0.40945   0.64932   0.31235   0.00000  Uiso   1.00
N266   N     0.45581   0.55143   0.11038   0.00000  Uiso   1.00
N267   N     0.46817   0.66071   0.01478   0.00000  Uiso   1.00
N268   N     0.37761   0.56838   0.18888   0.00000  Uiso   1.00
O269   O     0.50000   0.50000   0.25000   0.00000  Uiso   1.00
O270   O     0.48784   0.45970   0.15459   0.00000  Uiso   1.00
O271   O     0.46274   0.53724   0.34968   0.00000  Uiso   1.00
O272   O     0.54157   0.51092   0.14606   0.00000  Uiso   1.00
O273   O     0.50785   0.49213   0.34968   0.00000  Uiso   1.00
O274   O     0.51264   0.41352   0.28214   0.00000  Uiso   1.00
O275   O     0.47965   0.59418   0.27014   0.00000  Uiso   1.00
O276   O     0.40745   0.46625   0.23413   0.00000  Uiso   1.00
O277   O     0.60026   0.52605   0.21361   0.00000  Uiso   1.00
O278   O     0.40405   0.52211   0.28213   0.00000  Uiso   1.00
O279   O     0.58824   0.48559   0.27014   0.00000  Uiso   1.00
O280   O     0.47093   0.40277   0.23413   0.00000  Uiso   1.00
O281   O     0.53678   0.58953   0.21361   0.00000  Uiso   1.00
Zn282  Zn    0.52672   0.47327   0.28734   0.00000  Uiso   1.00
Zn283  Zn    0.46713   0.45791   0.21876   0.00000  Uiso   1.00
Zn284  Zn    0.54389   0.53109   0.20657   0.00000  Uiso   1.00
Zn285  Zn    0.46226   0.53773   0.28734   0.00000  Uiso   1.00
C286   C     0.71934   0.49266   0.26027   0.00000  Uiso   1.00
C287   C     0.83910   0.49932   0.06009   0.00000  Uiso   1.00
C288   C     0.87570   0.43944   0.05849   0.00000  Uiso   1.00
C289   C     0.94737   0.50775   0.24036   0.00000  Uiso   1.00
C290   C     0.81031   0.52951   0.41981   0.00000  Uiso   1.00
C291   C     0.99317   0.51320   0.23822   0.00000  Uiso   1.00
C292   C     0.67426   0.49033   0.26265   0.00000  Uiso   1.00
C293   C     0.84754   0.65605   0.23857   0.00000  Uiso   1.00
C294   C     0.81705   0.34574   0.26342   0.00000  Uiso   1.00
C295   C     0.82267   0.38945   0.25995   0.00000  Uiso   1.00
C296   C     0.84313   0.61124   0.24045   0.00000  Uiso   1.00
C297   C     0.81130   0.58522   0.47960   0.00000  Uiso   1.00
C298   C     0.85218   0.48099   0.12950   0.00000  Uiso   1.00
C299   C     0.81486   0.51814   0.37113   0.00000  Uiso   1.00
C300   C     0.87363   0.42764   0.01471   0.00000  Uiso   1.00
C301   C     0.85742   0.47431   0.08149   0.00000  Uiso   1.00
C302   C     0.80088   0.57001   0.43920   0.00000  Uiso   1.00
C303   C     0.77579   0.66243   0.29065   0.00000  Uiso   1.00
C304   C     0.81128   0.52837   0.08800   0.00000  Uiso   1.00
C305   C     0.80588   0.62717   0.49900   0.00000  Uiso   1.00
C306   C     0.68833   0.54381   0.21068   0.00000  Uiso   1.00
C307   C     0.82832   0.56024   0.00159   0.00000  Uiso   1.00
C308   C     0.82986   0.51772   0.48790   0.00000  Uiso   1.00
C309   C     0.82198   0.50244   0.44589   0.00000  Uiso   1.00
C310   C     0.84177   0.49055   0.01366   0.00000  Uiso   1.00
C311   C     0.85507   0.45180   0.49255   0.00000  Uiso   1.00
C312   C     0.84716   0.43707   0.45088   0.00000  Uiso   1.00
C313   C     0.82695   0.46060   0.43057   0.00000  Uiso   1.00
H314   H     0.88909   0.41979   0.07544   0.00000  Uiso   1.00
H315   H     0.98626   0.46682   0.28243   0.00000  Uiso   1.00
H316   H     0.88560   0.39890   0.49906   0.00000  Uiso   1.00
H317   H     0.84104   0.57492   0.02917   0.00000  Uiso   1.00
H318   H     0.81607   0.44554   0.40204   0.00000  Uiso   1.00
I319   I     0.90493   0.35038   0.19509   0.00000  Uiso   1.00
I320   I     0.86267   0.37882   0.41633   0.00000  Uiso   1.00
I321   I     0.77279   0.61109   0.40947   0.00000  Uiso   1.00
N322   N     0.74278   0.64932   0.31235   0.00000  Uiso   1.00
N323   N     0.78914   0.55143   0.11038   0.00000  Uiso   1.00
N324   N     0.80150   0.66071   0.01478   0.00000  Uiso   1.00
N325   N     0.71094   0.56838   0.18888   0.00000  Uiso   1.00
O326   O     0.83333   0.50000   0.25000   0.00000  Uiso   1.00
O327   O     0.82118   0.45970   0.15459   0.00000  Uiso   1.00
O328   O     0.79607   0.53724   0.34968   0.00000  Uiso   1.00
O329   O     0.87491   0.51092   0.14606   0.00000  Uiso   1.00
O330   O     0.84118   0.49213   0.34968   0.00000  Uiso   1.00
O331   O     0.84597   0.41352   0.28214   0.00000  Uiso   1.00
O332   O     0.81298   0.59418   0.27014   0.00000  Uiso   1.00
O333   O     0.74078   0.46625   0.23413   0.00000  Uiso   1.00
O334   O     0.93360   0.52605   0.21361   0.00000  Uiso   1.00
O335   O     0.73738   0.52211   0.28213   0.00000  Uiso   1.00
O336   O     0.92158   0.48559   0.27014   0.00000  Uiso   1.00
O337   O     0.80426   0.40277   0.23413   0.00000  Uiso   1.00
O338   O     0.87012   0.58953   0.21361   0.00000  Uiso   1.00
Zn339  Zn    0.86005   0.47327   0.28734   0.00000  Uiso   1.00
Zn340  Zn    0.80046   0.45791   0.21876   0.00000  Uiso   1.00
Zn341  Zn    0.87723   0.53109   0.20657   0.00000  Uiso   1.00
Zn342  Zn    0.79560   0.53773   0.28734   0.00000  Uiso   1.00
C343   C     0.05267   0.82599   0.26027   0.00000  Uiso   1.00
C344   C     0.17244   0.83266   0.06009   0.00000  Uiso   1.00
C345   C     0.20903   0.77277   0.05849   0.00000  Uiso   1.00
C346   C     0.28070   0.84108   0.24036   0.00000  Uiso   1.00
C347   C     0.14365   0.86284   0.41981   0.00000  Uiso   1.00
C348   C     0.32651   0.84654   0.23822   0.00000  Uiso   1.00
C349   C     0.00759   0.82367   0.26265   0.00000  Uiso   1.00
C350   C     0.18088   0.98939   0.23857   0.00000  Uiso   1.00
C351   C     0.15038   0.67907   0.26342   0.00000  Uiso   1.00
C352   C     0.15600   0.72279   0.25995   0.00000  Uiso   1.00
C353   C     0.17646   0.94457   0.24045   0.00000  Uiso   1.00
C354   C     0.14463   0.91856   0.47960   0.00000  Uiso   1.00
C355   C     0.18552   0.81433   0.12950   0.00000  Uiso   1.00
C356   C     0.14819   0.85148   0.37113   0.00000  Uiso   1.00
C357   C     0.20696   0.76097   0.01471   0.00000  Uiso   1.00
C358   C     0.19076   0.80764   0.08149   0.00000  Uiso   1.00
C359   C     0.13421   0.90334   0.43920   0.00000  Uiso   1.00
C360   C     0.10913   0.99577   0.29065   0.00000  Uiso   1.00
C361   C     0.14462   0.86171   0.08800   0.00000  Uiso   1.00
C362   C     0.13922   0.96051   0.49900   0.00000  Uiso   1.00
C363   C     0.02166   0.87714   0.21068   0.00000  Uiso   1.00
C364   C     0.16165   0.89357   0.00159   0.00000  Uiso   1.00
C365   C     0.16319   0.85105   0.48790   0.00000  Uiso   1.00
C366   C     0.15532   0.83578   0.44589   0.00000  Uiso   1.00
C367   C     0.17510   0.82388   0.01366   0.00000  Uiso   1.00
C368   C     0.18840   0.78514   0.49255   0.00000  Uiso   1.00
C369   C     0.18050   0.77040   0.45088   0.00000  Uiso   1.00
C370   C     0.16028   0.79393   0.43057   0.00000  Uiso   1.00
H371   H     0.22242   0.75312   0.07544   0.00000  Uiso   1.00
H372   H     0.31959   0.80015   0.28243   0.00000  Uiso   1.00
H373   H     0.21894   0.73223   0.49906   0.00000  Uiso   1.00
H374   H     0.17437   0.90826   0.02917   0.00000  Uiso   1.00
H375   H     0.14940   0.77887   0.40204   0.00000  Uiso   1.00
I376   I     0.23826   0.68372   0.19509   0.00000  Uiso   1.00
I377   I     0.19601   0.71216   0.41633   0.00000  Uiso   1.00
I378   I     0.10612   0.94442   0.40947   0.00000  Uiso   1.00
N379   N     0.07611   0.98265   0.31235   0.00000  Uiso   1.00
N380   N     0.12247   0.88476   0.11038   0.00000  Uiso   1.00
N381   N     0.13484   0.99405   0.01478   0.00000  Uiso   1.00
N382   N     0.04428   0.90172   0.18888   0.00000  Uiso   1.00
O383   O     0.16667   0.83333   0.25000   0.00000  Uiso   1.00
O384   O     0.15451   0.79304   0.15459   0.00000  Uiso   1.00
O385   O     0.12940   0.87058   0.34968   0.00000  Uiso   1.00
O386   O     0.20824   0.84425   0.14606   0.00000  Uiso   1.00
O387   O     0.17451   0.82546   0.34968   0.00000  Uiso   1.00
O388   O     0.17930   0.74686   0.28214   0.00000  Uiso   1.00
O389   O     0.14632   0.92751   0.27014   0.00000  Uiso   1.00
O390   O     0.07412   0.79958   0.23413   0.00000  Uiso   1.00
O391   O     0.26693   0.85939   0.21361   0.00000  Uiso   1.00
O392   O     0.07071   0.85544   0.28213   0.00000  Uiso   1.00
O393   O     0.25491   0.81892   0.27014   0.00000  Uiso   1.00
O394   O     0.13760   0.73610   0.23413   0.00000  Uiso   1.00
O395   O     0.20345   0.92286   0.21361   0.00000  Uiso   1.00
Zn396  Zn    0.19338   0.80661   0.28734   0.00000  Uiso   1.00
Zn397  Zn    0.13379   0.79124   0.21876   0.00000  Uiso   1.00
Zn398  Zn    0.21056   0.86442   0.20657   0.00000  Uiso   1.00
Zn399  Zn    0.12893   0.87106   0.28734   0.00000  Uiso   1.00
C400   C     0.38600   0.82599   0.26027   0.00000  Uiso   1.00
C401   C     0.50577   0.83266   0.06009   0.00000  Uiso   1.00
C402   C     0.54236   0.77277   0.05849   0.00000  Uiso   1.00
C403   C     0.61404   0.84108   0.24036   0.00000  Uiso   1.00
C404   C     0.47698   0.86284   0.41981   0.00000  Uiso   1.00
C405   C     0.65984   0.84654   0.23822   0.00000  Uiso   1.00
C406   C     0.34092   0.82367   0.26265   0.00000  Uiso   1.00
C407   C     0.51421   0.98939   0.23857   0.00000  Uiso   1.00
C408   C     0.48371   0.67907   0.26342   0.00000  Uiso   1.00
C409   C     0.48934   0.72279   0.25995   0.00000  Uiso   1.00
C410   C     0.50979   0.94457   0.24045   0.00000  Uiso   1.00
C411   C     0.47796   0.91856   0.47960   0.00000  Uiso   1.00
C412   C     0.51885   0.81433   0.12950   0.00000  Uiso   1.00
C413   C     0.48153   0.85148   0.37113   0.00000  Uiso   1.00
C414   C     0.54030   0.76097   0.01471   0.00000  Uiso   1.00
C415   C     0.52409   0.80764   0.08149   0.00000  Uiso   1.00
C416   C     0.46754   0.90334   0.43920   0.00000  Uiso   1.00
C417   C     0.44246   0.99577   0.29065   0.00000  Uiso   1.00
C418   C     0.47795   0.86171   0.08800   0.00000  Uiso   1.00
C419   C     0.47255   0.96051   0.49900   0.00000  Uiso   1.00
C420   C     0.35499   0.87714   0.21068   0.00000  Uiso   1.00
C421   C     0.49499   0.89357   0.00159   0.00000  Uiso   1.00
C422   C     0.49652   0.85105   0.48790   0.00000  Uiso   1.00
C423   C     0.48865   0.83578   0.44589   0.00000  Uiso   1.00
C424   C     0.50843   0.82388   0.01366   0.00000  Uiso   1.00
C425   C     0.52173   0.78514   0.49255   0.00000  Uiso   1.00
C426   C     0.51383   0.77040   0.45088   0.00000  Uiso   1.00
C427   C     0.49362   0.79393   0.43057   0.00000  Uiso   1.00
H428   H     0.55575   0.75312   0.07544   0.00000  Uiso   1.00
H429   H     0.65292   0.80015   0.28243   0.00000  Uiso   1.00
H430   H     0.55227   0.73223   0.49906   0.00000  Uiso   1.00
H431   H     0.50770   0.90826   0.02917   0.00000  Uiso   1.00
H432   H     0.48273   0.77887   0.40204   0.00000  Uiso   1.00
I433   I     0.57159   0.68372   0.19509   0.00000  Uiso   1.00
I434   I     0.52934   0.71216   0.41633   0.00000  Uiso   1.00
I435   I     0.43946   0.94442   0.40947   0.00000  Uiso   1.00
N436   N     0.40945   0.98265   0.31235   0.00000  Uiso   1.00
N437   N     0.45581   0.88476   0.11038   0.00000  Uiso   1.00
N438   N     0.46817   0.99405   0.01478   0.00000  Uiso   1.00
N439   N     0.37761   0.90172   0.18888   0.00000  Uiso   1.00
O440   O     0.50000   0.83333   0.25000   0.00000  Uiso   1.00
O441   O     0.48784   0.79304   0.15459   0.00000  Uiso   1.00
O442   O     0.46274   0.87058   0.34968   0.00000  Uiso   1.00
O443   O     0.54157   0.84425   0.14606   0.00000  Uiso   1.00
O444   O     0.50785   0.82546   0.34968   0.00000  Uiso   1.00
O445   O     0.51264   0.74686   0.28214   0.00000  Uiso   1.00
O446   O     0.47965   0.92751   0.27014   0.00000  Uiso   1.00
O447   O     0.40745   0.79958   0.23413   0.00000  Uiso   1.00
O448   O     0.60026   0.85939   0.21361   0.00000  Uiso   1.00
O449   O     0.40405   0.85544   0.28213   0.00000  Uiso   1.00
O450   O     0.58824   0.81892   0.27014   0.00000  Uiso   1.00
O451   O     0.47093   0.73610   0.23413   0.00000  Uiso   1.00
O452   O     0.53678   0.92286   0.21361   0.00000  Uiso   1.00
Zn453  Zn    0.52672   0.80661   0.28734   0.00000  Uiso   1.00
Zn454  Zn    0.46713   0.79124   0.21876   0.00000  Uiso   1.00
Zn455  Zn    0.54389   0.86442   0.20657   0.00000  Uiso   1.00
Zn456  Zn    0.46226   0.87106   0.28734   0.00000  Uiso   1.00
C457   C     0.71934   0.82599   0.26027   0.00000  Uiso   1.00
C458   C     0.83910   0.83266   0.06009   0.00000  Uiso   1.00
C459   C     0.87570   0.77277   0.05849   0.00000  Uiso   1.00
C460   C     0.94737   0.84108   0.24036   0.00000  Uiso   1.00
C461   C     0.81031   0.86284   0.41981   0.00000  Uiso   1.00
C462   C     0.99317   0.84654   0.23822   0.00000  Uiso   1.00
C463   C     0.67426   0.82367   0.26265   0.00000  Uiso   1.00
C464   C     0.84754   0.98939   0.23857   0.00000  Uiso   1.00
C465   C     0.81705   0.67907   0.26342   0.00000  Uiso   1.00
C466   C     0.82267   0.72279   0.25995   0.00000  Uiso   1.00
C467   C     0.84313   0.94457   0.24045   0.00000  Uiso   1.00
C468   C     0.81130   0.91856   0.47960   0.00000  Uiso   1.00
C469   C     0.85218   0.81433   0.12950   0.00000  Uiso   1.00
C470   C     0.81486   0.85148   0.37113   0.00000  Uiso   1.00
C471   C     0.87363   0.76097   0.01471   0.00000  Uiso   1.00
C472   C     0.85742   0.80764   0.08149   0.00000  Uiso   1.00
C473   C     0.80088   0.90334   0.43920   0.00000  Uiso   1.00
C474   C     0.77579   0.99577   0.29065   0.00000  Uiso   1.00
C475   C     0.81128   0.86171   0.08800   0.00000  Uiso   1.00
C476   C     0.80588   0.96051   0.49900   0.00000  Uiso   1.00
C477   C     0.68833   0.87714   0.21068   0.00000  Uiso   1.00
C478   C     0.82832   0.89357   0.00159   0.00000  Uiso   1.00
C479   C     0.82986   0.85105   0.48790   0.00000  Uiso   1.00
C480   C     0.82198   0.83578   0.44589   0.00000  Uiso   1.00
C481   C     0.84177   0.82388   0.01366   0.00000  Uiso   1.00
C482   C     0.85507   0.78514   0.49255   0.00000  Uiso   1.00
C483   C     0.84716   0.77040   0.45088   0.00000  Uiso   1.00
C484   C     0.82695   0.79393   0.43057   0.00000  Uiso   1.00
H485   H     0.88909   0.75312   0.07544   0.00000  Uiso   1.00
H486   H     0.98626   0.80015   0.28243   0.00000  Uiso   1.00
H487   H     0.88560   0.73223   0.49906   0.00000  Uiso   1.00
H488   H     0.84104   0.90826   0.02917   0.00000  Uiso   1.00
H489   H     0.81607   0.77887   0.40204   0.00000  Uiso   1.00
I490   I     0.90493   0.68372   0.19509   0.00000  Uiso   1.00
I491   I     0.86267   0.71216   0.41633   0.00000  Uiso   1.00
I492   I     0.77279   0.94442   0.40947   0.00000  Uiso   1.00
N493   N     0.74278   0.98265   0.31235   0.00000  Uiso   1.00
N494   N     0.78914   0.88476   0.11038   0.00000  Uiso   1.00
N495   N     0.80150   0.99405   0.01478   0.00000  Uiso   1.00
N496   N     0.71094   0.90172   0.18888   0.00000  Uiso   1.00
O497   O     0.83333   0.83333   0.25000   0.00000  Uiso   1.00
O498   O     0.82118   0.79304   0.15459   0.00000  Uiso   1.00
O499   O     0.79607   0.87058   0.34968   0.00000  Uiso   1.00
O500   O     0.87491   0.84425   0.14606   0.00000  Uiso   1.00
O501   O     0.84118   0.82546   0.34968   0.00000  Uiso   1.00
O502   O     0.84597   0.74686   0.28214   0.00000  Uiso   1.00
O503   O     0.81298   0.92751   0.27014   0.00000  Uiso   1.00
O504   O     0.74078   0.79958   0.23413   0.00000  Uiso   1.00
O505   O     0.93360   0.85939   0.21361   0.00000  Uiso   1.00
O506   O     0.73738   0.85544   0.28213   0.00000  Uiso   1.00
O507   O     0.92158   0.81892   0.27014   0.00000  Uiso   1.00
O508   O     0.80426   0.73610   0.23413   0.00000  Uiso   1.00
O509   O     0.87012   0.92286   0.21361   0.00000  Uiso   1.00
Zn510  Zn    0.86005   0.80661   0.28734   0.00000  Uiso   1.00
Zn511  Zn    0.80046   0.79124   0.21876   0.00000  Uiso   1.00
Zn512  Zn    0.87723   0.86442   0.20657   0.00000  Uiso   1.00
Zn513  Zn    0.79560   0.87106   0.28734   0.00000  Uiso   1.00
C514   C     0.05267   0.15933   0.76027   0.00000  Uiso   1.00
C515   C     0.17244   0.16599   0.56009   0.00000  Uiso   1.00
C516   C     0.20903   0.10610   0.55849   0.00000  Uiso   1.00
C517   C     0.28070   0.17441   0.74036   0.00000  Uiso   1.00
C518   C     0.14365   0.19617   0.91981   0.00000  Uiso   1.00
C519   C     0.32651   0.17987   0.73822   0.00000  Uiso   1.00
C520   C     0.00759   0.15700   0.76265   0.00000  Uiso   1.00
C521   C     0.18088   0.32272   0.73857   0.00000  Uiso   1.00
C522   C     0.15038   0.01241   0.76342   0.00000  Uiso   1.00
C523   C     0.15600   0.05612   0.75995   0.00000  Uiso   1.00
C524   C     0.17646   0.27790   0.74045   0.00000  Uiso   1.00
C525   C     0.14463   0.25189   0.97960   0.00000  Uiso   1.00
C526   C     0.18552   0.14766   0.62950   0.00000  Uiso   1.00
C527   C     0.14819   0.18481   0.87113   0.00000  Uiso   1.00
C528   C     0.20696   0.09430   0.51471   0.00000  Uiso   1.00
C529   C     0.19076   0.14098   0.58149   0.00000  Uiso   1.00
C530   C     0.13421   0.23668   0.93920   0.00000  Uiso   1.00
C531   C     0.10913   0.32910   0.79065   0.00000  Uiso   1.00
C532   C     0.14462   0.19504   0.58800   0.00000  Uiso   1.00
C533   C     0.13922   0.29384   0.99900   0.00000  Uiso   1.00
C534   C     0.02166   0.21047   0.71068   0.00000  Uiso   1.00
C535   C     0.16165   0.22691   0.50159   0.00000  Uiso   1.00
C536   C     0.16319   0.18439   0.98790   0.00000  Uiso   1.00
C537   C     0.15532   0.16911   0.94589   0.00000  Uiso   1.00
C538   C     0.17510   0.15722   0.51366   0.00000  Uiso   1.00
C539   C     0.18840   0.11847   0.99255   0.00000  Uiso   1.00
C540   C     0.18050   0.10373   0.95088   0.00000  Uiso   1.00
C541   C     0.16028   0.12726   0.93057   0.00000  Uiso   1.00
H542   H     0.22242   0.08646   0.57544   0.00000  Uiso   1.00
H543   H     0.31959   0.13349   0.78243   0.00000  Uiso   1.00
H544   H     0.21894   0.06557   0.99906   0.00000  Uiso   1.00
H545   H     0.17437   0.24159   0.52917   0.00000  Uiso   1.00
H546   H     0.14940   0.11220   0.90204   0.00000  Uiso   1.00
I547   I     0.23826   0.01705   0.69509   0.00000  Uiso   1.00
I548   I     0.19601   0.04549   0.91633   0.00000  Uiso   1.00
I549   I     0.10612   0.27776   0.90947   0.00000  Uiso   1.00
N550   N     0.07611   0.31599   0.81235   0.00000  Uiso   1.00
N551   N     0.12247   0.21809   0.61038   0.00000  Uiso   1.00
N552   N     0.13484   0.32738   0.51478   0.00000  Uiso   1.00
N553   N     0.04428   0.23505   0.68888   0.00000  Uiso   1.00
O554   O     0.16667   0.16667   0.75000   0.00000  Uiso   1.00
O555   O     0.15451   0.12637   0.65459   0.00000  Uiso   1.00
O556   O     0.12940   0.20391   0.84968   0.00000  Uiso   1.00
O557   O     0.20824   0.17759   0.64606   0.00000  Uiso   1.00
O558   O     0.17451   0.15880   0.84968   0.00000  Uiso   1.00
O559   O     0.17930   0.08019   0.78214   0.00000  Uiso   1.00
O560   O     0.14632   0.26085   0.77014   0.00000  Uiso   1.00
O561   O     0.07412   0.13291   0.73413   0.00000  Uiso   1.00
O562   O     0.26693   0.19272   0.71361   0.00000  Uiso   1.00
O563   O     0.07071   0.18878   0.78213   0.00000  Uiso   1.00
O564   O     0.25491   0.15226   0.77014   0.00000  Uiso   1.00
O565   O     0.13760   0.06944   0.73413   0.00000  Uiso   1.00
O566   O     0.20345   0.25620   0.71361   0.00000  Uiso   1.00
Zn567  Zn    0.19338   0.13994   0.78734   0.00000  Uiso   1.00
Zn568  Zn    0.13379   0.12458   0.71876   0.00000  Uiso   1.00
Zn569  Zn    0.21056   0.19775   0.70657   0.00000  Uiso   1.00
Zn570  Zn    0.12893   0.20439   0.78734   0.00000  Uiso   1.00
C571   C     0.38600   0.15933   0.76027   0.00000  Uiso   1.00
C572   C     0.50577   0.16599   0.56009   0.00000  Uiso   1.00
C573   C     0.54236   0.10610   0.55849   0.00000  Uiso   1.00
C574   C     0.61404   0.17441   0.74036   0.00000  Uiso   1.00
C575   C     0.47698   0.19617   0.91981   0.00000  Uiso   1.00
C576   C     0.65984   0.17987   0.73822   0.00000  Uiso   1.00
C577   C     0.34092   0.15700   0.76265   0.00000  Uiso   1.00
C578   C     0.51421   0.32272   0.73857   0.00000  Uiso   1.00
C579   C     0.48371   0.01241   0.76342   0.00000  Uiso   1.00
C580   C     0.48934   0.05612   0.75995   0.00000  Uiso   1.00
C581   C     0.50979   0.27790   0.74045   0.00000  Uiso   1.00
C582   C     0.47796   0.25189   0.97960   0.00000  Uiso   1.00
C583   C     0.51885   0.14766   0.62950   0.00000  Uiso   1.00
C584   C     0.48153   0.18481   0.87113   0.00000  Uiso   1.00
C585   C     0.54030   0.09430   0.51471   0.00000  Uiso   1.00
C586   C     0.52409   0.14098   0.58149   0.00000  Uiso   1.00
C587   C     0.46754   0.23668   0.93920   0.00000  Uiso   1.00
C588   C     0.44246   0.32910   0.79065   0.00000  Uiso   1.00
C589   C     0.47795   0.19504   0.58800   0.00000  Uiso   1.00
C590   C     0.47255   0.29384   0.99900   0.00000  Uiso   1.00
C591   C     0.35499   0.21047   0.71068   0.00000  Uiso   1.00
C592   C     0.49499   0.22691   0.50159   0.00000  Uiso   1.00
C593   C     0.49652   0.18439   0.98790   0.00000  Uiso   1.00
C594   C     0.48865   0.16911   0.94589   0.00000  Uiso   1.00
C595   C     0.50843   0.15722   0.51366   0.00000  Uiso   1.00
C596   C     0.52173   0.11847   0.99255   0.00000  Uiso   1.00
C597   C     0.51383   0.10373   0.95088   0.00000  Uiso   1.00
C598   C     0.49362   0.12726   0.93057   0.00000  Uiso   1.00
H599   H     0.55575   0.08646   0.57544   0.00000  Uiso   1.00
H600   H     0.65292   0.13349   0.78243   0.00000  Uiso   1.00
H601   H     0.55227   0.06557   0.99906   0.00000  Uiso   1.00
H602   H     0.50770   0.24159   0.52917   0.00000  Uiso   1.00
H603   H     0.48273   0.11220   0.90204   0.00000  Uiso   1.00
I604   I     0.57159   0.01705   0.69509   0.00000  Uiso   1.00
I605   I     0.52934   0.04549   0.91633   0.00000  Uiso   1.00
I606   I     0.43946   0.27776   0.90947   0.00000  Uiso   1.00
N607   N     0.40945   0.31599   0.81235   0.00000  Uiso   1.00
N608   N     0.45581   0.21809   0.61038   0.00000  Uiso   1.00
N609   N     0.46817   0.32738   0.51478   0.00000  Uiso   1.00
N610   N     0.37761   0.23505   0.68888   0.00000  Uiso   1.00
O611   O     0.50000   0.16667   0.75000   0.00000  Uiso   1.00
O612   O     0.48784   0.12637   0.65459   0.00000  Uiso   1.00
O613   O     0.46274   0.20391   0.84968   0.00000  Uiso   1.00
O614   O     0.54157   0.17759   0.64606   0.00000  Uiso   1.00
O615   O     0.50785   0.15880   0.84968   0.00000  Uiso   1.00
O616   O     0.51264   0.08019   0.78214   0.00000  Uiso   1.00
O617   O     0.47965   0.26085   0.77014   0.00000  Uiso   1.00
O618   O     0.40745   0.13291   0.73413   0.00000  Uiso   1.00
O619   O     0.60026   0.19272   0.71361   0.00000  Uiso   1.00
O620   O     0.40405   0.18878   0.78213   0.00000  Uiso   1.00
O621   O     0.58824   0.15226   0.77014   0.00000  Uiso   1.00
O622   O     0.47093   0.06944   0.73413   0.00000  Uiso   1.00
O623   O     0.53678   0.25620   0.71361   0.00000  Uiso   1.00
Zn624  Zn    0.52672   0.13994   0.78734   0.00000  Uiso   1.00
Zn625  Zn    0.46713   0.12458   0.71876   0.00000  Uiso   1.00
Zn626  Zn    0.54389   0.19775   0.70657   0.00000  Uiso   1.00
Zn627  Zn    0.46226   0.20439   0.78734   0.00000  Uiso   1.00
C628   C     0.71934   0.15933   0.76027   0.00000  Uiso   1.00
C629   C     0.83910   0.16599   0.56009   0.00000  Uiso   1.00
C630   C     0.87570   0.10610   0.55849   0.00000  Uiso   1.00
C631   C     0.94737   0.17441   0.74036   0.00000  Uiso   1.00
C632   C     0.81031   0.19617   0.91981   0.00000  Uiso   1.00
C633   C     0.99317   0.17987   0.73822   0.00000  Uiso   1.00
C634   C     0.67426   0.15700   0.76265   0.00000  Uiso   1.00
C635   C     0.84754   0.32272   0.73857   0.00000  Uiso   1.00
C636   C     0.81705   0.01241   0.76342   0.00000  Uiso   1.00
C637   C     0.82267   0.05612   0.75995   0.00000  Uiso   1.00
C638   C     0.84313   0.27790   0.74045   0.00000  Uiso   1.00
C639   C     0.81130   0.25189   0.97960   0.00000  Uiso   1.00
C640   C     0.85218   0.14766   0.62950   0.00000  Uiso   1.00
C641   C     0.81486   0.18481   0.87113   0.00000  Uiso   1.00
C642   C     0.87363   0.09430   0.51471   0.00000  Uiso   1.00
C643   C     0.85742   0.14098   0.58149   0.00000  Uiso   1.00
C644   C     0.80088   0.23668   0.93920   0.00000  Uiso   1.00
C645   C     0.77579   0.32910   0.79065   0.00000  Uiso   1.00
C646   C     0.81128   0.19504   0.58800   0.00000  Uiso   1.00
C647   C     0.80588   0.29384   0.99900   0.00000  Uiso   1.00
C648   C     0.68833   0.21047   0.71068   0.00000  Uiso   1.00
C649   C     0.82832   0.22691   0.50159   0.00000  Uiso   1.00
C650   C     0.82986   0.18439   0.98790   0.00000  Uiso   1.00
C651   C     0.82198   0.16911   0.94589   0.00000  Uiso   1.00
C652   C     0.84177   0.15722   0.51366   0.00000  Uiso   1.00
C653   C     0.85507   0.11847   0.99255   0.00000  Uiso   1.00
C654   C     0.84716   0.10373   0.95088   0.00000  Uiso   1.00
C655   C     0.82695   0.12726   0.93057   0.00000  Uiso   1.00
H656   H     0.88909   0.08646   0.57544   0.00000  Uiso   1.00
H657   H     0.98626   0.13349   0.78243   0.00000  Uiso   1.00
H658   H     0.88560   0.06557   0.99906   0.00000  Uiso   1.00
H659   H     0.84104   0.24159   0.52917   0.00000  Uiso   1.00
H660   H     0.81607   0.11220   0.90204   0.00000  Uiso   1.00
I661   I     0.90493   0.01705   0.69509   0.00000  Uiso   1.00
I662   I     0.86267   0.04549   0.91633   0.00000  Uiso   1.00
I663   I     0.77279   0.27776   0.90947   0.00000  Uiso   1.00
N664   N     0.74278   0.31599   0.81235   0.00000  Uiso   1.00
N665   N     0.78914   0.21809   0.61038   0.00000  Uiso   1.00
N666   N     0.80150   0.32738   0.51478   0.00000  Uiso   1.00
N667   N     0.71094   0.23505   0.68888   0.00000  Uiso   1.00
O668   O     0.83333   0.16667   0.75000   0.00000  Uiso   1.00
O669   O     0.82118   0.12637   0.65459   0.00000  Uiso   1.00
O670   O     0.79607   0.20391   0.84968   0.00000  Uiso   1.00
O671   O     0.87491   0.17759   0.64606   0.00000  Uiso   1.00
O672   O     0.84118   0.15880   0.84968   0.00000  Uiso   1.00
O673   O     0.84597   0.08019   0.78214   0.00000  Uiso   1.00
O674   O     0.81298   0.26085   0.77014   0.00000  Uiso   1.00
O675   O     0.74078   0.13291   0.73413   0.00000  Uiso   1.00
O676   O     0.93360   0.19272   0.71361   0.00000  Uiso   1.00
O677   O     0.73738   0.18878   0.78213   0.00000  Uiso   1.00
O678   O     0.92158   0.15226   0.77014   0.00000  Uiso   1.00
O679   O     0.80426   0.06944   0.73413   0.00000  Uiso   1.00
O680   O     0.87012   0.25620   0.71361   0.00000  Uiso   1.00
Zn681  Zn    0.86005   0.13994   0.78734   0.00000  Uiso   1.00
Zn682  Zn    0.80046   0.12458   0.71876   0.00000  Uiso   1.00
Zn683  Zn    0.87723   0.19775   0.70657   0.00000  Uiso   1.00
Zn684  Zn    0.79560   0.20439   0.78734   0.00000  Uiso   1.00
C685   C     0.05267   0.49266   0.76027   0.00000  Uiso   1.00
C686   C     0.17244   0.49932   0.56009   0.00000  Uiso   1.00
C687   C     0.20903   0.43944   0.55849   0.00000  Uiso   1.00
C688   C     0.28070   0.50775   0.74036   0.00000  Uiso   1.00
C689   C     0.14365   0.52951   0.91981   0.00000  Uiso   1.00
C690   C     0.32651   0.51320   0.73822   0.00000  Uiso   1.00
C691   C     0.00759   0.49033   0.76265   0.00000  Uiso   1.00
C692   C     0.18088   0.65605   0.73857   0.00000  Uiso   1.00
C693   C     0.15038   0.34574   0.76342   0.00000  Uiso   1.00
C694   C     0.15600   0.38945   0.75995   0.00000  Uiso   1.00
C695   C     0.17646   0.61124   0.74045   0.00000  Uiso   1.00
C696   C     0.14463   0.58522   0.97960   0.00000  Uiso   1.00
C697   C     0.18552   0.48099   0.62950   0.00000  Uiso   1.00
C698   C     0.14819   0.51814   0.87113   0.00000  Uiso   1.00
C699   C     0.20696   0.42764   0.51471   0.00000  Uiso   1.00
C700   C     0.19076   0.47431   0.58149   0.00000  Uiso   1.00
C701   C     0.13421   0.57001   0.93920   0.00000  Uiso   1.00
C702   C     0.10913   0.66243   0.79065   0.00000  Uiso   1.00
C703   C     0.14462   0.52837   0.58800   0.00000  Uiso   1.00
C704   C     0.13922   0.62717   0.99900   0.00000  Uiso   1.00
C705   C     0.02166   0.54381   0.71068   0.00000  Uiso   1.00
C706   C     0.16165   0.56024   0.50159   0.00000  Uiso   1.00
C707   C     0.16319   0.51772   0.98790   0.00000  Uiso   1.00
C708   C     0.15532   0.50244   0.94589   0.00000  Uiso   1.00
C709   C     0.17510   0.49055   0.51366   0.00000  Uiso   1.00
C710   C     0.18840   0.45180   0.99255   0.00000  Uiso   1.00
C711   C     0.18050   0.43707   0.95088   0.00000  Uiso   1.00
C712   C     0.16028   0.46060   0.93057   0.00000  Uiso   1.00
H713   H     0.22242   0.41979   0.57544   0.00000  Uiso   1.00
H714   H     0.31959   0.46682   0.78243   0.00000  Uiso   1.00
H715   H     0.21894   0.39890   0.99906   0.00000  Uiso   1.00
H716   H     0.17437   0.57492   0.52917   0.00000  Uiso   1.00
H717   H     0.14940   0.44554   0.90204   0.00000  Uiso   1.00
I718   I     0.23826   0.35038   0.69509   0.00000  Uiso   1.00
I719   I     0.19601   0.37882   0.91633   0.00000  Uiso   1.00
I720   I     0.10612   0.61109   0.90947   0.00000  Uiso   1.00
N721   N     0.07611   0.64932   0.81235   0.00000  Uiso   1.00
N722   N     0.12247   0.55143   0.61038   0.00000  Uiso   1.00
N723   N     0.13484   0.66071   0.51478   0.00000  Uiso   1.00
N724   N     0.04428   0.56838   0.68888   0.00000  Uiso   1.00
O725   O     0.16667   0.50000   0.75000   0.00000  Uiso   1.00
O726   O     0.15451   0.45970   0.65459   0.00000  Uiso   1.00
O727   O     0.12940   0.53724   0.84968   0.00000  Uiso   1.00
O728   O     0.20824   0.51092   0.64606   0.00000  Uiso   1.00
O729   O     0.17451   0.49213   0.84968   0.00000  Uiso   1.00
O730   O     0.17930   0.41352   0.78214   0.00000  Uiso   1.00
O731   O     0.14632   0.59418   0.77014   0.00000  Uiso   1.00
O732   O     0.07412   0.46625   0.73413   0.00000  Uiso   1.00
O733   O     0.26693   0.52605   0.71361   0.00000  Uiso   1.00
O734   O     0.07071   0.52211   0.78213   0.00000  Uiso   1.00
O735   O     0.25491   0.48559   0.77014   0.00000  Uiso   1.00
O736   O     0.13760   0.40277   0.73413   0.00000  Uiso   1.00
O737   O     0.20345   0.58953   0.71361   0.00000  Uiso   1.00
Zn738  Zn    0.19338   0.47327   0.78734   0.00000  Uiso   1.00
Zn739  Zn    0.13379   0.45791   0.71876   0.00000  Uiso   1.00
Zn740  Zn    0.21056   0.53109   0.70657   0.00000  Uiso   1.00
Zn741  Zn    0.12893   0.53773   0.78734   0.00000  Uiso   1.00
C742   C     0.38600   0.49266   0.76027   0.00000  Uiso   1.00
C743   C     0.50577   0.49932   0.56009   0.00000  Uiso   1.00
C744   C     0.54236   0.43944   0.55849   0.00000  Uiso   1.00
C745   C     0.61404   0.50775   0.74036   0.00000  Uiso   1.00
C746   C     0.47698   0.52951   0.91981   0.00000  Uiso   1.00
C747   C     0.65984   0.51320   0.73822   0.00000  Uiso   1.00
C748   C     0.34092   0.49033   0.76265   0.00000  Uiso   1.00
C749   C     0.51421   0.65605   0.73857   0.00000  Uiso   1.00
C750   C     0.48371   0.34574   0.76342   0.00000  Uiso   1.00
C751   C     0.48934   0.38945   0.75995   0.00000  Uiso   1.00
C752   C     0.50979   0.61124   0.74045   0.00000  Uiso   1.00
C753   C     0.47796   0.58522   0.97960   0.00000  Uiso   1.00
C754   C     0.51885   0.48099   0.62950   0.00000  Uiso   1.00
C755   C     0.48153   0.51814   0.87113   0.00000  Uiso   1.00
C756   C     0.54030   0.42764   0.51471   0.00000  Uiso   1.00
C757   C     0.52409   0.47431   0.58149   0.00000  Uiso   1.00
C758   C     0.46754   0.57001   0.93920   0.00000  Uiso   1.00
C759   C     0.44246   0.66243   0.79065   0.00000  Uiso   1.00
C760   C     0.47795   0.52837   0.58800   0.00000  Uiso   1.00
C761   C     0.47255   0.62717   0.99900   0.00000  Uiso   1.00
C762   C     0.35499   0.54381   0.71068   0.00000  Uiso   1.00
C763   C     0.49499   0.56024   0.50159   0.00000  Uiso   1.00
C764   C     0.49652   0.51772   0.98790   0.00000  Uiso   1.00
C765   C     0.48865   0.50244   0.94589   0.00000  Uiso   1.00
C766   C     0.50843   0.49055   0.51366   0.00000  Uiso   1.00
C767   C     0.52173   0.45180   0.99255   0.00000  Uiso   1.00
C768   C     0.51383   0.43707   0.95088   0.00000  Uiso   1.00
C769   C     0.49362   0.46060   0.93057   0.00000  Uiso   1.00
H770   H     0.55575   0.41979   0.57544   0.00000  Uiso   1.00
H771   H     0.65292   0.46682   0.78243   0.00000  Uiso   1.00
H772   H     0.55227   0.39890   0.99906   0.00000  Uiso   1.00
H773   H     0.50770   0.57492   0.52917   0.00000  Uiso   1.00
H774   H     0.48273   0.44554   0.90204   0.00000  Uiso   1.00
I775   I     0.57159   0.35038   0.69509   0.00000  Uiso   1.00
I776   I     0.52934   0.37882   0.91633   0.00000  Uiso   1.00
I777   I     0.43946   0.61109   0.90947   0.00000  Uiso   1.00
N778   N     0.40945   0.64932   0.81235   0.00000  Uiso   1.00
N779   N     0.45581   0.55143   0.61038   0.00000  Uiso   1.00
N780   N     0.46817   0.66071   0.51478   0.00000  Uiso   1.00
N781   N     0.37761   0.56838   0.68888   0.00000  Uiso   1.00
O782   O     0.50000   0.50000   0.75000   0.00000  Uiso   1.00
O783   O     0.48784   0.45970   0.65459   0.00000  Uiso   1.00
O784   O     0.46274   0.53724   0.84968   0.00000  Uiso   1.00
O785   O     0.54157   0.51092   0.64606   0.00000  Uiso   1.00
O786   O     0.50785   0.49213   0.84968   0.00000  Uiso   1.00
O787   O     0.51264   0.41352   0.78214   0.00000  Uiso   1.00
O788   O     0.47965   0.59418   0.77014   0.00000  Uiso   1.00
O789   O     0.40745   0.46625   0.73413   0.00000  Uiso   1.00
O790   O     0.60026   0.52605   0.71361   0.00000  Uiso   1.00
O791   O     0.40405   0.52211   0.78213   0.00000  Uiso   1.00
O792   O     0.58824   0.48559   0.77014   0.00000  Uiso   1.00
O793   O     0.47093   0.40277   0.73413   0.00000  Uiso   1.00
O794   O     0.53678   0.58953   0.71361   0.00000  Uiso   1.00
Zn795  Zn    0.52672   0.47327   0.78734   0.00000  Uiso   1.00
Zn796  Zn    0.46713   0.45791   0.71876   0.00000  Uiso   1.00
Zn797  Zn    0.54389   0.53109   0.70657   0.00000  Uiso   1.00
Zn798  Zn    0.46226   0.53773   0.78734   0.00000  Uiso   1.00
C799   C     0.71934   0.49266   0.76027   0.00000  Uiso   1.00
C800   C     0.83910   0.49932   0.56009   0.00000  Uiso   1.00
C801   C     0.87570   0.43944   0.55849   0.00000  Uiso   1.00
C802   C     0.94737   0.50775   0.74036   0.00000  Uiso   1.00
C803   C     0.81031   0.52951   0.91981   0.00000  Uiso   1.00
C804   C     0.99317   0.51320   0.73822   0.00000  Uiso   1.00
C805   C     0.67426   0.49033   0.76265   0.00000  Uiso   1.00
C806   C     0.84754   0.65605   0.73857   0.00000  Uiso   1.00
C807   C     0.81705   0.34574   0.76342   0.00000  Uiso   1.00
C808   C     0.82267   0.38945   0.75995   0.00000  Uiso   1.00
C809   C     0.84313   0.61124   0.74045   0.00000  Uiso   1.00
C810   C     0.81130   0.58522   0.97960   0.00000  Uiso   1.00
C811   C     0.85218   0.48099   0.62950   0.00000  Uiso   1.00
C812   C     0.81486   0.51814   0.87113   0.00000  Uiso   1.00
C813   C     0.87363   0.42764   0.51471   0.00000  Uiso   1.00
C814   C     0.85742   0.47431   0.58149   0.00000  Uiso   1.00
C815   C     0.80088   0.57001   0.93920   0.00000  Uiso   1.00
C816   C     0.77579   0.66243   0.79065   0.00000  Uiso   1.00
C817   C     0.81128   0.52837   0.58800   0.00000  Uiso   1.00
C818   C     0.80588   0.62717   0.99900   0.00000  Uiso   1.00
C819   C     0.68833   0.54381   0.71068   0.00000  Uiso   1.00
C820   C     0.82832   0.56024   0.50159   0.00000  Uiso   1.00
C821   C     0.82986   0.51772   0.98790   0.00000  Uiso   1.00
C822   C     0.82198   0.50244   0.94589   0.00000  Uiso   1.00
C823   C     0.84177   0.49055   0.51366   0.00000  Uiso   1.00
C824   C     0.85507   0.45180   0.99255   0.00000  Uiso   1.00
C825   C     0.84716   0.43707   0.95088   0.00000  Uiso   1.00
C826   C     0.82695   0.46060   0.93057   0.00000  Uiso   1.00
H827   H     0.88909   0.41979   0.57544   0.00000  Uiso   1.00
H828   H     0.98626   0.46682   0.78243   0.00000  Uiso   1.00
H829   H     0.88560   0.39890   0.99906   0.00000  Uiso   1.00
H830   H     0.84104   0.57492   0.52917   0.00000  Uiso   1.00
H831   H     0.81607   0.44554   0.90204   0.00000  Uiso   1.00
I832   I     0.90493   0.35038   0.69509   0.00000  Uiso   1.00
I833   I     0.86267   0.37882   0.91633   0.00000  Uiso   1.00
I834   I     0.77279   0.61109   0.90947   0.00000  Uiso   1.00
N835   N     0.74278   0.64932   0.81235   0.00000  Uiso   1.00
N836   N     0.78914   0.55143   0.61038   0.00000  Uiso   1.00
N837   N     0.80150   0.66071   0.51478   0.00000  Uiso   1.00
N838   N     0.71094   0.56838   0.68888   0.00000  Uiso   1.00
O839   O     0.83333   0.50000   0.75000   0.00000  Uiso   1.00
O840   O     0.82118   0.45970   0.65459   0.00000  Uiso   1.00
O841   O     0.79607   0.53724   0.84968   0.00000  Uiso   1.00
O842   O     0.87491   0.51092   0.64606   0.00000  Uiso   1.00
O843   O     0.84118   0.49213   0.84968   0.00000  Uiso   1.00
O844   O     0.84597   0.41352   0.78214   0.00000  Uiso   1.00
O845   O     0.81298   0.59418   0.77014   0.00000  Uiso   1.00
O846   O     0.74078   0.46625   0.73413   0.00000  Uiso   1.00
O847   O     0.93360   0.52605   0.71361   0.00000  Uiso   1.00
O848   O     0.73738   0.52211   0.78213   0.00000  Uiso   1.00
O849   O     0.92158   0.48559   0.77014   0.00000  Uiso   1.00
O850   O     0.80426   0.40277   0.73413   0.00000  Uiso   1.00
O851   O     0.87012   0.58953   0.71361   0.00000  Uiso   1.00
Zn852  Zn    0.86005   0.47327   0.78734   0.00000  Uiso   1.00
Zn853  Zn    0.80046   0.45791   0.71876   0.00000  Uiso   1.00
Zn854  Zn    0.87723   0.53109   0.70657   0.00000  Uiso   1.00
Zn855  Zn    0.79560   0.53773   0.78734   0.00000  Uiso   1.00
C856   C     0.05267   0.82599   0.76027   0.00000  Uiso   1.00
C857   C     0.17244   0.83266   0.56009   0.00000  Uiso   1.00
C858   C     0.20903   0.77277   0.55849   0.00000  Uiso   1.00
C859   C     0.28070   0.84108   0.74036   0.00000  Uiso   1.00
C860   C     0.14365   0.86284   0.91981   0.00000  Uiso   1.00
C861   C     0.32651   0.84654   0.73822   0.00000  Uiso   1.00
C862   C     0.00759   0.82367   0.76265   0.00000  Uiso   1.00
C863   C     0.18088   0.98939   0.73857   0.00000  Uiso   1.00
C864   C     0.15038   0.67907   0.76342   0.00000  Uiso   1.00
C865   C     0.15600   0.72279   0.75995   0.00000  Uiso   1.00
C866   C     0.17646   0.94457   0.74045   0.00000  Uiso   1.00
C867   C     0.14463   0.91856   0.97960   0.00000  Uiso   1.00
C868   C     0.18552   0.81433   0.62950   0.00000  Uiso   1.00
C869   C     0.14819   0.85148   0.87113   0.00000  Uiso   1.00
C870   C     0.20696   0.76097   0.51471   0.00000  Uiso   1.00
C871   C     0.19076   0.80764   0.58149   0.00000  Uiso   1.00
C872   C     0.13421   0.90334   0.93920   0.00000  Uiso   1.00
C873   C     0.10913   0.99577   0.79065   0.00000  Uiso   1.00
C874   C     0.14462   0.86171   0.58800   0.00000  Uiso   1.00
C875   C     0.13922   0.96051   0.99900   0.00000  Uiso   1.00
C876   C     0.02166   0.87714   0.71068   0.00000  Uiso   1.00
C877   C     0.16165   0.89357   0.50159   0.00000  Uiso   1.00
C878   C     0.16319   0.85105   0.98790   0.00000  Uiso   1.00
C879   C     0.15532   0.83578   0.94589   0.00000  Uiso   1.00
C880   C     0.17510   0.82388   0.51366   0.00000  Uiso   1.00
C881   C     0.18840   0.78514   0.99255   0.00000  Uiso   1.00
C882   C     0.18050   0.77040   0.95088   0.00000  Uiso   1.00
C883   C     0.16028   0.79393   0.93057   0.00000  Uiso   1.00
H884   H     0.22242   0.75312   0.57544   0.00000  Uiso   1.00
H885   H     0.31959   0.80015   0.78243   0.00000  Uiso   1.00
H886   H     0.21894   0.73223   0.99906   0.00000  Uiso   1.00
H887   H     0.17437   0.90826   0.52917   0.00000  Uiso   1.00
H888   H     0.14940   0.77887   0.90204   0.00000  Uiso   1.00
I889   I     0.23826   0.68372   0.69509   0.00000  Uiso   1.00
I890   I     0.19601   0.71216   0.91633   0.00000  Uiso   1.00
I891   I     0.10612   0.94442   0.90947   0.00000  Uiso   1.00
N892   N     0.07611   0.98265   0.81235   0.00000  Uiso   1.00
N893   N     0.12247   0.88476   0.61038   0.00000  Uiso   1.00
N894   N     0.13484   0.99405   0.51478   0.00000  Uiso   1.00
N895   N     0.04428   0.90172   0.68888   0.00000  Uiso   1.00
O896   O     0.16667   0.83333   0.75000   0.00000  Uiso   1.00
O897   O     0.15451   0.79304   0.65459   0.00000  Uiso   1.00
O898   O     0.12940   0.87058   0.84968   0.00000  Uiso   1.00
O899   O     0.20824   0.84425   0.64606   0.00000  Uiso   1.00
O900   O     0.17451   0.82546   0.84968   0.00000  Uiso   1.00
O901   O     0.17930   0.74686   0.78214   0.00000  Uiso   1.00
O902   O     0.14632   0.92751   0.77014   0.00000  Uiso   1.00
O903   O     0.07412   0.79958   0.73413   0.00000  Uiso   1.00
O904   O     0.26693   0.85939   0.71361   0.00000  Uiso   1.00
O905   O     0.07071   0.85544   0.78213   0.00000  Uiso   1.00
O906   O     0.25491   0.81892   0.77014   0.00000  Uiso   1.00
O907   O     0.13760   0.73610   0.73413   0.00000  Uiso   1.00
O908   O     0.20345   0.92286   0.71361   0.00000  Uiso   1.00
Zn909  Zn    0.19338   0.80661   0.78734   0.00000  Uiso   1.00
Zn910  Zn    0.13379   0.79124   0.71876   0.00000  Uiso   1.00
Zn911  Zn    0.21056   0.86442   0.70657   0.00000  Uiso   1.00
Zn912  Zn    0.12893   0.87106   0.78734   0.00000  Uiso   1.00
C913   C     0.38600   0.82599   0.76027   0.00000  Uiso   1.00
C914   C     0.50577   0.83266   0.56009   0.00000  Uiso   1.00
C915   C     0.54236   0.77277   0.55849   0.00000  Uiso   1.00
C916   C     0.61404   0.84108   0.74036   0.00000  Uiso   1.00
C917   C     0.47698   0.86284   0.91981   0.00000  Uiso   1.00
C918   C     0.65984   0.84654   0.73822   0.00000  Uiso   1.00
C919   C     0.34092   0.82367   0.76265   0.00000  Uiso   1.00
C920   C     0.51421   0.98939   0.73857   0.00000  Uiso   1.00
C921   C     0.48371   0.67907   0.76342   0.00000  Uiso   1.00
C922   C     0.48934   0.72279   0.75995   0.00000  Uiso   1.00
C923   C     0.50979   0.94457   0.74045   0.00000  Uiso   1.00
C924   C     0.47796   0.91856   0.97960   0.00000  Uiso   1.00
C925   C     0.51885   0.81433   0.62950   0.00000  Uiso   1.00
C926   C     0.48153   0.85148   0.87113   0.00000  Uiso   1.00
C927   C     0.54030   0.76097   0.51471   0.00000  Uiso   1.00
C928   C     0.52409   0.80764   0.58149   0.00000  Uiso   1.00
C929   C     0.46754   0.90334   0.93920   0.00000  Uiso   1.00
C930   C     0.44246   0.99577   0.79065   0.00000  Uiso   1.00
C931   C     0.47795   0.86171   0.58800   0.00000  Uiso   1.00
C932   C     0.47255   0.96051   0.99900   0.00000  Uiso   1.00
C933   C     0.35499   0.87714   0.71068   0.00000  Uiso   1.00
C934   C     0.49499   0.89357   0.50159   0.00000  Uiso   1.00
C935   C     0.49652   0.85105   0.98790   0.00000  Uiso   1.00
C936   C     0.48865   0.83578   0.94589   0.00000  Uiso   1.00
C937   C     0.50843   0.82388   0.51366   0.00000  Uiso   1.00
C938   C     0.52173   0.78514   0.99255   0.00000  Uiso   1.00
C939   C     0.51383   0.77040   0.95088   0.00000  Uiso   1.00
C940   C     0.49362   0.79393   0.93057   0.00000  Uiso   1.00
H941   H     0.55575   0.75312   0.57544   0.00000  Uiso   1.00
H942   H     0.65292   0.80015   0.78243   0.00000  Uiso   1.00
H943   H     0.55227   0.73223   0.99906   0.00000  Uiso   1.00
H944   H     0.50770   0.90826   0.52917   0.00000  Uiso   1.00
H945   H     0.48273   0.77887   0.90204   0.00000  Uiso   1.00
I946   I     0.57159   0.68372   0.69509   0.00000  Uiso   1.00
I947   I     0.52934   0.71216   0.91633   0.00000  Uiso   1.00
I948   I     0.43946   0.94442   0.90947   0.00000  Uiso   1.00
N949   N     0.40945   0.98265   0.81235   0.00000  Uiso   1.00
N950   N     0.45581   0.88476   0.61038   0.00000  Uiso   1.00
N951   N     0.46817   0.99405   0.51478   0.00000  Uiso   1.00
N952   N     0.37761   0.90172   0.68888   0.00000  Uiso   1.00
O953   O     0.50000   0.83333   0.75000   0.00000  Uiso   1.00
O954   O     0.48784   0.79304   0.65459   0.00000  Uiso   1.00
O955   O     0.46274   0.87058   0.84968   0.00000  Uiso   1.00
O956   O     0.54157   0.84425   0.64606   0.00000  Uiso   1.00
O957   O     0.50785   0.82546   0.84968   0.00000  Uiso   1.00
O958   O     0.51264   0.74686   0.78214   0.00000  Uiso   1.00
O959   O     0.47965   0.92751   0.77014   0.00000  Uiso   1.00
O960   O     0.40745   0.79958   0.73413   0.00000  Uiso   1.00
O961   O     0.60026   0.85939   0.71361   0.00000  Uiso   1.00
O962   O     0.40405   0.85544   0.78213   0.00000  Uiso   1.00
O963   O     0.58824   0.81892   0.77014   0.00000  Uiso   1.00
O964   O     0.47093   0.73610   0.73413   0.00000  Uiso   1.00
O965   O     0.53678   0.92286   0.71361   0.00000  Uiso   1.00
Zn966  Zn    0.52672   0.80661   0.78734   0.00000  Uiso   1.00
Zn967  Zn    0.46713   0.79124   0.71876   0.00000  Uiso   1.00
Zn968  Zn    0.54389   0.86442   0.70657   0.00000  Uiso   1.00
Zn969  Zn    0.46226   0.87106   0.78734   0.00000  Uiso   1.00
C970   C     0.71934   0.82599   0.76027   0.00000  Uiso   1.00
C971   C     0.83910   0.83266   0.56009   0.00000  Uiso   1.00
C972   C     0.87570   0.77277   0.55849   0.00000  Uiso   1.00
C973   C     0.94737   0.84108   0.74036   0.00000  Uiso   1.00
C974   C     0.81031   0.86284   0.91981   0.00000  Uiso   1.00
C975   C     0.99317   0.84654   0.73822   0.00000  Uiso   1.00
C976   C     0.67426   0.82367   0.76265   0.00000  Uiso   1.00
C977   C     0.84754   0.98939   0.73857   0.00000  Uiso   1.00
C978   C     0.81705   0.67907   0.76342   0.00000  Uiso   1.00
C979   C     0.82267   0.72279   0.75995   0.00000  Uiso   1.00
C980   C     0.84313   0.94457   0.74045   0.00000  Uiso   1.00
C981   C     0.81130   0.91856   0.97960   0.00000  Uiso   1.00
C982   C     0.85218   0.81433   0.62950   0.00000  Uiso   1.00
C983   C     0.81486   0.85148   0.87113   0.00000  Uiso   1.00
C984   C     0.87363   0.76097   0.51471   0.00000  Uiso   1.00
C985   C     0.85742   0.80764   0.58149   0.00000  Uiso   1.00
C986   C     0.80088   0.90334   0.93920   0.00000  Uiso   1.00
C987   C     0.77579   0.99577   0.79065   0.00000  Uiso   1.00
C988   C     0.81128   0.86171   0.58800   0.00000  Uiso   1.00
C989   C     0.80588   0.96051   0.99900   0.00000  Uiso   1.00
C990   C     0.68833   0.87714   0.71068   0.00000  Uiso   1.00
C991   C     0.82832   0.89357   0.50159   0.00000  Uiso   1.00
C992   C     0.82986   0.85105   0.98790   0.00000  Uiso   1.00
C993   C     0.82198   0.83578   0.94589   0.00000  Uiso   1.00
C994   C     0.84177   0.82388   0.51366   0.00000  Uiso   1.00
C995   C     0.85507   0.78514   0.99255   0.00000  Uiso   1.00
C996   C     0.84716   0.77040   0.95088   0.00000  Uiso   1.00
C997   C     0.82695   0.79393   0.93057   0.00000  Uiso   1.00
H998   H     0.88909   0.75312   0.57544   0.00000  Uiso   1.00
H999   H     0.98626   0.80015   0.78243   0.00000  Uiso   1.00
H1000  H     0.88560   0.73223   0.99906   0.00000  Uiso   1.00
H1001  H     0.84104   0.90826   0.52917   0.00000  Uiso   1.00
H1002  H     0.81607   0.77887   0.90204   0.00000  Uiso   1.00
I1003  I     0.90493   0.68372   0.69509   0.00000  Uiso   1.00
I1004  I     0.86267   0.71216   0.91633   0.00000  Uiso   1.00
I1005  I     0.77279   0.94442   0.90947   0.00000  Uiso   1.00
N1006  N     0.74278   0.98265   0.81235   0.00000  Uiso   1.00
N1007  N     0.78914   0.88476   0.61038   0.00000  Uiso   1.00
N1008  N     0.80150   0.99405   0.51478   0.00000  Uiso   1.00
N1009  N     0.71094   0.90172   0.68888   0.00000  Uiso   1.00
O1010  O     0.83333   0.83333   0.75000   0.00000  Uiso   1.00
O1011  O     0.82118   0.79304   0.65459   0.00000  Uiso   1.00
O1012  O     0.79607   0.87058   0.84968   0.00000  Uiso   1.00
O1013  O     0.87491   0.84425   0.64606   0.00000  Uiso   1.00
O1014  O     0.84118   0.82546   0.84968   0.00000  Uiso   1.00
O1015  O     0.84597   0.74686   0.78214   0.00000  Uiso   1.00
O1016  O     0.81298   0.92751   0.77014   0.00000  Uiso   1.00
O1017  O     0.74078   0.79958   0.73413   0.00000  Uiso   1.00
O1018  O     0.93360   0.85939   0.71361   0.00000  Uiso   1.00
O1019  O     0.73738   0.85544   0.78213   0.00000  Uiso   1.00
O1020  O     0.92158   0.81892   0.77014   0.00000  Uiso   1.00
O1021  O     0.80426   0.73610   0.73413   0.00000  Uiso   1.00
O1022  O     0.87012   0.92286   0.71361   0.00000  Uiso   1.00
Zn1023 Zn    0.86005   0.80661   0.78734   0.00000  Uiso   1.00
Zn1024 Zn    0.80046   0.79124   0.71876   0.00000  Uiso   1.00
Zn1025 Zn    0.87723   0.86442   0.70657   0.00000  Uiso   1.00
Zn1026 Zn    0.79560   0.87106   0.78734   0.00000  Uiso   1.00
loop_
_geom_bond_atom_site_label_1
_geom_bond_atom_site_label_2
_geom_bond_distance
_geom_bond_site_symmetry_2
_ccdc_geom_bond_type
C1     O48     1.265   .     A
C1     C7      1.440   .     S
C1     O50     1.270   .     A
C2     C16     1.402   .     A
C2     C25     1.421   .     A
C2     C19     1.453   .     S
C3     C15     1.387   .     A
C3     H29     1.084   .     S
C3     C16     1.393   .     A
C4     O49     1.289   .     A
C4     O51     1.287   .     A
C4     C6      1.459   .     S
C5     C14     1.489   .     S
C5     C24     1.427   .     A
C5     C17     1.427   .     A
C6     C64     1.341   .     S
C6     C78     1.451   .     S
C7     C120    1.341   1_455 S
C7     H144    1.086   1_455 S
C8     C11     1.457   .     S
C8     C180    1.350   .     S
C8     I205    2.141   .     S
C9     C10     1.427   .     S
C9     C350    1.350   1_545 S
C9     C360    1.450   1_545 S
C10    O46     1.278   .     A
C10    O52     1.273   .     A
C11    O47     1.268   .     A
C11    O53     1.274   .     A
C12    C17     1.402   .     A
C12    C20     1.444   .     S
C12    C535    1.387   .     S
C13    O42     1.271   .     A
C13    C16     1.452   .     S
C13    O44     1.276   .     A
C14    O43     1.284   .     A
C14    O45     1.295   .     A
C15    C539    1.404   1_554 S
C15    H544    1.081   1_554 S
C17    I36     2.153   .     S
C18    N37     1.158   .     T
C18    C180    1.450   .     S
C19    N38     1.157   .     T
C20    N552    1.157   .     S
C21    N40     1.157   .     T
C21    C120    1.451   1_455 S
C22    H32     1.080   .     S
C22    C525    1.387   1_554 S
C22    C536    1.406   1_554 S
C23    C24     1.416   .     A
C23    C535    1.406   .     S
C23    C538    1.426   .     S
C24    C28     1.410   .     A
C25    C536    1.426   1_554 S
C25    C539    1.425   1_554 S
C26    C27     1.403   .     A
C26    C538    1.425   .     S
C26    C528    1.404   .     S
C27    I35     2.128   .     S
C27    C28     1.387   .     A
C28    H33     1.079   .     S
H30    C64     1.086   .     S
H31    C528    1.081   .     S
I34    C350    2.141   1_545 S
N39    C533    1.157   1_554 S
O41    Zn56    1.943   .     S
O41    Zn57    1.929   .     S
O41    Zn54    1.975   .     S
O41    Zn55    1.939   .     S
O42    Zn55    1.937   .     S
O43    Zn57    1.949   .     S
O44    Zn56    1.935   .     S
O45    Zn54    1.926   .     S
O46    Zn54    1.934   .     S
O47    Zn57    1.945   .     S
O48    Zn55    1.926   .     S
O49    Zn56    1.938   .     S
O50    Zn57    1.930   .     S
O51    Zn54    1.922   .     S
O52    Zn55    1.952   .     S
O53    Zn56    1.938   .     S
C58    O105    1.265   .     A
C58    C64     1.440   .     S
C58    O107    1.270   .     A
C59    C73     1.402   .     A
C59    C82     1.421   .     A
C59    C76     1.453   .     S
C60    C72     1.387   .     A
C60    H86     1.084   .     S
C60    C73     1.393   .     A
C61    O106    1.289   .     A
C61    O108    1.287   .     A
C61    C63     1.459   .     S
C62    C71     1.489   .     S
C62    C81     1.427   .     A
C62    C74     1.427   .     A
C63    C121    1.341   .     S
C63    C135    1.451   .     S
C65    C68     1.457   .     S
C65    C237    1.350   .     S
C65    I262    2.141   .     S
C66    C67     1.427   .     S
C66    C407    1.350   1_545 S
C66    C417    1.450   1_545 S
C67    O103    1.278   .     A
C67    O109    1.273   .     A
C68    O104    1.268   .     A
C68    O110    1.274   .     A
C69    C74     1.402   .     A
C69    C77     1.444   .     S
C69    C592    1.387   .     S
C70    O99     1.271   .     A
C70    C73     1.452   .     S
C70    O101    1.276   .     A
C71    O100    1.284   .     A
C71    O102    1.295   .     A
C72    C596    1.404   1_554 S
C72    H601    1.081   1_554 S
C74    I93     2.153   .     S
C75    N94     1.158   .     T
C75    C237    1.450   .     S
C76    N95     1.157   .     T
C77    N609    1.157   .     S
C78    N97     1.157   .     T
C79    H89     1.080   .     S
C79    C582    1.387   1_554 S
C79    C593    1.406   1_554 S
C80    C81     1.416   .     A
C80    C592    1.406   .     S
C80    C595    1.426   .     S
C81    C85     1.410   .     A
C82    C593    1.426   1_554 S
C82    C596    1.425   1_554 S
C83    C84     1.403   .     A
C83    C595    1.425   .     S
C83    C585    1.404   .     S
C84    I92     2.128   .     S
C84    C85     1.387   .     A
C85    H90     1.079   .     S
H87    C121    1.086   .     S
H88    C585    1.081   .     S
I91    C407    2.141   1_545 S
N96    C590    1.157   1_554 S
O98    Zn113   1.943   .     S
O98    Zn114   1.929   .     S
O98    Zn111   1.975   .     S
O98    Zn112   1.939   .     S
O99    Zn112   1.937   .     S
O100   Zn114   1.949   .     S
O101   Zn113   1.935   .     S
O102   Zn111   1.926   .     S
O103   Zn111   1.934   .     S
O104   Zn114   1.945   .     S
O105   Zn112   1.926   .     S
O106   Zn113   1.938   .     S
O107   Zn114   1.930   .     S
O108   Zn111   1.922   .     S
O109   Zn112   1.952   .     S
O110   Zn113   1.938   .     S
C115   O162    1.265   .     A
C115   C121    1.440   .     S
C115   O164    1.270   .     A
C116   C130    1.402   .     A
C116   C139    1.421   .     A
C116   C133    1.453   .     S
C117   C129    1.387   .     A
C117   H143    1.084   .     S
C117   C130    1.393   .     A
C118   O163    1.289   .     A
C118   O165    1.287   .     A
C118   C120    1.459   .     S
C119   C128    1.489   .     S
C119   C138    1.427   .     A
C119   C131    1.427   .     A
C120   C7      1.341   1_655 S
C120   C21     1.451   1_655 S
C122   C125    1.457   .     S
C122   C294    1.350   .     S
C122   I319    2.141   .     S
C123   C124    1.427   .     S
C123   C464    1.350   1_545 S
C123   C474    1.450   1_545 S
C124   O160    1.278   .     A
C124   O166    1.273   .     A
C125   O161    1.268   .     A
C125   O167    1.274   .     A
C126   C131    1.402   .     A
C126   C134    1.444   .     S
C126   C649    1.387   .     S
C127   O156    1.271   .     A
C127   C130    1.452   .     S
C127   O158    1.276   .     A
C128   O157    1.284   .     A
C128   O159    1.295   .     A
C129   C653    1.404   1_554 S
C129   H658    1.081   1_554 S
C131   I150    2.153   .     S
C132   N151    1.158   .     T
C132   C294    1.450   .     S
C133   N152    1.157   .     T
C134   N666    1.157   .     S
C135   N154    1.157   .     T
C136   H146    1.080   .     S
C136   C639    1.387   1_554 S
C136   C650    1.406   1_554 S
C137   C138    1.416   .     A
C137   C649    1.406   .     S
C137   C652    1.426   .     S
C138   C142    1.410   .     A
C139   C650    1.426   1_554 S
C139   C653    1.425   1_554 S
C140   C141    1.403   .     A
C140   C652    1.425   .     S
C140   C642    1.404   .     S
C141   I149    2.128   .     S
C141   C142    1.387   .     A
C142   H147    1.079   .     S
H144   C7      1.086   1_655 S
H145   C642    1.081   .     S
I148   C464    2.141   1_545 S
N153   C647    1.157   1_554 S
O155   Zn170   1.943   .     S
O155   Zn171   1.929   .     S
O155   Zn168   1.975   .     S
O155   Zn169   1.939   .     S
O156   Zn169   1.937   .     S
O157   Zn171   1.949   .     S
O158   Zn170   1.935   .     S
O159   Zn168   1.926   .     S
O160   Zn168   1.934   .     S
O161   Zn171   1.945   .     S
O162   Zn169   1.926   .     S
O163   Zn170   1.938   .     S
O164   Zn171   1.930   .     S
O165   Zn168   1.922   .     S
O166   Zn169   1.952   .     S
O167   Zn170   1.938   .     S
C172   O219    1.265   .     A
C172   C178    1.440   .     S
C172   O221    1.270   .     A
C173   C187    1.402   .     A
C173   C196    1.421   .     A
C173   C190    1.453   .     S
C174   C186    1.387   .     A
C174   H200    1.084   .     S
C174   C187    1.393   .     A
C175   O220    1.289   .     A
C175   O222    1.287   .     A
C175   C177    1.459   .     S
C176   C185    1.489   .     S
C176   C195    1.427   .     A
C176   C188    1.427   .     A
C177   C235    1.341   .     S
C177   C249    1.451   .     S
C178   C291    1.341   1_455 S
C178   H315    1.086   1_455 S
C179   C182    1.457   .     S
C179   C351    1.350   .     S
C179   I376    2.141   .     S
C180   C181    1.427   .     S
C181   O217    1.278   .     A
C181   O223    1.273   .     A
C182   O218    1.268   .     A
C182   O224    1.274   .     A
C183   C188    1.402   .     A
C183   C191    1.444   .     S
C183   C706    1.387   .     S
C184   O213    1.271   .     A
C184   C187    1.452   .     S
C184   O215    1.276   .     A
C185   O214    1.284   .     A
C185   O216    1.295   .     A
C186   C710    1.404   1_554 S
C186   H715    1.081   1_554 S
C188   I207    2.153   .     S
C189   N208    1.158   .     T
C189   C351    1.450   .     S
C190   N209    1.157   .     T
C191   N723    1.157   .     S
C192   N211    1.157   .     T
C192   C291    1.451   1_455 S
C193   H203    1.080   .     S
C193   C696    1.387   1_554 S
C193   C707    1.406   1_554 S
C194   C195    1.416   .     A
C194   C706    1.406   .     S
C194   C709    1.426   .     S
C195   C199    1.410   .     A
C196   C707    1.426   1_554 S
C196   C710    1.425   1_554 S
C197   C198    1.403   .     A
C197   C709    1.425   .     S
C197   C699    1.404   .     S
C198   I206    2.128   .     S
C198   C199    1.387   .     A
C199   H204    1.079   .     S
H201   C235    1.086   .     S
H202   C699    1.081   .     S
N210   C704    1.157   1_554 S
O212   Zn227   1.943   .     S
O212   Zn228   1.929   .     S
O212   Zn225   1.975   .     S
O212   Zn226   1.939   .     S
O213   Zn226   1.937   .     S
O214   Zn228   1.949   .     S
O215   Zn227   1.935   .     S
O216   Zn225   1.926   .     S
O217   Zn225   1.934   .     S
O218   Zn228   1.945   .     S
O219   Zn226   1.926   .     S
O220   Zn227   1.938   .     S
O221   Zn228   1.930   .     S
O222   Zn225   1.922   .     S
O223   Zn226   1.952   .     S
O224   Zn227   1.938   .     S
C229   O276    1.265   .     A
C229   C235    1.440   .     S
C229   O278    1.270   .     A
C230   C244    1.402   .     A
C230   C253    1.421   .     A
C230   C247    1.453   .     S
C231   C243    1.387   .     A
C231   H257    1.084   .     S
C231   C244    1.393   .     A
C232   O277    1.289   .     A
C232   O279    1.287   .     A
C232   C234    1.459   .     S
C233   C242    1.489   .     S
C233   C252    1.427   .     A
C233   C245    1.427   .     A
C234   C292    1.341   .     S
C234   C306    1.451   .     S
C236   C239    1.457   .     S
C236   C408    1.350   .     S
C236   I433    2.141   .     S
C237   C238    1.427   .     S
C238   O274    1.278   .     A
C238   O280    1.273   .     A
C239   O275    1.268   .     A
C239   O281    1.274   .     A
C240   C245    1.402   .     A
C240   C248    1.444   .     S
C240   C763    1.387   .     S
C241   O270    1.271   .     A
C241   C244    1.452   .     S
C241   O272    1.276   .     A
C242   O271    1.284   .     A
C242   O273    1.295   .     A
C243   C767    1.404   1_554 S
C243   H772    1.081   1_554 S
C245   I264    2.153   .     S
C246   N265    1.158   .     T
C246   C408    1.450   .     S
C247   N266    1.157   .     T
C248   N780    1.157   .     S
C249   N268    1.157   .     T
C250   H260    1.080   .     S
C250   C753    1.387   1_554 S
C250   C764    1.406   1_554 S
C251   C252    1.416   .     A
C251   C763    1.406   .     S
C251   C766    1.426   .     S
C252   C256    1.410   .     A
C253   C764    1.426   1_554 S
C253   C767    1.425   1_554 S
C254   C255    1.403   .     A
C254   C766    1.425   .     S
C254   C756    1.404   .     S
C255   I263    2.128   .     S
C255   C256    1.387   .     A
C256   H261    1.079   .     S
H258   C292    1.086   .     S
H259   C756    1.081   .     S
N267   C761    1.157   1_554 S
O269   Zn284   1.943   .     S
O269   Zn285   1.929   .     S
O269   Zn282   1.975   .     S
O269   Zn283   1.939   .     S
O270   Zn283   1.937   .     S
O271   Zn285   1.949   .     S
O272   Zn284   1.935   .     S
O273   Zn282   1.926   .     S
O274   Zn282   1.934   .     S
O275   Zn285   1.945   .     S
O276   Zn283   1.926   .     S
O277   Zn284   1.938   .     S
O278   Zn285   1.930   .     S
O279   Zn282   1.922   .     S
O280   Zn283   1.952   .     S
O281   Zn284   1.938   .     S
C286   O333    1.265   .     A
C286   C292    1.440   .     S
C286   O335    1.270   .     A
C287   C301    1.402   .     A
C287   C310    1.421   .     A
C287   C304    1.453   .     S
C288   C300    1.387   .     A
C288   H314    1.084   .     S
C288   C301    1.393   .     A
C289   O334    1.289   .     A
C289   O336    1.287   .     A
C289   C291    1.459   .     S
C290   C299    1.489   .     S
C290   C309    1.427   .     A
C290   C302    1.427   .     A
C291   C178    1.341   1_655 S
C291   C192    1.451   1_655 S
C293   C296    1.457   .     S
C293   C465    1.350   .     S
C293   I490    2.141   .     S
C294   C295    1.427   .     S
C295   O331    1.278   .     A
C295   O337    1.273   .     A
C296   O332    1.268   .     A
C296   O338    1.274   .     A
C297   C302    1.402   .     A
C297   C305    1.444   .     S
C297   C820    1.387   .     S
C298   O327    1.271   .     A
C298   C301    1.452   .     S
C298   O329    1.276   .     A
C299   O328    1.284   .     A
C299   O330    1.295   .     A
C300   C824    1.404   1_554 S
C300   H829    1.081   1_554 S
C302   I321    2.153   .     S
C303   N322    1.158   .     T
C303   C465    1.450   .     S
C304   N323    1.157   .     T
C305   N837    1.157   .     S
C306   N325    1.157   .     T
C307   H317    1.080   .     S
C307   C810    1.387   1_554 S
C307   C821    1.406   1_554 S
C308   C309    1.416   .     A
C308   C820    1.406   .     S
C308   C823    1.426   .     S
C309   C313    1.410   .     A
C310   C821    1.426   1_554 S
C310   C824    1.425   1_554 S
C311   C312    1.403   .     A
C311   C823    1.425   .     S
C311   C813    1.404   .     S
C312   I320    2.128   .     S
C312   C313    1.387   .     A
C313   H318    1.079   .     S
H315   C178    1.086   1_655 S
H316   C813    1.081   .     S
N324   C818    1.157   1_554 S
O326   Zn341   1.943   .     S
O326   Zn342   1.929   .     S
O326   Zn339   1.975   .     S
O326   Zn340   1.939   .     S
O327   Zn340   1.937   .     S
O328   Zn342   1.949   .     S
O329   Zn341   1.935   .     S
O330   Zn339   1.926   .     S
O331   Zn339   1.934   .     S
O332   Zn342   1.945   .     S
O333   Zn340   1.926   .     S
O334   Zn341   1.938   .     S
O335   Zn342   1.930   .     S
O336   Zn339   1.922   .     S
O337   Zn340   1.952   .     S
O338   Zn341   1.938   .     S
C343   O390    1.265   .     A
C343   C349    1.440   .     S
C343   O392    1.270   .     A
C344   C358    1.402   .     A
C344   C367    1.421   .     A
C344   C361    1.453   .     S
C345   C357    1.387   .     A
C345   H371    1.084   .     S
C345   C358    1.393   .     A
C346   O391    1.289   .     A
C346   O393    1.287   .     A
C346   C348    1.459   .     S
C347   C356    1.489   .     S
C347   C366    1.427   .     A
C347   C359    1.427   .     A
C348   C406    1.341   .     S
C348   C420    1.451   .     S
C349   C462    1.341   1_455 S
C349   H486    1.086   1_455 S
C350   C353    1.457   .     S
C350   C9      1.350   1_565 S
C350   I34     2.141   1_565 S
C351   C352    1.427   .     S
C352   O388    1.278   .     A
C352   O394    1.273   .     A
C353   O389    1.268   .     A
C353   O395    1.274   .     A
C354   C359    1.402   .     A
C354   C362    1.444   .     S
C354   C877    1.387   .     S
C355   O384    1.271   .     A
C355   C358    1.452   .     S
C355   O386    1.276   .     A
C356   O385    1.284   .     A
C356   O387    1.295   .     A
C357   C881    1.404   1_554 S
C357   H886    1.081   1_554 S
C359   I378    2.153   .     S
C360   N379    1.158   .     T
C360   C9      1.450   1_565 S
C361   N380    1.157   .     T
C362   N894    1.157   .     S
C363   N382    1.157   .     T
C363   C462    1.451   1_455 S
C364   H374    1.080   .     S
C364   C867    1.387   1_554 S
C364   C878    1.406   1_554 S
C365   C366    1.416   .     A
C365   C877    1.406   .     S
C365   C880    1.426   .     S
C366   C370    1.410   .     A
C367   C878    1.426   1_554 S
C367   C881    1.425   1_554 S
C368   C369    1.403   .     A
C368   C880    1.425   .     S
C368   C870    1.404   .     S
C369   I377    2.128   .     S
C369   C370    1.387   .     A
C370   H375    1.079   .     S
H372   C406    1.086   .     S
H373   C870    1.081   .     S
N381   C875    1.157   1_554 S
O383   Zn398   1.943   .     S
O383   Zn399   1.929   .     S
O383   Zn396   1.975   .     S
O383   Zn397   1.939   .     S
O384   Zn397   1.937   .     S
O385   Zn399   1.949   .     S
O386   Zn398   1.935   .     S
O387   Zn396   1.926   .     S
O388   Zn396   1.934   .     S
O389   Zn399   1.945   .     S
O390   Zn397   1.926   .     S
O391   Zn398   1.938   .     S
O392   Zn399   1.930   .     S
O393   Zn396   1.922   .     S
O394   Zn397   1.952   .     S
O395   Zn398   1.938   .     S
C400   O447    1.265   .     A
C400   C406    1.440   .     S
C400   O449    1.270   .     A
C401   C415    1.402   .     A
C401   C424    1.421   .     A
C401   C418    1.453   .     S
C402   C414    1.387   .     A
C402   H428    1.084   .     S
C402   C415    1.393   .     A
C403   O448    1.289   .     A
C403   O450    1.287   .     A
C403   C405    1.459   .     S
C404   C413    1.489   .     S
C404   C423    1.427   .     A
C404   C416    1.427   .     A
C405   C463    1.341   .     S
C405   C477    1.451   .     S
C407   C410    1.457   .     S
C407   C66     1.350   1_565 S
C407   I91     2.141   1_565 S
C408   C409    1.427   .     S
C409   O445    1.278   .     A
C409   O451    1.273   .     A
C410   O446    1.268   .     A
C410   O452    1.274   .     A
C411   C416    1.402   .     A
C411   C419    1.444   .     S
C411   C934    1.387   .     S
C412   O441    1.271   .     A
C412   C415    1.452   .     S
C412   O443    1.276   .     A
C413   O442    1.284   .     A
C413   O444    1.295   .     A
C414   C938    1.404   1_554 S
C414   H943    1.081   1_554 S
C416   I435    2.153   .     S
C417   N436    1.158   .     T
C417   C66     1.450   1_565 S
C418   N437    1.157   .     T
C419   N951    1.157   .     S
C420   N439    1.157   .     T
C421   H431    1.080   .     S
C421   C924    1.387   1_554 S
C421   C935    1.406   1_554 S
C422   C423    1.416   .     A
C422   C934    1.406   .     S
C422   C937    1.426   .     S
C423   C427    1.410   .     A
C424   C935    1.426   1_554 S
C424   C938    1.425   1_554 S
C425   C426    1.403   .     A
C425   C937    1.425   .     S
C425   C927    1.404   .     S
C426   I434    2.128   .     S
C426   C427    1.387   .     A
C427   H432    1.079   .     S
H429   C463    1.086   .     S
H430   C927    1.081   .     S
N438   C932    1.157   1_554 S
O440   Zn455   1.943   .     S
O440   Zn456   1.929   .     S
O440   Zn453   1.975   .     S
O440   Zn454   1.939   .     S
O441   Zn454   1.937   .     S
O442   Zn456   1.949   .     S
O443   Zn455   1.935   .     S
O444   Zn453   1.926   .     S
O445   Zn453   1.934   .     S
O446   Zn456   1.945   .     S
O447   Zn454   1.926   .     S
O448   Zn455   1.938   .     S
O449   Zn456   1.930   .     S
O450   Zn453   1.922   .     S
O451   Zn454   1.952   .     S
O452   Zn455   1.938   .     S
C457   O504    1.265   .     A
C457   C463    1.440   .     S
C457   O506    1.270   .     A
C458   C472    1.402   .     A
C458   C481    1.421   .     A
C458   C475    1.453   .     S
C459   C471    1.387   .     A
C459   H485    1.084   .     S
C459   C472    1.393   .     A
C460   O505    1.289   .     A
C460   O507    1.287   .     A
C460   C462    1.459   .     S
C461   C470    1.489   .     S
C461   C480    1.427   .     A
C461   C473    1.427   .     A
C462   C349    1.341   1_655 S
C462   C363    1.451   1_655 S
C464   C467    1.457   .     S
C464   C123    1.350   1_565 S
C464   I148    2.141   1_565 S
C465   C466    1.427   .     S
C466   O502    1.278   .     A
C466   O508    1.273   .     A
C467   O503    1.268   .     A
C467   O509    1.274   .     A
C468   C473    1.402   .     A
C468   C476    1.444   .     S
C468   C991    1.387   .     S
C469   O498    1.271   .     A
C469   C472    1.452   .     S
C469   O500    1.276   .     A
C470   O499    1.284   .     A
C470   O501    1.295   .     A
C471   C995    1.404   1_554 S
C471   H1000   1.081   1_554 S
C473   I492    2.153   .     S
C474   N493    1.158   .     T
C474   C123    1.450   1_565 S
C475   N494    1.157   .     T
C476   N1008   1.157   .     S
C477   N496    1.157   .     T
C478   H488    1.080   .     S
C478   C981    1.387   1_554 S
C478   C992    1.406   1_554 S
C479   C480    1.416   .     A
C479   C991    1.406   .     S
C479   C994    1.426   .     S
C480   C484    1.410   .     A
C481   C992    1.426   1_554 S
C481   C995    1.425   1_554 S
C482   C483    1.403   .     A
C482   C994    1.425   .     S
C482   C984    1.404   .     S
C483   I491    2.128   .     S
C483   C484    1.387   .     A
C484   H489    1.079   .     S
H486   C349    1.086   1_655 S
H487   C984    1.081   .     S
N495   C989    1.157   1_554 S
O497   Zn512   1.943   .     S
O497   Zn513   1.929   .     S
O497   Zn510   1.975   .     S
O497   Zn511   1.939   .     S
O498   Zn511   1.937   .     S
O499   Zn513   1.949   .     S
O500   Zn512   1.935   .     S
O501   Zn510   1.926   .     S
O502   Zn510   1.934   .     S
O503   Zn513   1.945   .     S
O504   Zn511   1.926   .     S
O505   Zn512   1.938   .     S
O506   Zn513   1.930   .     S
O507   Zn510   1.922   .     S
O508   Zn511   1.952   .     S
O509   Zn512   1.938   .     S
C514   O561    1.265   .     A
C514   C520    1.440   .     S
C514   O563    1.270   .     A
C515   C529    1.402   .     A
C515   C538    1.421   .     A
C515   C532    1.453   .     S
C516   C528    1.387   .     A
C516   H542    1.084   .     S
C516   C529    1.393   .     A
C517   O562    1.289   .     A
C517   O564    1.287   .     A
C517   C519    1.459   .     S
C518   C527    1.489   .     S
C518   C537    1.427   .     A
C518   C530    1.427   .     A
C519   C577    1.341   .     S
C519   C591    1.451   .     S
C520   C633    1.341   1_455 S
C520   H657    1.086   1_455 S
C521   C524    1.457   .     S
C521   C693    1.350   .     S
C521   I718    2.141   .     S
C522   C523    1.427   .     S
C522   C863    1.350   1_545 S
C522   C873    1.450   1_545 S
C523   O559    1.278   .     A
C523   O565    1.273   .     A
C524   O560    1.268   .     A
C524   O566    1.274   .     A
C525   C530    1.402   .     A
C525   C533    1.444   .     S
C525   C22     1.387   1_556 S
C526   O555    1.271   .     A
C526   C529    1.452   .     S
C526   O557    1.276   .     A
C527   O556    1.284   .     A
C527   O558    1.295   .     A
C530   I549    2.153   .     S
C531   N550    1.158   .     T
C531   C693    1.450   .     S
C532   N551    1.157   .     T
C533   N39     1.157   1_556 S
C534   N553    1.157   .     T
C534   C633    1.451   1_455 S
C535   H545    1.080   .     S
C536   C537    1.416   .     A
C536   C22     1.406   1_556 S
C536   C25     1.426   1_556 S
C537   C541    1.410   .     A
C539   C540    1.403   .     A
C539   C25     1.425   1_556 S
C539   C15     1.404   1_556 S
C540   I548    2.128   .     S
C540   C541    1.387   .     A
C541   H546    1.079   .     S
H543   C577    1.086   .     S
H544   C15     1.081   1_556 S
I547   C863    2.141   1_545 S
O554   Zn569   1.943   .     S
O554   Zn570   1.929   .     S
O554   Zn567   1.975   .     S
O554   Zn568   1.939   .     S
O555   Zn568   1.937   .     S
O556   Zn570   1.949   .     S
O557   Zn569   1.935   .     S
O558   Zn567   1.926   .     S
O559   Zn567   1.934   .     S
O560   Zn570   1.945   .     S
O561   Zn568   1.926   .     S
O562   Zn569   1.938   .     S
O563   Zn570   1.930   .     S
O564   Zn567   1.922   .     S
O565   Zn568   1.952   .     S
O566   Zn569   1.938   .     S
C571   O618    1.265   .     A
C571   C577    1.440   .     S
C571   O620    1.270   .     A
C572   C586    1.402   .     A
C572   C595    1.421   .     A
C572   C589    1.453   .     S
C573   C585    1.387   .     A
C573   H599    1.084   .     S
C573   C586    1.393   .     A
C574   O619    1.289   .     A
C574   O621    1.287   .     A
C574   C576    1.459   .     S
C575   C584    1.489   .     S
C575   C594    1.427   .     A
C575   C587    1.427   .     A
C576   C634    1.341   .     S
C576   C648    1.451   .     S
C578   C581    1.457   .     S
C578   C750    1.350   .     S
C578   I775    2.141   .     S
C579   C580    1.427   .     S
C579   C920    1.350   1_545 S
C579   C930    1.450   1_545 S
C580   O616    1.278   .     A
C580   O622    1.273   .     A
C581   O617    1.268   .     A
C581   O623    1.274   .     A
C582   C587    1.402   .     A
C582   C590    1.444   .     S
C582   C79     1.387   1_556 S
C583   O612    1.271   .     A
C583   C586    1.452   .     S
C583   O614    1.276   .     A
C584   O613    1.284   .     A
C584   O615    1.295   .     A
C587   I606    2.153   .     S
C588   N607    1.158   .     T
C588   C750    1.450   .     S
C589   N608    1.157   .     T
C590   N96     1.157   1_556 S
C591   N610    1.157   .     T
C592   H602    1.080   .     S
C593   C594    1.416   .     A
C593   C79     1.406   1_556 S
C593   C82     1.426   1_556 S
C594   C598    1.410   .     A
C596   C597    1.403   .     A
C596   C82     1.425   1_556 S
C596   C72     1.404   1_556 S
C597   I605    2.128   .     S
C597   C598    1.387   .     A
C598   H603    1.079   .     S
H600   C634    1.086   .     S
H601   C72     1.081   1_556 S
I604   C920    2.141   1_545 S
O611   Zn626   1.943   .     S
O611   Zn627   1.929   .     S
O611   Zn624   1.975   .     S
O611   Zn625   1.939   .     S
O612   Zn625   1.937   .     S
O613   Zn627   1.949   .     S
O614   Zn626   1.935   .     S
O615   Zn624   1.926   .     S
O616   Zn624   1.934   .     S
O617   Zn627   1.945   .     S
O618   Zn625   1.926   .     S
O619   Zn626   1.938   .     S
O620   Zn627   1.930   .     S
O621   Zn624   1.922   .     S
O622   Zn625   1.952   .     S
O623   Zn626   1.938   .     S
C628   O675    1.265   .     A
C628   C634    1.440   .     S
C628   O677    1.270   .     A
C629   C643    1.402   .     A
C629   C652    1.421   .     A
C629   C646    1.453   .     S
C630   C642    1.387   .     A
C630   H656    1.084   .     S
C630   C643    1.393   .     A
C631   O676    1.289   .     A
C631   O678    1.287   .     A
C631   C633    1.459   .     S
C632   C641    1.489   .     S
C632   C651    1.427   .     A
C632   C644    1.427   .     A
C633   C520    1.341   1_655 S
C633   C534    1.451   1_655 S
C635   C638    1.457   .     S
C635   C807    1.350   .     S
C635   I832    2.141   .     S
C636   C637    1.427   .     S
C636   C977    1.350   1_545 S
C636   C987    1.450   1_545 S
C637   O673    1.278   .     A
C637   O679    1.273   .     A
C638   O674    1.268   .     A
C638   O680    1.274   .     A
C639   C644    1.402   .     A
C639   C647    1.444   .     S
C639   C136    1.387   1_556 S
C640   O669    1.271   .     A
C640   C643    1.452   .     S
C640   O671    1.276   .     A
C641   O670    1.284   .     A
C641   O672    1.295   .     A
C644   I663    2.153   .     S
C645   N664    1.158   .     T
C645   C807    1.450   .     S
C646   N665    1.157   .     T
C647   N153    1.157   1_556 S
C648   N667    1.157   .     T
C649   H659    1.080   .     S
C650   C651    1.416   .     A
C650   C136    1.406   1_556 S
C650   C139    1.426   1_556 S
C651   C655    1.410   .     A
C653   C654    1.403   .     A
C653   C139    1.425   1_556 S
C653   C129    1.404   1_556 S
C654   I662    2.128   .     S
C654   C655    1.387   .     A
C655   H660    1.079   .     S
H657   C520    1.086   1_655 S
H658   C129    1.081   1_556 S
I661   C977    2.141   1_545 S
O668   Zn683   1.943   .     S
O668   Zn684   1.929   .     S
O668   Zn681   1.975   .     S
O668   Zn682   1.939   .     S
O669   Zn682   1.937   .     S
O670   Zn684   1.949   .     S
O671   Zn683   1.935   .     S
O672   Zn681   1.926   .     S
O673   Zn681   1.934   .     S
O674   Zn684   1.945   .     S
O675   Zn682   1.926   .     S
O676   Zn683   1.938   .     S
O677   Zn684   1.930   .     S
O678   Zn681   1.922   .     S
O679   Zn682   1.952   .     S
O680   Zn683   1.938   .     S
C685   O732    1.265   .     A
C685   C691    1.440   .     S
C685   O734    1.270   .     A
C686   C700    1.402   .     A
C686   C709    1.421   .     A
C686   C703    1.453   .     S
C687   C699    1.387   .     A
C687   H713    1.084   .     S
C687   C700    1.393   .     A
C688   O733    1.289   .     A
C688   O735    1.287   .     A
C688   C690    1.459   .     S
C689   C698    1.489   .     S
C689   C708    1.427   .     A
C689   C701    1.427   .     A
C690   C748    1.341   .     S
C690   C762    1.451   .     S
C691   C804    1.341   1_455 S
C691   H828    1.086   1_455 S
C692   C695    1.457   .     S
C692   C864    1.350   .     S
C692   I889    2.141   .     S
C693   C694    1.427   .     S
C694   O730    1.278   .     A
C694   O736    1.273   .     A
C695   O731    1.268   .     A
C695   O737    1.274   .     A
C696   C701    1.402   .     A
C696   C704    1.444   .     S
C696   C193    1.387   1_556 S
C697   O726    1.271   .     A
C697   C700    1.452   .     S
C697   O728    1.276   .     A
C698   O727    1.284   .     A
C698   O729    1.295   .     A
C701   I720    2.153   .     S
C702   N721    1.158   .     T
C702   C864    1.450   .     S
C703   N722    1.157   .     T
C704   N210    1.157   1_556 S
C705   N724    1.157   .     T
C705   C804    1.451   1_455 S
C706   H716    1.080   .     S
C707   C708    1.416   .     A
C707   C193    1.406   1_556 S
C707   C196    1.426   1_556 S
C708   C712    1.410   .     A
C710   C711    1.403   .     A
C710   C196    1.425   1_556 S
C710   C186    1.404   1_556 S
C711   I719    2.128   .     S
C711   C712    1.387   .     A
C712   H717    1.079   .     S
H714   C748    1.086   .     S
H715   C186    1.081   1_556 S
O725   Zn740   1.943   .     S
O725   Zn741   1.929   .     S
O725   Zn738   1.975   .     S
O725   Zn739   1.939   .     S
O726   Zn739   1.937   .     S
O727   Zn741   1.949   .     S
O728   Zn740   1.935   .     S
O729   Zn738   1.926   .     S
O730   Zn738   1.934   .     S
O731   Zn741   1.945   .     S
O732   Zn739   1.926   .     S
O733   Zn740   1.938   .     S
O734   Zn741   1.930   .     S
O735   Zn738   1.922   .     S
O736   Zn739   1.952   .     S
O737   Zn740   1.938   .     S
C742   O789    1.265   .     A
C742   C748    1.440   .     S
C742   O791    1.270   .     A
C743   C757    1.402   .     A
C743   C766    1.421   .     A
C743   C760    1.453   .     S
C744   C756    1.387   .     A
C744   H770    1.084   .     S
C744   C757    1.393   .     A
C745   O790    1.289   .     A
C745   O792    1.287   .     A
C745   C747    1.459   .     S
C746   C755    1.489   .     S
C746   C765    1.427   .     A
C746   C758    1.427   .     A
C747   C805    1.341   .     S
C747   C819    1.451   .     S
C749   C752    1.457   .     S
C749   C921    1.350   .     S
C749   I946    2.141   .     S
C750   C751    1.427   .     S
C751   O787    1.278   .     A
C751   O793    1.273   .     A
C752   O788    1.268   .     A
C752   O794    1.274   .     A
C753   C758    1.402   .     A
C753   C761    1.444   .     S
C753   C250    1.387   1_556 S
C754   O783    1.271   .     A
C754   C757    1.452   .     S
C754   O785    1.276   .     A
C755   O784    1.284   .     A
C755   O786    1.295   .     A
C758   I777    2.153   .     S
C759   N778    1.158   .     T
C759   C921    1.450   .     S
C760   N779    1.157   .     T
C761   N267    1.157   1_556 S
C762   N781    1.157   .     T
C763   H773    1.080   .     S
C764   C765    1.416   .     A
C764   C250    1.406   1_556 S
C764   C253    1.426   1_556 S
C765   C769    1.410   .     A
C767   C768    1.403   .     A
C767   C253    1.425   1_556 S
C767   C243    1.404   1_556 S
C768   I776    2.128   .     S
C768   C769    1.387   .     A
C769   H774    1.079   .     S
H771   C805    1.086   .     S
H772   C243    1.081   1_556 S
O782   Zn797   1.943   .     S
O782   Zn798   1.929   .     S
O782   Zn795   1.975   .     S
O782   Zn796   1.939   .     S
O783   Zn796   1.937   .     S
O784   Zn798   1.949   .     S
O785   Zn797   1.935   .     S
O786   Zn795   1.926   .     S
O787   Zn795   1.934   .     S
O788   Zn798   1.945   .     S
O789   Zn796   1.926   .     S
O790   Zn797   1.938   .     S
O791   Zn798   1.930   .     S
O792   Zn795   1.922   .     S
O793   Zn796   1.952   .     S
O794   Zn797   1.938   .     S
C799   O846    1.265   .     A
C799   C805    1.440   .     S
C799   O848    1.270   .     A
C800   C814    1.402   .     A
C800   C823    1.421   .     A
C800   C817    1.453   .     S
C801   C813    1.387   .     A
C801   H827    1.084   .     S
C801   C814    1.393   .     A
C802   O847    1.289   .     A
C802   O849    1.287   .     A
C802   C804    1.459   .     S
C803   C812    1.489   .     S
C803   C822    1.427   .     A
C803   C815    1.427   .     A
C804   C691    1.341   1_655 S
C804   C705    1.451   1_655 S
C806   C809    1.457   .     S
C806   C978    1.350   .     S
C806   I1003   2.141   .     S
C807   C808    1.427   .     S
C808   O844    1.278   .     A
C808   O850    1.273   .     A
C809   O845    1.268   .     A
C809   O851    1.274   .     A
C810   C815    1.402   .     A
C810   C818    1.444   .     S
C810   C307    1.387   1_556 S
C811   O840    1.271   .     A
C811   C814    1.452   .     S
C811   O842    1.276   .     A
C812   O841    1.284   .     A
C812   O843    1.295   .     A
C815   I834    2.153   .     S
C816   N835    1.158   .     T
C816   C978    1.450   .     S
C817   N836    1.157   .     T
C818   N324    1.157   1_556 S
C819   N838    1.157   .     T
C820   H830    1.080   .     S
C821   C822    1.416   .     A
C821   C307    1.406   1_556 S
C821   C310    1.426   1_556 S
C822   C826    1.410   .     A
C824   C825    1.403   .     A
C824   C310    1.425   1_556 S
C824   C300    1.404   1_556 S
C825   I833    2.128   .     S
C825   C826    1.387   .     A
C826   H831    1.079   .     S
H828   C691    1.086   1_655 S
H829   C300    1.081   1_556 S
O839   Zn854   1.943   .     S
O839   Zn855   1.929   .     S
O839   Zn852   1.975   .     S
O839   Zn853   1.939   .     S
O840   Zn853   1.937   .     S
O841   Zn855   1.949   .     S
O842   Zn854   1.935   .     S
O843   Zn852   1.926   .     S
O844   Zn852   1.934   .     S
O845   Zn855   1.945   .     S
O846   Zn853   1.926   .     S
O847   Zn854   1.938   .     S
O848   Zn855   1.930   .     S
O849   Zn852   1.922   .     S
O850   Zn853   1.952   .     S
O851   Zn854   1.938   .     S
C856   O903    1.265   .     A
C856   C862    1.440   .     S
C856   O905    1.270   .     A
C857   C871    1.402   .     A
C857   C880    1.421   .     A
C857   C874    1.453   .     S
C858   C870    1.387   .     A
C858   H884    1.084   .     S
C858   C871    1.393   .     A
C859   O904    1.289   .     A
C859   O906    1.287   .     A
C859   C861    1.459   .     S
C860   C869    1.489   .     S
C860   C879    1.427   .     A
C860   C872    1.427   .     A
C861   C919    1.341   .     S
C861   C933    1.451   .     S
C862   C975    1.341   1_455 S
C862   H999    1.086   1_455 S
C863   C866    1.457   .     S
C863   C522    1.350   1_565 S
C863   I547    2.141   1_565 S
C864   C865    1.427   .     S
C865   O901    1.278   .     A
C865   O907    1.273   .     A
C866   O902    1.268   .     A
C866   O908    1.274   .     A
C867   C872    1.402   .     A
C867   C875    1.444   .     S
C867   C364    1.387   1_556 S
C868   O897    1.271   .     A
C868   C871    1.452   .     S
C868   O899    1.276   .     A
C869   O898    1.284   .     A
C869   O900    1.295   .     A
C872   I891    2.153   .     S
C873   N892    1.158   .     T
C873   C522    1.450   1_565 S
C874   N893    1.157   .     T
C875   N381    1.157   1_556 S
C876   N895    1.157   .     T
C876   C975    1.451   1_455 S
C877   H887    1.080   .     S
C878   C879    1.416   .     A
C878   C364    1.406   1_556 S
C878   C367    1.426   1_556 S
C879   C883    1.410   .     A
C881   C882    1.403   .     A
C881   C367    1.425   1_556 S
C881   C357    1.404   1_556 S
C882   I890    2.128   .     S
C882   C883    1.387   .     A
C883   H888    1.079   .     S
H885   C919    1.086   .     S
H886   C357    1.081   1_556 S
O896   Zn911   1.943   .     S
O896   Zn912   1.929   .     S
O896   Zn909   1.975   .     S
O896   Zn910   1.939   .     S
O897   Zn910   1.937   .     S
O898   Zn912   1.949   .     S
O899   Zn911   1.935   .     S
O900   Zn909   1.926   .     S
O901   Zn909   1.934   .     S
O902   Zn912   1.945   .     S
O903   Zn910   1.926   .     S
O904   Zn911   1.938   .     S
O905   Zn912   1.930   .     S
O906   Zn909   1.922   .     S
O907   Zn910   1.952   .     S
O908   Zn911   1.938   .     S
C913   O960    1.265   .     A
C913   C919    1.440   .     S
C913   O962    1.270   .     A
C914   C928    1.402   .     A
C914   C937    1.421   .     A
C914   C931    1.453   .     S
C915   C927    1.387   .     A
C915   H941    1.084   .     S
C915   C928    1.393   .     A
C916   O961    1.289   .     A
C916   O963    1.287   .     A
C916   C918    1.459   .     S
C917   C926    1.489   .     S
C917   C936    1.427   .     A
C917   C929    1.427   .     A
C918   C976    1.341   .     S
C918   C990    1.451   .     S
C920   C923    1.457   .     S
C920   C579    1.350   1_565 S
C920   I604    2.141   1_565 S
C921   C922    1.427   .     S
C922   O958    1.278   .     A
C922   O964    1.273   .     A
C923   O959    1.268   .     A
C923   O965    1.274   .     A
C924   C929    1.402   .     A
C924   C932    1.444   .     S
C924   C421    1.387   1_556 S
C925   O954    1.271   .     A
C925   C928    1.452   .     S
C925   O956    1.276   .     A
C926   O955    1.284   .     A
C926   O957    1.295   .     A
C929   I948    2.153   .     S
C930   N949    1.158   .     T
C930   C579    1.450   1_565 S
C931   N950    1.157   .     T
C932   N438    1.157   1_556 S
C933   N952    1.157   .     T
C934   H944    1.080   .     S
C935   C936    1.416   .     A
C935   C421    1.406   1_556 S
C935   C424    1.426   1_556 S
C936   C940    1.410   .     A
C938   C939    1.403   .     A
C938   C424    1.425   1_556 S
C938   C414    1.404   1_556 S
C939   I947    2.128   .     S
C939   C940    1.387   .     A
C940   H945    1.079   .     S
H942   C976    1.086   .     S
H943   C414    1.081   1_556 S
O953   Zn968   1.943   .     S
O953   Zn969   1.929   .     S
O953   Zn966   1.975   .     S
O953   Zn967   1.939   .     S
O954   Zn967   1.937   .     S
O955   Zn969   1.949   .     S
O956   Zn968   1.935   .     S
O957   Zn966   1.926   .     S
O958   Zn966   1.934   .     S
O959   Zn969   1.945   .     S
O960   Zn967   1.926   .     S
O961   Zn968   1.938   .     S
O962   Zn969   1.930   .     S
O963   Zn966   1.922   .     S
O964   Zn967   1.952   .     S
O965   Zn968   1.938   .     S
C970   O1017   1.265   .     A
C970   C976    1.440   .     S
C970   O1019   1.270   .     A
C971   C985    1.402   .     A
C971   C994    1.421   .     A
C971   C988    1.453   .     S
C972   C984    1.387   .     A
C972   H998    1.084   .     S
C972   C985    1.393   .     A
C973   O1018   1.289   .     A
C973   O1020   1.287   .     A
C973   C975    1.459   .     S
C974   C983    1.489   .     S
C974   C993    1.427   .     A
C974   C986    1.427   .     A
C975   C862    1.341   1_655 S
C975   C876    1.451   1_655 S
C977   C980    1.457   .     S
C977   C636    1.350   1_565 S
C977   I661    2.141   1_565 S
C978   C979    1.427   .     S
C979   O1015   1.278   .     A
C979   O1021   1.273   .     A
C980   O1016   1.268   .     A
C980   O1022   1.274   .     A
C981   C986    1.402   .     A
C981   C989    1.444   .     S
C981   C478    1.387   1_556 S
C982   O1011   1.271   .     A
C982   C985    1.452   .     S
C982   O1013   1.276   .     A
C983   O1012   1.284   .     A
C983   O1014   1.295   .     A
C986   I1005   2.153   .     S
C987   N1006   1.158   .     T
C987   C636    1.450   1_565 S
C988   N1007   1.157   .     T
C989   N495    1.157   1_556 S
C990   N1009   1.157   .     T
C991   H1001   1.080   .     S
C992   C993    1.416   .     A
C992   C478    1.406   1_556 S
C992   C481    1.426   1_556 S
C993   C997    1.410   .     A
C995   C996    1.403   .     A
C995   C481    1.425   1_556 S
C995   C471    1.404   1_556 S
C996   I1004   2.128   .     S
C996   C997    1.387   .     A
C997   H1002   1.079   .     S
H999   C862    1.086   1_655 S
H1000  C471    1.081   1_556 S
O1010  Zn1025  1.943   .     S
O1010  Zn1026  1.929   .     S
O1010  Zn1023  1.975   .     S
O1010  Zn1024  1.939   .     S
O1011  Zn1024  1.937   .     S
O1012  Zn1026  1.949   .     S
O1013  Zn1025  1.935   .     S
O1014  Zn1023  1.926   .     S
O1015  Zn1023  1.934   .     S
O1016  Zn1026  1.945   .     S
O1017  Zn1024  1.926   .     S
O1018  Zn1025  1.938   .     S
O1019  Zn1026  1.930   .     S
O1020  Zn1023  1.922   .     S
O1021  Zn1024  1.952   .     S
O1022  Zn1025  1.938   .     S
