data_str_m2_o10_o16_pcu_sym.170
_audit_creation_date              2020-01-03
_audit_creation_method            'Materials Studio'
_symmetry_space_group_name_H-M    'P1'
_symmetry_Int_Tables_number       1
_symmetry_cell_setting            triclinic
loop_
_symmetry_equiv_pos_as_xyz
  x,y,z
_cell_length_a                    22.2586
_cell_length_b                    26.1829
_cell_length_c                    26.8010
_cell_angle_alpha                 94.0576
_cell_angle_beta                  77.1860
_cell_angle_gamma                 103.1579
loop_
_atom_site_label
_atom_site_type_symbol
_atom_site_fract_x
_atom_site_fract_y
_atom_site_fract_z
_atom_site_U_iso_or_equiv
_atom_site_adp_type
_atom_site_occupancy
C1     C     0.18285   0.26663   0.24906   0.00000  Uiso   1.00
C2     C     0.13884   0.16783   0.48821   0.00000  Uiso   1.00
C3     C     0.15423   0.18334   0.43644   0.00000  Uiso   1.00
C4     C     0.18630   0.18063   0.01783   0.00000  Uiso   1.00
C5     C     0.24587   0.21304   0.49721   0.00000  Uiso   1.00
C6     C     0.25733   0.23305   0.44841   0.00000  Uiso   1.00
C7     C     0.21200   0.21913   0.41880   0.00000  Uiso   1.00
C8     C     0.17634   0.16218   0.06751   0.00000  Uiso   1.00
C9     C     0.28030   0.20970   0.07656   0.00000  Uiso   1.00
C10    C     0.11112   0.16323   0.40390   0.00000  Uiso   1.00
C11    C     0.19421   0.32256   0.24392   0.00000  Uiso   1.00
C12    C     0.13277   0.16522   0.34743   0.00000  Uiso   1.00
C13    C     0.14426   0.01083   0.24828   0.00000  Uiso   1.00
C14    C     0.15195   0.06664   0.24802   0.00000  Uiso   1.00
C15    C     0.20069   0.17034   0.15289   0.00000  Uiso   1.00
C16    C     0.29275   0.22639   0.02630   0.00000  Uiso   1.00
C17    C     0.22122   0.17878   0.09771   0.00000  Uiso   1.00
C18    C     0.04921   0.13595   0.42571   0.00000  Uiso   1.00
C19    C     0.03223   0.12654   0.47802   0.00000  Uiso   1.00
C20    C     0.07631   0.14106   0.00865   0.00000  Uiso   1.00
Cu21   Cu    0.10710   0.16105   0.24435   0.00000  Uiso   1.00
Cu22   Cu    0.22623   0.17228   0.25565   0.00000  Uiso   1.00
H23    H     0.31556   0.22289   0.09948   0.00000  Uiso   1.00
H24    H     0.09636   0.32058   0.25377   0.00000  Uiso   1.00
H25    H     0.00356   0.20561   0.28981   0.00000  Uiso   1.00
H26    H     0.32977   0.12774   0.21018   0.00000  Uiso   1.00
H27    H     0.30161   0.25967   0.43299   0.00000  Uiso   1.00
H28    H     0.00502   0.25109   0.01067   0.00000  Uiso   1.00
H29    H     0.13322   0.13555   0.08440   0.00000  Uiso   1.00
H30    H     0.05918   0.13199   0.04857   0.00000  Uiso   1.00
H31    H     0.31794   0.10633   0.49492   0.00000  Uiso   1.00
H32    H     0.22246   0.23806   0.38240   0.00000  Uiso   1.00
N33    N     0.31574   0.18074   0.26416   0.00000  Uiso   1.00
N34    N     0.01759   0.15259   0.23584   0.00000  Uiso   1.00
O35    O     0.12797   0.23807   0.24633   0.00000  Uiso   1.00
O36    O     0.22858   0.24755   0.25587   0.00000  Uiso   1.00
O37    O     0.09181   0.15960   0.31839   0.00000  Uiso   1.00
O38    O     0.19242   0.16908   0.32793   0.00000  Uiso   1.00
O39    O     0.10476   0.08578   0.24413   0.00000  Uiso   1.00
O40    O     0.20536   0.09526   0.25367   0.00000  Uiso   1.00
O41    O     0.14092   0.16425   0.17207   0.00000  Uiso   1.00
O42    O     0.24152   0.17373   0.18161   0.00000  Uiso   1.00
N43    N     0.00358   0.11639   0.39482   0.00000  Uiso   1.00
H44    H     0.32266   0.07573   0.39888   0.00000  Uiso   1.00
H45    H     0.29746   0.13256   0.40902   0.00000  Uiso   1.00
O46    O     0.25535   0.01954   0.23386   0.00000  Uiso   1.00
H47    H     0.28626   0.33004   0.22704   0.00000  Uiso   1.00
C48    C     0.51618   0.26663   0.24906   0.00000  Uiso   1.00
C49    C     0.47218   0.16783   0.48821   0.00000  Uiso   1.00
C50    C     0.48756   0.18334   0.43644   0.00000  Uiso   1.00
C51    C     0.51963   0.18063   0.01783   0.00000  Uiso   1.00
C52    C     0.57920   0.21304   0.49721   0.00000  Uiso   1.00
C53    C     0.59066   0.23305   0.44841   0.00000  Uiso   1.00
C54    C     0.54533   0.21913   0.41880   0.00000  Uiso   1.00
C55    C     0.50967   0.16218   0.06751   0.00000  Uiso   1.00
C56    C     0.61363   0.20970   0.07656   0.00000  Uiso   1.00
C57    C     0.44445   0.16323   0.40390   0.00000  Uiso   1.00
C58    C     0.52754   0.32256   0.24392   0.00000  Uiso   1.00
C59    C     0.46610   0.16522   0.34743   0.00000  Uiso   1.00
C60    C     0.47759   0.01083   0.24828   0.00000  Uiso   1.00
C61    C     0.48528   0.06664   0.24802   0.00000  Uiso   1.00
C62    C     0.53403   0.17034   0.15289   0.00000  Uiso   1.00
C63    C     0.62609   0.22639   0.02630   0.00000  Uiso   1.00
C64    C     0.55455   0.17878   0.09771   0.00000  Uiso   1.00
C65    C     0.38254   0.13595   0.42571   0.00000  Uiso   1.00
C66    C     0.36556   0.12654   0.47802   0.00000  Uiso   1.00
C67    C     0.40964   0.14106   0.00865   0.00000  Uiso   1.00
Cu68   Cu    0.44043   0.16105   0.24435   0.00000  Uiso   1.00
Cu69   Cu    0.55957   0.17228   0.25565   0.00000  Uiso   1.00
H70    H     0.64889   0.22289   0.09948   0.00000  Uiso   1.00
H71    H     0.42970   0.32058   0.25377   0.00000  Uiso   1.00
H72    H     0.33690   0.20561   0.28981   0.00000  Uiso   1.00
H73    H     0.66310   0.12774   0.21018   0.00000  Uiso   1.00
H74    H     0.63494   0.25967   0.43299   0.00000  Uiso   1.00
H75    H     0.33836   0.25109   0.01067   0.00000  Uiso   1.00
H76    H     0.46655   0.13555   0.08440   0.00000  Uiso   1.00
H77    H     0.39251   0.13199   0.04857   0.00000  Uiso   1.00
H78    H     0.65127   0.10633   0.49492   0.00000  Uiso   1.00
H79    H     0.55579   0.23806   0.38240   0.00000  Uiso   1.00
N80    N     0.64908   0.18074   0.26416   0.00000  Uiso   1.00
N81    N     0.35092   0.15259   0.23584   0.00000  Uiso   1.00
O82    O     0.46131   0.23807   0.24633   0.00000  Uiso   1.00
O83    O     0.56191   0.24755   0.25587   0.00000  Uiso   1.00
O84    O     0.42515   0.15960   0.31839   0.00000  Uiso   1.00
O85    O     0.52575   0.16908   0.32793   0.00000  Uiso   1.00
O86    O     0.43809   0.08578   0.24413   0.00000  Uiso   1.00
O87    O     0.53869   0.09526   0.25367   0.00000  Uiso   1.00
O88    O     0.47425   0.16425   0.17207   0.00000  Uiso   1.00
O89    O     0.57485   0.17373   0.18161   0.00000  Uiso   1.00
N90    N     0.33691   0.11639   0.39482   0.00000  Uiso   1.00
H91    H     0.65599   0.07573   0.39888   0.00000  Uiso   1.00
H92    H     0.63079   0.13256   0.40902   0.00000  Uiso   1.00
O93    O     0.58869   0.01954   0.23386   0.00000  Uiso   1.00
H94    H     0.61960   0.33004   0.22704   0.00000  Uiso   1.00
C95    C     0.84952   0.26663   0.24906   0.00000  Uiso   1.00
C96    C     0.80551   0.16783   0.48821   0.00000  Uiso   1.00
C97    C     0.82089   0.18334   0.43644   0.00000  Uiso   1.00
C98    C     0.85296   0.18063   0.01783   0.00000  Uiso   1.00
C99    C     0.91254   0.21304   0.49721   0.00000  Uiso   1.00
C100   C     0.92400   0.23305   0.44841   0.00000  Uiso   1.00
C101   C     0.87867   0.21913   0.41880   0.00000  Uiso   1.00
C102   C     0.84300   0.16218   0.06751   0.00000  Uiso   1.00
C103   C     0.94696   0.20970   0.07656   0.00000  Uiso   1.00
C104   C     0.77778   0.16323   0.40390   0.00000  Uiso   1.00
C105   C     0.86088   0.32256   0.24392   0.00000  Uiso   1.00
C106   C     0.79943   0.16522   0.34743   0.00000  Uiso   1.00
C107   C     0.81092   0.01083   0.24828   0.00000  Uiso   1.00
C108   C     0.81862   0.06664   0.24802   0.00000  Uiso   1.00
C109   C     0.86736   0.17034   0.15289   0.00000  Uiso   1.00
C110   C     0.95942   0.22639   0.02630   0.00000  Uiso   1.00
C111   C     0.88788   0.17878   0.09771   0.00000  Uiso   1.00
C112   C     0.71587   0.13595   0.42571   0.00000  Uiso   1.00
C113   C     0.69889   0.12654   0.47802   0.00000  Uiso   1.00
C114   C     0.74297   0.14106   0.00865   0.00000  Uiso   1.00
Cu115  Cu    0.77377   0.16105   0.24435   0.00000  Uiso   1.00
Cu116  Cu    0.89290   0.17228   0.25565   0.00000  Uiso   1.00
H117   H     0.98223   0.22289   0.09948   0.00000  Uiso   1.00
H118   H     0.76303   0.32058   0.25377   0.00000  Uiso   1.00
H119   H     0.67023   0.20561   0.28981   0.00000  Uiso   1.00
H120   H     0.99644   0.12774   0.21018   0.00000  Uiso   1.00
H121   H     0.96827   0.25967   0.43299   0.00000  Uiso   1.00
H122   H     0.67169   0.25109   0.01067   0.00000  Uiso   1.00
H123   H     0.79988   0.13555   0.08440   0.00000  Uiso   1.00
H124   H     0.72585   0.13199   0.04857   0.00000  Uiso   1.00
H125   H     0.98460   0.10633   0.49492   0.00000  Uiso   1.00
H126   H     0.88912   0.23806   0.38240   0.00000  Uiso   1.00
N127   N     0.98241   0.18074   0.26416   0.00000  Uiso   1.00
N128   N     0.68426   0.15259   0.23584   0.00000  Uiso   1.00
O129   O     0.79464   0.23807   0.24633   0.00000  Uiso   1.00
O130   O     0.89524   0.24755   0.25587   0.00000  Uiso   1.00
O131   O     0.75848   0.15960   0.31839   0.00000  Uiso   1.00
O132   O     0.85908   0.16908   0.32793   0.00000  Uiso   1.00
O133   O     0.77142   0.08578   0.24413   0.00000  Uiso   1.00
O134   O     0.87203   0.09526   0.25367   0.00000  Uiso   1.00
O135   O     0.80758   0.16425   0.17207   0.00000  Uiso   1.00
O136   O     0.90819   0.17373   0.18161   0.00000  Uiso   1.00
N137   N     0.67024   0.11639   0.39482   0.00000  Uiso   1.00
H138   H     0.98933   0.07573   0.39888   0.00000  Uiso   1.00
H139   H     0.96413   0.13256   0.40902   0.00000  Uiso   1.00
O140   O     0.92202   0.01954   0.23386   0.00000  Uiso   1.00
H141   H     0.95293   0.33004   0.22704   0.00000  Uiso   1.00
C142   C     0.18285   0.59997   0.24906   0.00000  Uiso   1.00
C143   C     0.13884   0.50116   0.48821   0.00000  Uiso   1.00
C144   C     0.15423   0.51667   0.43644   0.00000  Uiso   1.00
C145   C     0.18630   0.51396   0.01783   0.00000  Uiso   1.00
C146   C     0.24587   0.54638   0.49721   0.00000  Uiso   1.00
C147   C     0.25733   0.56638   0.44841   0.00000  Uiso   1.00
C148   C     0.21200   0.55246   0.41880   0.00000  Uiso   1.00
C149   C     0.17634   0.49551   0.06751   0.00000  Uiso   1.00
C150   C     0.28030   0.54303   0.07656   0.00000  Uiso   1.00
C151   C     0.11112   0.49657   0.40390   0.00000  Uiso   1.00
C152   C     0.19421   0.65589   0.24392   0.00000  Uiso   1.00
C153   C     0.13277   0.49855   0.34743   0.00000  Uiso   1.00
C154   C     0.14426   0.34417   0.24828   0.00000  Uiso   1.00
C155   C     0.15195   0.39997   0.24802   0.00000  Uiso   1.00
C156   C     0.20069   0.50367   0.15289   0.00000  Uiso   1.00
C157   C     0.29275   0.55972   0.02630   0.00000  Uiso   1.00
C158   C     0.22122   0.51211   0.09771   0.00000  Uiso   1.00
C159   C     0.04921   0.46928   0.42571   0.00000  Uiso   1.00
C160   C     0.03223   0.45988   0.47802   0.00000  Uiso   1.00
C161   C     0.07631   0.47440   0.00865   0.00000  Uiso   1.00
Cu162  Cu    0.10710   0.49439   0.24435   0.00000  Uiso   1.00
Cu163  Cu    0.22623   0.50561   0.25565   0.00000  Uiso   1.00
H164   H     0.31556   0.55623   0.09948   0.00000  Uiso   1.00
H165   H     0.09636   0.65391   0.25377   0.00000  Uiso   1.00
H166   H     0.00356   0.53895   0.28981   0.00000  Uiso   1.00
H167   H     0.32977   0.46107   0.21018   0.00000  Uiso   1.00
H168   H     0.30161   0.59301   0.43299   0.00000  Uiso   1.00
H169   H     0.00502   0.58442   0.01067   0.00000  Uiso   1.00
H170   H     0.13322   0.46888   0.08440   0.00000  Uiso   1.00
H171   H     0.05918   0.46533   0.04857   0.00000  Uiso   1.00
H172   H     0.31794   0.43967   0.49492   0.00000  Uiso   1.00
H173   H     0.22246   0.57139   0.38240   0.00000  Uiso   1.00
N174   N     0.31574   0.51407   0.26416   0.00000  Uiso   1.00
N175   N     0.01759   0.48593   0.23584   0.00000  Uiso   1.00
O176   O     0.12797   0.57141   0.24633   0.00000  Uiso   1.00
O177   O     0.22858   0.58089   0.25587   0.00000  Uiso   1.00
O178   O     0.09181   0.49293   0.31839   0.00000  Uiso   1.00
O179   O     0.19242   0.50241   0.32793   0.00000  Uiso   1.00
O180   O     0.10476   0.41911   0.24413   0.00000  Uiso   1.00
O181   O     0.20536   0.42859   0.25367   0.00000  Uiso   1.00
O182   O     0.14092   0.49759   0.17207   0.00000  Uiso   1.00
O183   O     0.24152   0.50707   0.18161   0.00000  Uiso   1.00
N184   N     0.00358   0.44973   0.39482   0.00000  Uiso   1.00
H185   H     0.32266   0.40906   0.39888   0.00000  Uiso   1.00
H186   H     0.29746   0.46589   0.40902   0.00000  Uiso   1.00
O187   O     0.25535   0.35287   0.23386   0.00000  Uiso   1.00
H188   H     0.28626   0.66337   0.22704   0.00000  Uiso   1.00
C189   C     0.51618   0.59997   0.24906   0.00000  Uiso   1.00
C190   C     0.47218   0.50116   0.48821   0.00000  Uiso   1.00
C191   C     0.48756   0.51667   0.43644   0.00000  Uiso   1.00
C192   C     0.51963   0.51396   0.01783   0.00000  Uiso   1.00
C193   C     0.57920   0.54638   0.49721   0.00000  Uiso   1.00
C194   C     0.59066   0.56638   0.44841   0.00000  Uiso   1.00
C195   C     0.54533   0.55246   0.41880   0.00000  Uiso   1.00
C196   C     0.50967   0.49551   0.06751   0.00000  Uiso   1.00
C197   C     0.61363   0.54303   0.07656   0.00000  Uiso   1.00
C198   C     0.44445   0.49657   0.40390   0.00000  Uiso   1.00
C199   C     0.52754   0.65589   0.24392   0.00000  Uiso   1.00
C200   C     0.46610   0.49855   0.34743   0.00000  Uiso   1.00
C201   C     0.47759   0.34417   0.24828   0.00000  Uiso   1.00
C202   C     0.48528   0.39997   0.24802   0.00000  Uiso   1.00
C203   C     0.53403   0.50367   0.15289   0.00000  Uiso   1.00
C204   C     0.62609   0.55972   0.02630   0.00000  Uiso   1.00
C205   C     0.55455   0.51211   0.09771   0.00000  Uiso   1.00
C206   C     0.38254   0.46928   0.42571   0.00000  Uiso   1.00
C207   C     0.36556   0.45988   0.47802   0.00000  Uiso   1.00
C208   C     0.40964   0.47440   0.00865   0.00000  Uiso   1.00
Cu209  Cu    0.44043   0.49439   0.24435   0.00000  Uiso   1.00
Cu210  Cu    0.55957   0.50561   0.25565   0.00000  Uiso   1.00
H211   H     0.64889   0.55623   0.09948   0.00000  Uiso   1.00
H212   H     0.42970   0.65391   0.25377   0.00000  Uiso   1.00
H213   H     0.33690   0.53895   0.28981   0.00000  Uiso   1.00
H214   H     0.66310   0.46107   0.21018   0.00000  Uiso   1.00
H215   H     0.63494   0.59301   0.43299   0.00000  Uiso   1.00
H216   H     0.33836   0.58442   0.01067   0.00000  Uiso   1.00
H217   H     0.46655   0.46888   0.08440   0.00000  Uiso   1.00
H218   H     0.39251   0.46533   0.04857   0.00000  Uiso   1.00
H219   H     0.65127   0.43967   0.49492   0.00000  Uiso   1.00
H220   H     0.55579   0.57139   0.38240   0.00000  Uiso   1.00
N221   N     0.64908   0.51407   0.26416   0.00000  Uiso   1.00
N222   N     0.35092   0.48593   0.23584   0.00000  Uiso   1.00
O223   O     0.46131   0.57141   0.24633   0.00000  Uiso   1.00
O224   O     0.56191   0.58089   0.25587   0.00000  Uiso   1.00
O225   O     0.42515   0.49293   0.31839   0.00000  Uiso   1.00
O226   O     0.52575   0.50241   0.32793   0.00000  Uiso   1.00
O227   O     0.43809   0.41911   0.24413   0.00000  Uiso   1.00
O228   O     0.53869   0.42859   0.25367   0.00000  Uiso   1.00
O229   O     0.47425   0.49759   0.17207   0.00000  Uiso   1.00
O230   O     0.57485   0.50707   0.18161   0.00000  Uiso   1.00
N231   N     0.33691   0.44973   0.39482   0.00000  Uiso   1.00
H232   H     0.65599   0.40906   0.39888   0.00000  Uiso   1.00
H233   H     0.63079   0.46589   0.40902   0.00000  Uiso   1.00
O234   O     0.58869   0.35287   0.23386   0.00000  Uiso   1.00
H235   H     0.61960   0.66337   0.22704   0.00000  Uiso   1.00
C236   C     0.84952   0.59997   0.24906   0.00000  Uiso   1.00
C237   C     0.80551   0.50116   0.48821   0.00000  Uiso   1.00
C238   C     0.82089   0.51667   0.43644   0.00000  Uiso   1.00
C239   C     0.85296   0.51396   0.01783   0.00000  Uiso   1.00
C240   C     0.91254   0.54638   0.49721   0.00000  Uiso   1.00
C241   C     0.92400   0.56638   0.44841   0.00000  Uiso   1.00
C242   C     0.87867   0.55246   0.41880   0.00000  Uiso   1.00
C243   C     0.84300   0.49551   0.06751   0.00000  Uiso   1.00
C244   C     0.94696   0.54303   0.07656   0.00000  Uiso   1.00
C245   C     0.77778   0.49657   0.40390   0.00000  Uiso   1.00
C246   C     0.86088   0.65589   0.24392   0.00000  Uiso   1.00
C247   C     0.79943   0.49855   0.34743   0.00000  Uiso   1.00
C248   C     0.81092   0.34417   0.24828   0.00000  Uiso   1.00
C249   C     0.81862   0.39997   0.24802   0.00000  Uiso   1.00
C250   C     0.86736   0.50367   0.15289   0.00000  Uiso   1.00
C251   C     0.95942   0.55972   0.02630   0.00000  Uiso   1.00
C252   C     0.88788   0.51211   0.09771   0.00000  Uiso   1.00
C253   C     0.71587   0.46928   0.42571   0.00000  Uiso   1.00
C254   C     0.69889   0.45988   0.47802   0.00000  Uiso   1.00
C255   C     0.74297   0.47440   0.00865   0.00000  Uiso   1.00
Cu256  Cu    0.77377   0.49439   0.24435   0.00000  Uiso   1.00
Cu257  Cu    0.89290   0.50561   0.25565   0.00000  Uiso   1.00
H258   H     0.98223   0.55623   0.09948   0.00000  Uiso   1.00
H259   H     0.76303   0.65391   0.25377   0.00000  Uiso   1.00
H260   H     0.67023   0.53895   0.28981   0.00000  Uiso   1.00
H261   H     0.99644   0.46107   0.21018   0.00000  Uiso   1.00
H262   H     0.96827   0.59301   0.43299   0.00000  Uiso   1.00
H263   H     0.67169   0.58442   0.01067   0.00000  Uiso   1.00
H264   H     0.79988   0.46888   0.08440   0.00000  Uiso   1.00
H265   H     0.72585   0.46533   0.04857   0.00000  Uiso   1.00
H266   H     0.98460   0.43967   0.49492   0.00000  Uiso   1.00
H267   H     0.88912   0.57139   0.38240   0.00000  Uiso   1.00
N268   N     0.98241   0.51407   0.26416   0.00000  Uiso   1.00
N269   N     0.68426   0.48593   0.23584   0.00000  Uiso   1.00
O270   O     0.79464   0.57141   0.24633   0.00000  Uiso   1.00
O271   O     0.89524   0.58089   0.25587   0.00000  Uiso   1.00
O272   O     0.75848   0.49293   0.31839   0.00000  Uiso   1.00
O273   O     0.85908   0.50241   0.32793   0.00000  Uiso   1.00
O274   O     0.77142   0.41911   0.24413   0.00000  Uiso   1.00
O275   O     0.87203   0.42859   0.25367   0.00000  Uiso   1.00
O276   O     0.80758   0.49759   0.17207   0.00000  Uiso   1.00
O277   O     0.90819   0.50707   0.18161   0.00000  Uiso   1.00
N278   N     0.67024   0.44973   0.39482   0.00000  Uiso   1.00
H279   H     0.98933   0.40906   0.39888   0.00000  Uiso   1.00
H280   H     0.96413   0.46589   0.40902   0.00000  Uiso   1.00
O281   O     0.92202   0.35287   0.23386   0.00000  Uiso   1.00
H282   H     0.95293   0.66337   0.22704   0.00000  Uiso   1.00
C283   C     0.18285   0.93330   0.24906   0.00000  Uiso   1.00
C284   C     0.13884   0.83450   0.48821   0.00000  Uiso   1.00
C285   C     0.15423   0.85000   0.43644   0.00000  Uiso   1.00
C286   C     0.18630   0.84729   0.01783   0.00000  Uiso   1.00
C287   C     0.24587   0.87971   0.49721   0.00000  Uiso   1.00
C288   C     0.25733   0.89971   0.44841   0.00000  Uiso   1.00
C289   C     0.21200   0.88580   0.41880   0.00000  Uiso   1.00
C290   C     0.17634   0.82884   0.06751   0.00000  Uiso   1.00
C291   C     0.28030   0.87636   0.07656   0.00000  Uiso   1.00
C292   C     0.11112   0.82990   0.40390   0.00000  Uiso   1.00
C293   C     0.19421   0.98923   0.24392   0.00000  Uiso   1.00
C294   C     0.13277   0.83189   0.34743   0.00000  Uiso   1.00
C295   C     0.14426   0.67750   0.24828   0.00000  Uiso   1.00
C296   C     0.15195   0.73331   0.24802   0.00000  Uiso   1.00
C297   C     0.20069   0.83700   0.15289   0.00000  Uiso   1.00
C298   C     0.29275   0.89305   0.02630   0.00000  Uiso   1.00
C299   C     0.22122   0.84545   0.09771   0.00000  Uiso   1.00
C300   C     0.04921   0.80262   0.42571   0.00000  Uiso   1.00
C301   C     0.03223   0.79321   0.47802   0.00000  Uiso   1.00
C302   C     0.07631   0.80773   0.00865   0.00000  Uiso   1.00
Cu303  Cu    0.10710   0.82772   0.24435   0.00000  Uiso   1.00
Cu304  Cu    0.22623   0.83895   0.25565   0.00000  Uiso   1.00
H305   H     0.31556   0.88956   0.09948   0.00000  Uiso   1.00
H306   H     0.09636   0.98725   0.25377   0.00000  Uiso   1.00
H307   H     0.00356   0.87228   0.28981   0.00000  Uiso   1.00
H308   H     0.32977   0.79441   0.21018   0.00000  Uiso   1.00
H309   H     0.30161   0.92634   0.43299   0.00000  Uiso   1.00
H310   H     0.00502   0.91775   0.01067   0.00000  Uiso   1.00
H311   H     0.13322   0.80221   0.08440   0.00000  Uiso   1.00
H312   H     0.05918   0.79866   0.04857   0.00000  Uiso   1.00
H313   H     0.31794   0.77300   0.49492   0.00000  Uiso   1.00
H314   H     0.22246   0.90473   0.38240   0.00000  Uiso   1.00
N315   N     0.31574   0.84741   0.26416   0.00000  Uiso   1.00
N316   N     0.01759   0.81926   0.23584   0.00000  Uiso   1.00
O317   O     0.12797   0.90474   0.24633   0.00000  Uiso   1.00
O318   O     0.22858   0.91422   0.25587   0.00000  Uiso   1.00
O319   O     0.09181   0.82627   0.31839   0.00000  Uiso   1.00
O320   O     0.19242   0.83575   0.32793   0.00000  Uiso   1.00
O321   O     0.10476   0.75245   0.24413   0.00000  Uiso   1.00
O322   O     0.20536   0.76193   0.25367   0.00000  Uiso   1.00
O323   O     0.14092   0.83092   0.17207   0.00000  Uiso   1.00
O324   O     0.24152   0.84040   0.18161   0.00000  Uiso   1.00
N325   N     0.00358   0.78306   0.39482   0.00000  Uiso   1.00
H326   H     0.32266   0.74239   0.39888   0.00000  Uiso   1.00
H327   H     0.29746   0.79922   0.40902   0.00000  Uiso   1.00
O328   O     0.25535   0.68620   0.23386   0.00000  Uiso   1.00
H329   H     0.28626   0.99670   0.22704   0.00000  Uiso   1.00
C330   C     0.51618   0.93330   0.24906   0.00000  Uiso   1.00
C331   C     0.47218   0.83450   0.48821   0.00000  Uiso   1.00
C332   C     0.48756   0.85000   0.43644   0.00000  Uiso   1.00
C333   C     0.51963   0.84729   0.01783   0.00000  Uiso   1.00
C334   C     0.57920   0.87971   0.49721   0.00000  Uiso   1.00
C335   C     0.59066   0.89971   0.44841   0.00000  Uiso   1.00
C336   C     0.54533   0.88580   0.41880   0.00000  Uiso   1.00
C337   C     0.50967   0.82884   0.06751   0.00000  Uiso   1.00
C338   C     0.61363   0.87636   0.07656   0.00000  Uiso   1.00
C339   C     0.44445   0.82990   0.40390   0.00000  Uiso   1.00
C340   C     0.52754   0.98923   0.24392   0.00000  Uiso   1.00
C341   C     0.46610   0.83189   0.34743   0.00000  Uiso   1.00
C342   C     0.47759   0.67750   0.24828   0.00000  Uiso   1.00
C343   C     0.48528   0.73331   0.24802   0.00000  Uiso   1.00
C344   C     0.53403   0.83700   0.15289   0.00000  Uiso   1.00
C345   C     0.62609   0.89305   0.02630   0.00000  Uiso   1.00
C346   C     0.55455   0.84545   0.09771   0.00000  Uiso   1.00
C347   C     0.38254   0.80262   0.42571   0.00000  Uiso   1.00
C348   C     0.36556   0.79321   0.47802   0.00000  Uiso   1.00
C349   C     0.40964   0.80773   0.00865   0.00000  Uiso   1.00
Cu350  Cu    0.44043   0.82772   0.24435   0.00000  Uiso   1.00
Cu351  Cu    0.55957   0.83895   0.25565   0.00000  Uiso   1.00
H352   H     0.64889   0.88956   0.09948   0.00000  Uiso   1.00
H353   H     0.42970   0.98725   0.25377   0.00000  Uiso   1.00
H354   H     0.33690   0.87228   0.28981   0.00000  Uiso   1.00
H355   H     0.66310   0.79441   0.21018   0.00000  Uiso   1.00
H356   H     0.63494   0.92634   0.43299   0.00000  Uiso   1.00
H357   H     0.33836   0.91775   0.01067   0.00000  Uiso   1.00
H358   H     0.46655   0.80221   0.08440   0.00000  Uiso   1.00
H359   H     0.39251   0.79866   0.04857   0.00000  Uiso   1.00
H360   H     0.65127   0.77300   0.49492   0.00000  Uiso   1.00
H361   H     0.55579   0.90473   0.38240   0.00000  Uiso   1.00
N362   N     0.64908   0.84741   0.26416   0.00000  Uiso   1.00
N363   N     0.35092   0.81926   0.23584   0.00000  Uiso   1.00
O364   O     0.46131   0.90474   0.24633   0.00000  Uiso   1.00
O365   O     0.56191   0.91422   0.25587   0.00000  Uiso   1.00
O366   O     0.42515   0.82627   0.31839   0.00000  Uiso   1.00
O367   O     0.52575   0.83575   0.32793   0.00000  Uiso   1.00
O368   O     0.43809   0.75245   0.24413   0.00000  Uiso   1.00
O369   O     0.53869   0.76193   0.25367   0.00000  Uiso   1.00
O370   O     0.47425   0.83092   0.17207   0.00000  Uiso   1.00
O371   O     0.57485   0.84040   0.18161   0.00000  Uiso   1.00
N372   N     0.33691   0.78306   0.39482   0.00000  Uiso   1.00
H373   H     0.65599   0.74239   0.39888   0.00000  Uiso   1.00
H374   H     0.63079   0.79922   0.40902   0.00000  Uiso   1.00
O375   O     0.58869   0.68620   0.23386   0.00000  Uiso   1.00
H376   H     0.61960   0.99670   0.22704   0.00000  Uiso   1.00
C377   C     0.84952   0.93330   0.24906   0.00000  Uiso   1.00
C378   C     0.80551   0.83450   0.48821   0.00000  Uiso   1.00
C379   C     0.82089   0.85000   0.43644   0.00000  Uiso   1.00
C380   C     0.85296   0.84729   0.01783   0.00000  Uiso   1.00
C381   C     0.91254   0.87971   0.49721   0.00000  Uiso   1.00
C382   C     0.92400   0.89971   0.44841   0.00000  Uiso   1.00
C383   C     0.87867   0.88580   0.41880   0.00000  Uiso   1.00
C384   C     0.84300   0.82884   0.06751   0.00000  Uiso   1.00
C385   C     0.94696   0.87636   0.07656   0.00000  Uiso   1.00
C386   C     0.77778   0.82990   0.40390   0.00000  Uiso   1.00
C387   C     0.86088   0.98923   0.24392   0.00000  Uiso   1.00
C388   C     0.79943   0.83189   0.34743   0.00000  Uiso   1.00
C389   C     0.81092   0.67750   0.24828   0.00000  Uiso   1.00
C390   C     0.81862   0.73331   0.24802   0.00000  Uiso   1.00
C391   C     0.86736   0.83700   0.15289   0.00000  Uiso   1.00
C392   C     0.95942   0.89305   0.02630   0.00000  Uiso   1.00
C393   C     0.88788   0.84545   0.09771   0.00000  Uiso   1.00
C394   C     0.71587   0.80262   0.42571   0.00000  Uiso   1.00
C395   C     0.69889   0.79321   0.47802   0.00000  Uiso   1.00
C396   C     0.74297   0.80773   0.00865   0.00000  Uiso   1.00
Cu397  Cu    0.77377   0.82772   0.24435   0.00000  Uiso   1.00
Cu398  Cu    0.89290   0.83895   0.25565   0.00000  Uiso   1.00
H399   H     0.98223   0.88956   0.09948   0.00000  Uiso   1.00
H400   H     0.76303   0.98725   0.25377   0.00000  Uiso   1.00
H401   H     0.67023   0.87228   0.28981   0.00000  Uiso   1.00
H402   H     0.99644   0.79441   0.21018   0.00000  Uiso   1.00
H403   H     0.96827   0.92634   0.43299   0.00000  Uiso   1.00
H404   H     0.67169   0.91775   0.01067   0.00000  Uiso   1.00
H405   H     0.79988   0.80221   0.08440   0.00000  Uiso   1.00
H406   H     0.72585   0.79866   0.04857   0.00000  Uiso   1.00
H407   H     0.98460   0.77300   0.49492   0.00000  Uiso   1.00
H408   H     0.88912   0.90473   0.38240   0.00000  Uiso   1.00
N409   N     0.98241   0.84741   0.26416   0.00000  Uiso   1.00
N410   N     0.68426   0.81926   0.23584   0.00000  Uiso   1.00
O411   O     0.79464   0.90474   0.24633   0.00000  Uiso   1.00
O412   O     0.89524   0.91422   0.25587   0.00000  Uiso   1.00
O413   O     0.75848   0.82627   0.31839   0.00000  Uiso   1.00
O414   O     0.85908   0.83575   0.32793   0.00000  Uiso   1.00
O415   O     0.77142   0.75245   0.24413   0.00000  Uiso   1.00
O416   O     0.87203   0.76193   0.25367   0.00000  Uiso   1.00
O417   O     0.80758   0.83092   0.17207   0.00000  Uiso   1.00
O418   O     0.90819   0.84040   0.18161   0.00000  Uiso   1.00
N419   N     0.67024   0.78306   0.39482   0.00000  Uiso   1.00
H420   H     0.98933   0.74239   0.39888   0.00000  Uiso   1.00
H421   H     0.96413   0.79922   0.40902   0.00000  Uiso   1.00
O422   O     0.92202   0.68620   0.23386   0.00000  Uiso   1.00
H423   H     0.95293   0.99670   0.22704   0.00000  Uiso   1.00
C424   C     0.18285   0.26663   0.74906   0.00000  Uiso   1.00
C425   C     0.13884   0.16783   0.98821   0.00000  Uiso   1.00
C426   C     0.15423   0.18334   0.93644   0.00000  Uiso   1.00
C427   C     0.18630   0.18063   0.51783   0.00000  Uiso   1.00
C428   C     0.24587   0.21304   0.99721   0.00000  Uiso   1.00
C429   C     0.25733   0.23305   0.94841   0.00000  Uiso   1.00
C430   C     0.21200   0.21913   0.91880   0.00000  Uiso   1.00
C431   C     0.17634   0.16218   0.56751   0.00000  Uiso   1.00
C432   C     0.28030   0.20970   0.57656   0.00000  Uiso   1.00
C433   C     0.11112   0.16323   0.90390   0.00000  Uiso   1.00
C434   C     0.19421   0.32256   0.74392   0.00000  Uiso   1.00
C435   C     0.13277   0.16522   0.84743   0.00000  Uiso   1.00
C436   C     0.14426   0.01083   0.74828   0.00000  Uiso   1.00
C437   C     0.15195   0.06664   0.74802   0.00000  Uiso   1.00
C438   C     0.20069   0.17034   0.65289   0.00000  Uiso   1.00
C439   C     0.29275   0.22639   0.52630   0.00000  Uiso   1.00
C440   C     0.22122   0.17878   0.59771   0.00000  Uiso   1.00
C441   C     0.04921   0.13595   0.92571   0.00000  Uiso   1.00
C442   C     0.03223   0.12654   0.97802   0.00000  Uiso   1.00
C443   C     0.07631   0.14106   0.50865   0.00000  Uiso   1.00
Cu444  Cu    0.10710   0.16105   0.74435   0.00000  Uiso   1.00
Cu445  Cu    0.22623   0.17228   0.75565   0.00000  Uiso   1.00
H446   H     0.31556   0.22289   0.59948   0.00000  Uiso   1.00
H447   H     0.09636   0.32058   0.75377   0.00000  Uiso   1.00
H448   H     0.00356   0.20561   0.78981   0.00000  Uiso   1.00
H449   H     0.32977   0.12774   0.71018   0.00000  Uiso   1.00
H450   H     0.30161   0.25967   0.93299   0.00000  Uiso   1.00
H451   H     0.00502   0.25109   0.51067   0.00000  Uiso   1.00
H452   H     0.13322   0.13555   0.58440   0.00000  Uiso   1.00
H453   H     0.05918   0.13199   0.54857   0.00000  Uiso   1.00
H454   H     0.31794   0.10633   0.99492   0.00000  Uiso   1.00
H455   H     0.22246   0.23806   0.88240   0.00000  Uiso   1.00
N456   N     0.31574   0.18074   0.76416   0.00000  Uiso   1.00
N457   N     0.01759   0.15259   0.73584   0.00000  Uiso   1.00
O458   O     0.12797   0.23807   0.74633   0.00000  Uiso   1.00
O459   O     0.22858   0.24755   0.75587   0.00000  Uiso   1.00
O460   O     0.09181   0.15960   0.81839   0.00000  Uiso   1.00
O461   O     0.19242   0.16908   0.82793   0.00000  Uiso   1.00
O462   O     0.10476   0.08578   0.74413   0.00000  Uiso   1.00
O463   O     0.20536   0.09526   0.75367   0.00000  Uiso   1.00
O464   O     0.14092   0.16425   0.67207   0.00000  Uiso   1.00
O465   O     0.24152   0.17373   0.68161   0.00000  Uiso   1.00
N466   N     0.00358   0.11639   0.89482   0.00000  Uiso   1.00
H467   H     0.32266   0.07573   0.89888   0.00000  Uiso   1.00
H468   H     0.29746   0.13256   0.90902   0.00000  Uiso   1.00
O469   O     0.25535   0.01954   0.73386   0.00000  Uiso   1.00
H470   H     0.28626   0.33004   0.72704   0.00000  Uiso   1.00
C471   C     0.51618   0.26663   0.74906   0.00000  Uiso   1.00
C472   C     0.47218   0.16783   0.98821   0.00000  Uiso   1.00
C473   C     0.48756   0.18334   0.93644   0.00000  Uiso   1.00
C474   C     0.51963   0.18063   0.51783   0.00000  Uiso   1.00
C475   C     0.57920   0.21304   0.99721   0.00000  Uiso   1.00
C476   C     0.59066   0.23305   0.94841   0.00000  Uiso   1.00
C477   C     0.54533   0.21913   0.91880   0.00000  Uiso   1.00
C478   C     0.50967   0.16218   0.56751   0.00000  Uiso   1.00
C479   C     0.61363   0.20970   0.57656   0.00000  Uiso   1.00
C480   C     0.44445   0.16323   0.90390   0.00000  Uiso   1.00
C481   C     0.52754   0.32256   0.74392   0.00000  Uiso   1.00
C482   C     0.46610   0.16522   0.84743   0.00000  Uiso   1.00
C483   C     0.47759   0.01083   0.74828   0.00000  Uiso   1.00
C484   C     0.48528   0.06664   0.74802   0.00000  Uiso   1.00
C485   C     0.53403   0.17034   0.65289   0.00000  Uiso   1.00
C486   C     0.62609   0.22639   0.52630   0.00000  Uiso   1.00
C487   C     0.55455   0.17878   0.59771   0.00000  Uiso   1.00
C488   C     0.38254   0.13595   0.92571   0.00000  Uiso   1.00
C489   C     0.36556   0.12654   0.97802   0.00000  Uiso   1.00
C490   C     0.40964   0.14106   0.50865   0.00000  Uiso   1.00
Cu491  Cu    0.44043   0.16105   0.74435   0.00000  Uiso   1.00
Cu492  Cu    0.55957   0.17228   0.75565   0.00000  Uiso   1.00
H493   H     0.64889   0.22289   0.59948   0.00000  Uiso   1.00
H494   H     0.42970   0.32058   0.75377   0.00000  Uiso   1.00
H495   H     0.33690   0.20561   0.78981   0.00000  Uiso   1.00
H496   H     0.66310   0.12774   0.71018   0.00000  Uiso   1.00
H497   H     0.63494   0.25967   0.93299   0.00000  Uiso   1.00
H498   H     0.33836   0.25109   0.51067   0.00000  Uiso   1.00
H499   H     0.46655   0.13555   0.58440   0.00000  Uiso   1.00
H500   H     0.39251   0.13199   0.54857   0.00000  Uiso   1.00
H501   H     0.65127   0.10633   0.99492   0.00000  Uiso   1.00
H502   H     0.55579   0.23806   0.88240   0.00000  Uiso   1.00
N503   N     0.64908   0.18074   0.76416   0.00000  Uiso   1.00
N504   N     0.35092   0.15259   0.73584   0.00000  Uiso   1.00
O505   O     0.46131   0.23807   0.74633   0.00000  Uiso   1.00
O506   O     0.56191   0.24755   0.75587   0.00000  Uiso   1.00
O507   O     0.42515   0.15960   0.81839   0.00000  Uiso   1.00
O508   O     0.52575   0.16908   0.82793   0.00000  Uiso   1.00
O509   O     0.43809   0.08578   0.74413   0.00000  Uiso   1.00
O510   O     0.53869   0.09526   0.75367   0.00000  Uiso   1.00
O511   O     0.47425   0.16425   0.67207   0.00000  Uiso   1.00
O512   O     0.57485   0.17373   0.68161   0.00000  Uiso   1.00
N513   N     0.33691   0.11639   0.89482   0.00000  Uiso   1.00
H514   H     0.65599   0.07573   0.89888   0.00000  Uiso   1.00
H515   H     0.63079   0.13256   0.90902   0.00000  Uiso   1.00
O516   O     0.58869   0.01954   0.73386   0.00000  Uiso   1.00
H517   H     0.61960   0.33004   0.72704   0.00000  Uiso   1.00
C518   C     0.84952   0.26663   0.74906   0.00000  Uiso   1.00
C519   C     0.80551   0.16783   0.98821   0.00000  Uiso   1.00
C520   C     0.82089   0.18334   0.93644   0.00000  Uiso   1.00
C521   C     0.85296   0.18063   0.51783   0.00000  Uiso   1.00
C522   C     0.91254   0.21304   0.99721   0.00000  Uiso   1.00
C523   C     0.92400   0.23305   0.94841   0.00000  Uiso   1.00
C524   C     0.87867   0.21913   0.91880   0.00000  Uiso   1.00
C525   C     0.84300   0.16218   0.56751   0.00000  Uiso   1.00
C526   C     0.94696   0.20970   0.57656   0.00000  Uiso   1.00
C527   C     0.77778   0.16323   0.90390   0.00000  Uiso   1.00
C528   C     0.86088   0.32256   0.74392   0.00000  Uiso   1.00
C529   C     0.79943   0.16522   0.84743   0.00000  Uiso   1.00
C530   C     0.81092   0.01083   0.74828   0.00000  Uiso   1.00
C531   C     0.81862   0.06664   0.74802   0.00000  Uiso   1.00
C532   C     0.86736   0.17034   0.65289   0.00000  Uiso   1.00
C533   C     0.95942   0.22639   0.52630   0.00000  Uiso   1.00
C534   C     0.88788   0.17878   0.59771   0.00000  Uiso   1.00
C535   C     0.71587   0.13595   0.92571   0.00000  Uiso   1.00
C536   C     0.69889   0.12654   0.97802   0.00000  Uiso   1.00
C537   C     0.74297   0.14106   0.50865   0.00000  Uiso   1.00
Cu538  Cu    0.77377   0.16105   0.74435   0.00000  Uiso   1.00
Cu539  Cu    0.89290   0.17228   0.75565   0.00000  Uiso   1.00
H540   H     0.98223   0.22289   0.59948   0.00000  Uiso   1.00
H541   H     0.76303   0.32058   0.75377   0.00000  Uiso   1.00
H542   H     0.67023   0.20561   0.78981   0.00000  Uiso   1.00
H543   H     0.99644   0.12774   0.71018   0.00000  Uiso   1.00
H544   H     0.96827   0.25967   0.93299   0.00000  Uiso   1.00
H545   H     0.67169   0.25109   0.51067   0.00000  Uiso   1.00
H546   H     0.79988   0.13555   0.58440   0.00000  Uiso   1.00
H547   H     0.72585   0.13199   0.54857   0.00000  Uiso   1.00
H548   H     0.98460   0.10633   0.99492   0.00000  Uiso   1.00
H549   H     0.88912   0.23806   0.88240   0.00000  Uiso   1.00
N550   N     0.98241   0.18074   0.76416   0.00000  Uiso   1.00
N551   N     0.68426   0.15259   0.73584   0.00000  Uiso   1.00
O552   O     0.79464   0.23807   0.74633   0.00000  Uiso   1.00
O553   O     0.89524   0.24755   0.75587   0.00000  Uiso   1.00
O554   O     0.75848   0.15960   0.81839   0.00000  Uiso   1.00
O555   O     0.85908   0.16908   0.82793   0.00000  Uiso   1.00
O556   O     0.77142   0.08578   0.74413   0.00000  Uiso   1.00
O557   O     0.87203   0.09526   0.75367   0.00000  Uiso   1.00
O558   O     0.80758   0.16425   0.67207   0.00000  Uiso   1.00
O559   O     0.90819   0.17373   0.68161   0.00000  Uiso   1.00
N560   N     0.67024   0.11639   0.89482   0.00000  Uiso   1.00
H561   H     0.98933   0.07573   0.89888   0.00000  Uiso   1.00
H562   H     0.96413   0.13256   0.90902   0.00000  Uiso   1.00
O563   O     0.92202   0.01954   0.73386   0.00000  Uiso   1.00
H564   H     0.95293   0.33004   0.72704   0.00000  Uiso   1.00
C565   C     0.18285   0.59997   0.74906   0.00000  Uiso   1.00
C566   C     0.13884   0.50116   0.98821   0.00000  Uiso   1.00
C567   C     0.15423   0.51667   0.93644   0.00000  Uiso   1.00
C568   C     0.18630   0.51396   0.51783   0.00000  Uiso   1.00
C569   C     0.24587   0.54638   0.99721   0.00000  Uiso   1.00
C570   C     0.25733   0.56638   0.94841   0.00000  Uiso   1.00
C571   C     0.21200   0.55246   0.91880   0.00000  Uiso   1.00
C572   C     0.17634   0.49551   0.56751   0.00000  Uiso   1.00
C573   C     0.28030   0.54303   0.57656   0.00000  Uiso   1.00
C574   C     0.11112   0.49657   0.90390   0.00000  Uiso   1.00
C575   C     0.19421   0.65589   0.74392   0.00000  Uiso   1.00
C576   C     0.13277   0.49855   0.84743   0.00000  Uiso   1.00
C577   C     0.14426   0.34417   0.74828   0.00000  Uiso   1.00
C578   C     0.15195   0.39997   0.74802   0.00000  Uiso   1.00
C579   C     0.20069   0.50367   0.65289   0.00000  Uiso   1.00
C580   C     0.29275   0.55972   0.52630   0.00000  Uiso   1.00
C581   C     0.22122   0.51211   0.59771   0.00000  Uiso   1.00
C582   C     0.04921   0.46928   0.92571   0.00000  Uiso   1.00
C583   C     0.03223   0.45988   0.97802   0.00000  Uiso   1.00
C584   C     0.07631   0.47440   0.50865   0.00000  Uiso   1.00
Cu585  Cu    0.10710   0.49439   0.74435   0.00000  Uiso   1.00
Cu586  Cu    0.22623   0.50561   0.75565   0.00000  Uiso   1.00
H587   H     0.31556   0.55623   0.59948   0.00000  Uiso   1.00
H588   H     0.09636   0.65391   0.75377   0.00000  Uiso   1.00
H589   H     0.00356   0.53895   0.78981   0.00000  Uiso   1.00
H590   H     0.32977   0.46107   0.71018   0.00000  Uiso   1.00
H591   H     0.30161   0.59301   0.93299   0.00000  Uiso   1.00
H592   H     0.00502   0.58442   0.51067   0.00000  Uiso   1.00
H593   H     0.13322   0.46888   0.58440   0.00000  Uiso   1.00
H594   H     0.05918   0.46533   0.54857   0.00000  Uiso   1.00
H595   H     0.31794   0.43967   0.99492   0.00000  Uiso   1.00
H596   H     0.22246   0.57139   0.88240   0.00000  Uiso   1.00
N597   N     0.31574   0.51407   0.76416   0.00000  Uiso   1.00
N598   N     0.01759   0.48593   0.73584   0.00000  Uiso   1.00
O599   O     0.12797   0.57141   0.74633   0.00000  Uiso   1.00
O600   O     0.22858   0.58089   0.75587   0.00000  Uiso   1.00
O601   O     0.09181   0.49293   0.81839   0.00000  Uiso   1.00
O602   O     0.19242   0.50241   0.82793   0.00000  Uiso   1.00
O603   O     0.10476   0.41911   0.74413   0.00000  Uiso   1.00
O604   O     0.20536   0.42859   0.75367   0.00000  Uiso   1.00
O605   O     0.14092   0.49759   0.67207   0.00000  Uiso   1.00
O606   O     0.24152   0.50707   0.68161   0.00000  Uiso   1.00
N607   N     0.00358   0.44973   0.89482   0.00000  Uiso   1.00
H608   H     0.32266   0.40906   0.89888   0.00000  Uiso   1.00
H609   H     0.29746   0.46589   0.90902   0.00000  Uiso   1.00
O610   O     0.25535   0.35287   0.73386   0.00000  Uiso   1.00
H611   H     0.28626   0.66337   0.72704   0.00000  Uiso   1.00
C612   C     0.51618   0.59997   0.74906   0.00000  Uiso   1.00
C613   C     0.47218   0.50116   0.98821   0.00000  Uiso   1.00
C614   C     0.48756   0.51667   0.93644   0.00000  Uiso   1.00
C615   C     0.51963   0.51396   0.51783   0.00000  Uiso   1.00
C616   C     0.57920   0.54638   0.99721   0.00000  Uiso   1.00
C617   C     0.59066   0.56638   0.94841   0.00000  Uiso   1.00
C618   C     0.54533   0.55246   0.91880   0.00000  Uiso   1.00
C619   C     0.50967   0.49551   0.56751   0.00000  Uiso   1.00
C620   C     0.61363   0.54303   0.57656   0.00000  Uiso   1.00
C621   C     0.44445   0.49657   0.90390   0.00000  Uiso   1.00
C622   C     0.52754   0.65589   0.74392   0.00000  Uiso   1.00
C623   C     0.46610   0.49855   0.84743   0.00000  Uiso   1.00
C624   C     0.47759   0.34417   0.74828   0.00000  Uiso   1.00
C625   C     0.48528   0.39997   0.74802   0.00000  Uiso   1.00
C626   C     0.53403   0.50367   0.65289   0.00000  Uiso   1.00
C627   C     0.62609   0.55972   0.52630   0.00000  Uiso   1.00
C628   C     0.55455   0.51211   0.59771   0.00000  Uiso   1.00
C629   C     0.38254   0.46928   0.92571   0.00000  Uiso   1.00
C630   C     0.36556   0.45988   0.97802   0.00000  Uiso   1.00
C631   C     0.40964   0.47440   0.50865   0.00000  Uiso   1.00
Cu632  Cu    0.44043   0.49439   0.74435   0.00000  Uiso   1.00
Cu633  Cu    0.55957   0.50561   0.75565   0.00000  Uiso   1.00
H634   H     0.64889   0.55623   0.59948   0.00000  Uiso   1.00
H635   H     0.42970   0.65391   0.75377   0.00000  Uiso   1.00
H636   H     0.33690   0.53895   0.78981   0.00000  Uiso   1.00
H637   H     0.66310   0.46107   0.71018   0.00000  Uiso   1.00
H638   H     0.63494   0.59301   0.93299   0.00000  Uiso   1.00
H639   H     0.33836   0.58442   0.51067   0.00000  Uiso   1.00
H640   H     0.46655   0.46888   0.58440   0.00000  Uiso   1.00
H641   H     0.39251   0.46533   0.54857   0.00000  Uiso   1.00
H642   H     0.65127   0.43967   0.99492   0.00000  Uiso   1.00
H643   H     0.55579   0.57139   0.88240   0.00000  Uiso   1.00
N644   N     0.64908   0.51407   0.76416   0.00000  Uiso   1.00
N645   N     0.35092   0.48593   0.73584   0.00000  Uiso   1.00
O646   O     0.46131   0.57141   0.74633   0.00000  Uiso   1.00
O647   O     0.56191   0.58089   0.75587   0.00000  Uiso   1.00
O648   O     0.42515   0.49293   0.81839   0.00000  Uiso   1.00
O649   O     0.52575   0.50241   0.82793   0.00000  Uiso   1.00
O650   O     0.43809   0.41911   0.74413   0.00000  Uiso   1.00
O651   O     0.53869   0.42859   0.75367   0.00000  Uiso   1.00
O652   O     0.47425   0.49759   0.67207   0.00000  Uiso   1.00
O653   O     0.57485   0.50707   0.68161   0.00000  Uiso   1.00
N654   N     0.33691   0.44973   0.89482   0.00000  Uiso   1.00
H655   H     0.65599   0.40906   0.89888   0.00000  Uiso   1.00
H656   H     0.63079   0.46589   0.90902   0.00000  Uiso   1.00
O657   O     0.58869   0.35287   0.73386   0.00000  Uiso   1.00
H658   H     0.61960   0.66337   0.72704   0.00000  Uiso   1.00
C659   C     0.84952   0.59997   0.74906   0.00000  Uiso   1.00
C660   C     0.80551   0.50116   0.98821   0.00000  Uiso   1.00
C661   C     0.82089   0.51667   0.93644   0.00000  Uiso   1.00
C662   C     0.85296   0.51396   0.51783   0.00000  Uiso   1.00
C663   C     0.91254   0.54638   0.99721   0.00000  Uiso   1.00
C664   C     0.92400   0.56638   0.94841   0.00000  Uiso   1.00
C665   C     0.87867   0.55246   0.91880   0.00000  Uiso   1.00
C666   C     0.84300   0.49551   0.56751   0.00000  Uiso   1.00
C667   C     0.94696   0.54303   0.57656   0.00000  Uiso   1.00
C668   C     0.77778   0.49657   0.90390   0.00000  Uiso   1.00
C669   C     0.86088   0.65589   0.74392   0.00000  Uiso   1.00
C670   C     0.79943   0.49855   0.84743   0.00000  Uiso   1.00
C671   C     0.81092   0.34417   0.74828   0.00000  Uiso   1.00
C672   C     0.81862   0.39997   0.74802   0.00000  Uiso   1.00
C673   C     0.86736   0.50367   0.65289   0.00000  Uiso   1.00
C674   C     0.95942   0.55972   0.52630   0.00000  Uiso   1.00
C675   C     0.88788   0.51211   0.59771   0.00000  Uiso   1.00
C676   C     0.71587   0.46928   0.92571   0.00000  Uiso   1.00
C677   C     0.69889   0.45988   0.97802   0.00000  Uiso   1.00
C678   C     0.74297   0.47440   0.50865   0.00000  Uiso   1.00
Cu679  Cu    0.77377   0.49439   0.74435   0.00000  Uiso   1.00
Cu680  Cu    0.89290   0.50561   0.75565   0.00000  Uiso   1.00
H681   H     0.98223   0.55623   0.59948   0.00000  Uiso   1.00
H682   H     0.76303   0.65391   0.75377   0.00000  Uiso   1.00
H683   H     0.67023   0.53895   0.78981   0.00000  Uiso   1.00
H684   H     0.99644   0.46107   0.71018   0.00000  Uiso   1.00
H685   H     0.96827   0.59301   0.93299   0.00000  Uiso   1.00
H686   H     0.67169   0.58442   0.51067   0.00000  Uiso   1.00
H687   H     0.79988   0.46888   0.58440   0.00000  Uiso   1.00
H688   H     0.72585   0.46533   0.54857   0.00000  Uiso   1.00
H689   H     0.98460   0.43967   0.99492   0.00000  Uiso   1.00
H690   H     0.88912   0.57139   0.88240   0.00000  Uiso   1.00
N691   N     0.98241   0.51407   0.76416   0.00000  Uiso   1.00
N692   N     0.68426   0.48593   0.73584   0.00000  Uiso   1.00
O693   O     0.79464   0.57141   0.74633   0.00000  Uiso   1.00
O694   O     0.89524   0.58089   0.75587   0.00000  Uiso   1.00
O695   O     0.75848   0.49293   0.81839   0.00000  Uiso   1.00
O696   O     0.85908   0.50241   0.82793   0.00000  Uiso   1.00
O697   O     0.77142   0.41911   0.74413   0.00000  Uiso   1.00
O698   O     0.87203   0.42859   0.75367   0.00000  Uiso   1.00
O699   O     0.80758   0.49759   0.67207   0.00000  Uiso   1.00
O700   O     0.90819   0.50707   0.68161   0.00000  Uiso   1.00
N701   N     0.67024   0.44973   0.89482   0.00000  Uiso   1.00
H702   H     0.98933   0.40906   0.89888   0.00000  Uiso   1.00
H703   H     0.96413   0.46589   0.90902   0.00000  Uiso   1.00
O704   O     0.92202   0.35287   0.73386   0.00000  Uiso   1.00
H705   H     0.95293   0.66337   0.72704   0.00000  Uiso   1.00
C706   C     0.18285   0.93330   0.74906   0.00000  Uiso   1.00
C707   C     0.13884   0.83450   0.98821   0.00000  Uiso   1.00
C708   C     0.15423   0.85000   0.93644   0.00000  Uiso   1.00
C709   C     0.18630   0.84729   0.51783   0.00000  Uiso   1.00
C710   C     0.24587   0.87971   0.99721   0.00000  Uiso   1.00
C711   C     0.25733   0.89971   0.94841   0.00000  Uiso   1.00
C712   C     0.21200   0.88580   0.91880   0.00000  Uiso   1.00
C713   C     0.17634   0.82884   0.56751   0.00000  Uiso   1.00
C714   C     0.28030   0.87636   0.57656   0.00000  Uiso   1.00
C715   C     0.11112   0.82990   0.90390   0.00000  Uiso   1.00
C716   C     0.19421   0.98923   0.74392   0.00000  Uiso   1.00
C717   C     0.13277   0.83189   0.84743   0.00000  Uiso   1.00
C718   C     0.14426   0.67750   0.74828   0.00000  Uiso   1.00
C719   C     0.15195   0.73331   0.74802   0.00000  Uiso   1.00
C720   C     0.20069   0.83700   0.65289   0.00000  Uiso   1.00
C721   C     0.29275   0.89305   0.52630   0.00000  Uiso   1.00
C722   C     0.22122   0.84545   0.59771   0.00000  Uiso   1.00
C723   C     0.04921   0.80262   0.92571   0.00000  Uiso   1.00
C724   C     0.03223   0.79321   0.97802   0.00000  Uiso   1.00
C725   C     0.07631   0.80773   0.50865   0.00000  Uiso   1.00
Cu726  Cu    0.10710   0.82772   0.74435   0.00000  Uiso   1.00
Cu727  Cu    0.22623   0.83895   0.75565   0.00000  Uiso   1.00
H728   H     0.31556   0.88956   0.59948   0.00000  Uiso   1.00
H729   H     0.09636   0.98725   0.75377   0.00000  Uiso   1.00
H730   H     0.00356   0.87228   0.78981   0.00000  Uiso   1.00
H731   H     0.32977   0.79441   0.71018   0.00000  Uiso   1.00
H732   H     0.30161   0.92634   0.93299   0.00000  Uiso   1.00
H733   H     0.00502   0.91775   0.51067   0.00000  Uiso   1.00
H734   H     0.13322   0.80221   0.58440   0.00000  Uiso   1.00
H735   H     0.05918   0.79866   0.54857   0.00000  Uiso   1.00
H736   H     0.31794   0.77300   0.99492   0.00000  Uiso   1.00
H737   H     0.22246   0.90473   0.88240   0.00000  Uiso   1.00
N738   N     0.31574   0.84741   0.76416   0.00000  Uiso   1.00
N739   N     0.01759   0.81926   0.73584   0.00000  Uiso   1.00
O740   O     0.12797   0.90474   0.74633   0.00000  Uiso   1.00
O741   O     0.22858   0.91422   0.75587   0.00000  Uiso   1.00
O742   O     0.09181   0.82627   0.81839   0.00000  Uiso   1.00
O743   O     0.19242   0.83575   0.82793   0.00000  Uiso   1.00
O744   O     0.10476   0.75245   0.74413   0.00000  Uiso   1.00
O745   O     0.20536   0.76193   0.75367   0.00000  Uiso   1.00
O746   O     0.14092   0.83092   0.67207   0.00000  Uiso   1.00
O747   O     0.24152   0.84040   0.68161   0.00000  Uiso   1.00
N748   N     0.00358   0.78306   0.89482   0.00000  Uiso   1.00
H749   H     0.32266   0.74239   0.89888   0.00000  Uiso   1.00
H750   H     0.29746   0.79922   0.90902   0.00000  Uiso   1.00
O751   O     0.25535   0.68620   0.73386   0.00000  Uiso   1.00
H752   H     0.28626   0.99670   0.72704   0.00000  Uiso   1.00
C753   C     0.51618   0.93330   0.74906   0.00000  Uiso   1.00
C754   C     0.47218   0.83450   0.98821   0.00000  Uiso   1.00
C755   C     0.48756   0.85000   0.93644   0.00000  Uiso   1.00
C756   C     0.51963   0.84729   0.51783   0.00000  Uiso   1.00
C757   C     0.57920   0.87971   0.99721   0.00000  Uiso   1.00
C758   C     0.59066   0.89971   0.94841   0.00000  Uiso   1.00
C759   C     0.54533   0.88580   0.91880   0.00000  Uiso   1.00
C760   C     0.50967   0.82884   0.56751   0.00000  Uiso   1.00
C761   C     0.61363   0.87636   0.57656   0.00000  Uiso   1.00
C762   C     0.44445   0.82990   0.90390   0.00000  Uiso   1.00
C763   C     0.52754   0.98923   0.74392   0.00000  Uiso   1.00
C764   C     0.46610   0.83189   0.84743   0.00000  Uiso   1.00
C765   C     0.47759   0.67750   0.74828   0.00000  Uiso   1.00
C766   C     0.48528   0.73331   0.74802   0.00000  Uiso   1.00
C767   C     0.53403   0.83700   0.65289   0.00000  Uiso   1.00
C768   C     0.62609   0.89305   0.52630   0.00000  Uiso   1.00
C769   C     0.55455   0.84545   0.59771   0.00000  Uiso   1.00
C770   C     0.38254   0.80262   0.92571   0.00000  Uiso   1.00
C771   C     0.36556   0.79321   0.97802   0.00000  Uiso   1.00
C772   C     0.40964   0.80773   0.50865   0.00000  Uiso   1.00
Cu773  Cu    0.44043   0.82772   0.74435   0.00000  Uiso   1.00
Cu774  Cu    0.55957   0.83895   0.75565   0.00000  Uiso   1.00
H775   H     0.64889   0.88956   0.59948   0.00000  Uiso   1.00
H776   H     0.42970   0.98725   0.75377   0.00000  Uiso   1.00
H777   H     0.33690   0.87228   0.78981   0.00000  Uiso   1.00
H778   H     0.66310   0.79441   0.71018   0.00000  Uiso   1.00
H779   H     0.63494   0.92634   0.93299   0.00000  Uiso   1.00
H780   H     0.33836   0.91775   0.51067   0.00000  Uiso   1.00
H781   H     0.46655   0.80221   0.58440   0.00000  Uiso   1.00
H782   H     0.39251   0.79866   0.54857   0.00000  Uiso   1.00
H783   H     0.65127   0.77300   0.99492   0.00000  Uiso   1.00
H784   H     0.55579   0.90473   0.88240   0.00000  Uiso   1.00
N785   N     0.64908   0.84741   0.76416   0.00000  Uiso   1.00
N786   N     0.35092   0.81926   0.73584   0.00000  Uiso   1.00
O787   O     0.46131   0.90474   0.74633   0.00000  Uiso   1.00
O788   O     0.56191   0.91422   0.75587   0.00000  Uiso   1.00
O789   O     0.42515   0.82627   0.81839   0.00000  Uiso   1.00
O790   O     0.52575   0.83575   0.82793   0.00000  Uiso   1.00
O791   O     0.43809   0.75245   0.74413   0.00000  Uiso   1.00
O792   O     0.53869   0.76193   0.75367   0.00000  Uiso   1.00
O793   O     0.47425   0.83092   0.67207   0.00000  Uiso   1.00
O794   O     0.57485   0.84040   0.68161   0.00000  Uiso   1.00
N795   N     0.33691   0.78306   0.89482   0.00000  Uiso   1.00
H796   H     0.65599   0.74239   0.89888   0.00000  Uiso   1.00
H797   H     0.63079   0.79922   0.90902   0.00000  Uiso   1.00
O798   O     0.58869   0.68620   0.73386   0.00000  Uiso   1.00
H799   H     0.61960   0.99670   0.72704   0.00000  Uiso   1.00
C800   C     0.84952   0.93330   0.74906   0.00000  Uiso   1.00
C801   C     0.80551   0.83450   0.98821   0.00000  Uiso   1.00
C802   C     0.82089   0.85000   0.93644   0.00000  Uiso   1.00
C803   C     0.85296   0.84729   0.51783   0.00000  Uiso   1.00
C804   C     0.91254   0.87971   0.99721   0.00000  Uiso   1.00
C805   C     0.92400   0.89971   0.94841   0.00000  Uiso   1.00
C806   C     0.87867   0.88580   0.91880   0.00000  Uiso   1.00
C807   C     0.84300   0.82884   0.56751   0.00000  Uiso   1.00
C808   C     0.94696   0.87636   0.57656   0.00000  Uiso   1.00
C809   C     0.77778   0.82990   0.90390   0.00000  Uiso   1.00
C810   C     0.86088   0.98923   0.74392   0.00000  Uiso   1.00
C811   C     0.79943   0.83189   0.84743   0.00000  Uiso   1.00
C812   C     0.81092   0.67750   0.74828   0.00000  Uiso   1.00
C813   C     0.81862   0.73331   0.74802   0.00000  Uiso   1.00
C814   C     0.86736   0.83700   0.65289   0.00000  Uiso   1.00
C815   C     0.95942   0.89305   0.52630   0.00000  Uiso   1.00
C816   C     0.88788   0.84545   0.59771   0.00000  Uiso   1.00
C817   C     0.71587   0.80262   0.92571   0.00000  Uiso   1.00
C818   C     0.69889   0.79321   0.97802   0.00000  Uiso   1.00
C819   C     0.74297   0.80773   0.50865   0.00000  Uiso   1.00
Cu820  Cu    0.77377   0.82772   0.74435   0.00000  Uiso   1.00
Cu821  Cu    0.89290   0.83895   0.75565   0.00000  Uiso   1.00
H822   H     0.98223   0.88956   0.59948   0.00000  Uiso   1.00
H823   H     0.76303   0.98725   0.75377   0.00000  Uiso   1.00
H824   H     0.67023   0.87228   0.78981   0.00000  Uiso   1.00
H825   H     0.99644   0.79441   0.71018   0.00000  Uiso   1.00
H826   H     0.96827   0.92634   0.93299   0.00000  Uiso   1.00
H827   H     0.67169   0.91775   0.51067   0.00000  Uiso   1.00
H828   H     0.79988   0.80221   0.58440   0.00000  Uiso   1.00
H829   H     0.72585   0.79866   0.54857   0.00000  Uiso   1.00
H830   H     0.98460   0.77300   0.99492   0.00000  Uiso   1.00
H831   H     0.88912   0.90473   0.88240   0.00000  Uiso   1.00
N832   N     0.98241   0.84741   0.76416   0.00000  Uiso   1.00
N833   N     0.68426   0.81926   0.73584   0.00000  Uiso   1.00
O834   O     0.79464   0.90474   0.74633   0.00000  Uiso   1.00
O835   O     0.89524   0.91422   0.75587   0.00000  Uiso   1.00
O836   O     0.75848   0.82627   0.81839   0.00000  Uiso   1.00
O837   O     0.85908   0.83575   0.82793   0.00000  Uiso   1.00
O838   O     0.77142   0.75245   0.74413   0.00000  Uiso   1.00
O839   O     0.87203   0.76193   0.75367   0.00000  Uiso   1.00
O840   O     0.80758   0.83092   0.67207   0.00000  Uiso   1.00
O841   O     0.90819   0.84040   0.68161   0.00000  Uiso   1.00
N842   N     0.67024   0.78306   0.89482   0.00000  Uiso   1.00
H843   H     0.98933   0.74239   0.89888   0.00000  Uiso   1.00
H844   H     0.96413   0.79922   0.90902   0.00000  Uiso   1.00
O845   O     0.92202   0.68620   0.73386   0.00000  Uiso   1.00
H846   H     0.95293   0.99670   0.72704   0.00000  Uiso   1.00
loop_
_geom_bond_atom_site_label_1
_geom_bond_atom_site_label_2
_geom_bond_distance
_geom_bond_site_symmetry_2
_ccdc_geom_bond_type
C1     O35     1.293   .     A
C1     O36     1.283   .     A
C1     C11     1.439   .     S
C2     C3      1.419   .     A
C2     C427    1.425   .     S
C2     C443    1.414   .     S
C3     C10     1.426   .     A
C3     C7      1.414   .     A
C4     C8      1.402   .     A
C4     C425    1.425   1_554 S
C4     C428    1.419   1_554 S
C5     C6      1.392   .     A
C5     C427    1.419   .     S
C5     C439    1.405   .     S
C6     C7      1.388   .     A
C6     H27     1.084   .     S
C7     H32     1.080   .     S
C8     C17     1.398   .     A
C8     H29     1.077   .     S
C9     C17     1.398   .     A
C9     C16     1.395   .     A
C9     H23     1.083   .     S
C10    C12     1.484   .     S
C10    C18     1.416   .     A
C11    C154    1.338   .     S
C11    O187    1.389   .     S
C12    O38     1.298   .     A
C12    O37     1.302   .     A
C13    C14     1.432   .     S
C13    C293    1.338   1_545 S
C13    H306    1.088   1_545 S
C14    O40     1.287   .     A
C14    O39     1.289   .     A
C15    O42     1.300   .     A
C15    O41     1.293   .     A
C15    C17     1.465   .     S
C16    C428    1.405   1_554 S
C16    H75     1.084   .     S
C18    C19     1.393   .     A
C18    N43     1.434   .     S
C19    C443    1.387   .     S
C19    H125    1.084   1_455 S
C20    H30     1.077   .     S
C20    C425    1.414   1_554 S
C20    C442    1.387   1_554 S
Cu21   O35     1.963   .     S
Cu21   O39     1.959   .     S
Cu21   O41     1.917   .     S
Cu21   O37     1.939   .     S
Cu21   Cu22    2.683   .     S
Cu21   N34     2.016   .     S
Cu22   O40     1.963   .     S
Cu22   O42     1.939   .     S
Cu22   O38     1.917   .     S
Cu22   N33     2.016   .     S
Cu22   O36     1.959   .     S
H24    C154    1.088   .     S
H25    N127    1.029   1_455 S
H26    N81     1.029   .     S
H28    C110    1.084   1_455 S
H31    C66     1.084   .     S
N33    H72     1.029   .     S
N33    N81     1.285   .     S
N34    N127    1.285   1_455 S
N34    H120    1.029   1_455 S
N43    H138    1.046   1_455 S
N43    H139    1.046   1_455 S
H44    N90     1.046   .     S
H45    N90     1.046   .     S
O46    C293    1.389   1_545 S
O46    H329    0.990   1_545 S
H47    O187    0.990   .     S
C48    O82     1.293   .     A
C48    O83     1.283   .     A
C48    C58     1.439   .     S
C49    C50     1.419   .     A
C49    C474    1.425   .     S
C49    C490    1.414   .     S
C50    C57     1.426   .     A
C50    C54     1.414   .     A
C51    C55     1.402   .     A
C51    C472    1.425   1_554 S
C51    C475    1.419   1_554 S
C52    C53     1.392   .     A
C52    C474    1.419   .     S
C52    C486    1.405   .     S
C53    C54     1.388   .     A
C53    H74     1.084   .     S
C54    H79     1.080   .     S
C55    C64     1.398   .     A
C55    H76     1.077   .     S
C56    C64     1.398   .     A
C56    C63     1.395   .     A
C56    H70     1.083   .     S
C57    C59     1.484   .     S
C57    C65     1.416   .     A
C58    C201    1.338   .     S
C58    O234    1.389   .     S
C59    O85     1.298   .     A
C59    O84     1.302   .     A
C60    C61     1.432   .     S
C60    C340    1.338   1_545 S
C60    H353    1.088   1_545 S
C61    O87     1.287   .     A
C61    O86     1.289   .     A
C62    O89     1.300   .     A
C62    O88     1.293   .     A
C62    C64     1.465   .     S
C63    C475    1.405   1_554 S
C63    H122    1.084   .     S
C65    C66     1.393   .     A
C65    N90     1.434   .     S
C66    C490    1.387   .     S
C67    H77     1.077   .     S
C67    C472    1.414   1_554 S
C67    C489    1.387   1_554 S
Cu68   O82     1.963   .     S
Cu68   O86     1.959   .     S
Cu68   O88     1.917   .     S
Cu68   O84     1.939   .     S
Cu68   Cu69    2.683   .     S
Cu68   N81     2.016   .     S
Cu69   O87     1.963   .     S
Cu69   O89     1.939   .     S
Cu69   O85     1.917   .     S
Cu69   N80     2.016   .     S
Cu69   O83     1.959   .     S
H71    C201    1.088   .     S
H73    N128    1.029   .     S
H78    C113    1.084   .     S
N80    H119    1.029   .     S
N80    N128    1.285   .     S
H91    N137    1.046   .     S
H92    N137    1.046   .     S
O93    C340    1.389   1_545 S
O93    H376    0.990   1_545 S
H94    O234    0.990   .     S
C95    O129    1.293   .     A
C95    O130    1.283   .     A
C95    C105    1.439   .     S
C96    C97     1.419   .     A
C96    C521    1.425   .     S
C96    C537    1.414   .     S
C97    C104    1.426   .     A
C97    C101    1.414   .     A
C98    C102    1.402   .     A
C98    C519    1.425   1_554 S
C98    C522    1.419   1_554 S
C99    C100    1.392   .     A
C99    C521    1.419   .     S
C99    C533    1.405   .     S
C100   C101    1.388   .     A
C100   H121    1.084   .     S
C101   H126    1.080   .     S
C102   C111    1.398   .     A
C102   H123    1.077   .     S
C103   C111    1.398   .     A
C103   C110    1.395   .     A
C103   H117    1.083   .     S
C104   C106    1.484   .     S
C104   C112    1.416   .     A
C105   C248    1.338   .     S
C105   O281    1.389   .     S
C106   O132    1.298   .     A
C106   O131    1.302   .     A
C107   C108    1.432   .     S
C107   C387    1.338   1_545 S
C107   H400    1.088   1_545 S
C108   O134    1.287   .     A
C108   O133    1.289   .     A
C109   O136    1.300   .     A
C109   O135    1.293   .     A
C109   C111    1.465   .     S
C110   C522    1.405   1_554 S
C110   H28     1.084   1_655 S
C112   C113    1.393   .     A
C112   N137    1.434   .     S
C113   C537    1.387   .     S
C114   H124    1.077   .     S
C114   C519    1.414   1_554 S
C114   C536    1.387   1_554 S
Cu115  O129    1.963   .     S
Cu115  O133    1.959   .     S
Cu115  O135    1.917   .     S
Cu115  O131    1.939   .     S
Cu115  Cu116   2.683   .     S
Cu115  N128    2.016   .     S
Cu116  O134    1.963   .     S
Cu116  O136    1.939   .     S
Cu116  O132    1.917   .     S
Cu116  N127    2.016   .     S
Cu116  O130    1.959   .     S
H118   C248    1.088   .     S
H120   N34     1.029   1_655 S
H125   C19     1.084   1_655 S
N127   H25     1.029   1_655 S
N127   N34     1.285   1_655 S
H138   N43     1.046   1_655 S
H139   N43     1.046   1_655 S
O140   C387    1.389   1_545 S
O140   H423    0.990   1_545 S
H141   O281    0.990   .     S
C142   O176    1.293   .     A
C142   O177    1.283   .     A
C142   C152    1.439   .     S
C143   C144    1.419   .     A
C143   C568    1.425   .     S
C143   C584    1.414   .     S
C144   C151    1.426   .     A
C144   C148    1.414   .     A
C145   C149    1.402   .     A
C145   C566    1.425   1_554 S
C145   C569    1.419   1_554 S
C146   C147    1.392   .     A
C146   C568    1.419   .     S
C146   C580    1.405   .     S
C147   C148    1.388   .     A
C147   H168    1.084   .     S
C148   H173    1.080   .     S
C149   C158    1.398   .     A
C149   H170    1.077   .     S
C150   C158    1.398   .     A
C150   C157    1.395   .     A
C150   H164    1.083   .     S
C151   C153    1.484   .     S
C151   C159    1.416   .     A
C152   C295    1.338   .     S
C152   O328    1.389   .     S
C153   O179    1.298   .     A
C153   O178    1.302   .     A
C154   C155    1.432   .     S
C155   O181    1.287   .     A
C155   O180    1.289   .     A
C156   O183    1.300   .     A
C156   O182    1.293   .     A
C156   C158    1.465   .     S
C157   C569    1.405   1_554 S
C157   H216    1.084   .     S
C159   C160    1.393   .     A
C159   N184    1.434   .     S
C160   C584    1.387   .     S
C160   H266    1.084   1_455 S
C161   H171    1.077   .     S
C161   C566    1.414   1_554 S
C161   C583    1.387   1_554 S
Cu162  O176    1.963   .     S
Cu162  O180    1.959   .     S
Cu162  O182    1.917   .     S
Cu162  O178    1.939   .     S
Cu162  Cu163   2.683   .     S
Cu162  N175    2.016   .     S
Cu163  O181    1.963   .     S
Cu163  O183    1.939   .     S
Cu163  O179    1.917   .     S
Cu163  N174    2.016   .     S
Cu163  O177    1.959   .     S
H165   C295    1.088   .     S
H166   N268    1.029   1_455 S
H167   N222    1.029   .     S
H169   C251    1.084   1_455 S
H172   C207    1.084   .     S
N174   H213    1.029   .     S
N174   N222    1.285   .     S
N175   N268    1.285   1_455 S
N175   H261    1.029   1_455 S
N184   H279    1.046   1_455 S
N184   H280    1.046   1_455 S
H185   N231    1.046   .     S
H186   N231    1.046   .     S
H188   O328    0.990   .     S
C189   O223    1.293   .     A
C189   O224    1.283   .     A
C189   C199    1.439   .     S
C190   C191    1.419   .     A
C190   C615    1.425   .     S
C190   C631    1.414   .     S
C191   C198    1.426   .     A
C191   C195    1.414   .     A
C192   C196    1.402   .     A
C192   C613    1.425   1_554 S
C192   C616    1.419   1_554 S
C193   C194    1.392   .     A
C193   C615    1.419   .     S
C193   C627    1.405   .     S
C194   C195    1.388   .     A
C194   H215    1.084   .     S
C195   H220    1.080   .     S
C196   C205    1.398   .     A
C196   H217    1.077   .     S
C197   C205    1.398   .     A
C197   C204    1.395   .     A
C197   H211    1.083   .     S
C198   C200    1.484   .     S
C198   C206    1.416   .     A
C199   C342    1.338   .     S
C199   O375    1.389   .     S
C200   O226    1.298   .     A
C200   O225    1.302   .     A
C201   C202    1.432   .     S
C202   O228    1.287   .     A
C202   O227    1.289   .     A
C203   O230    1.300   .     A
C203   O229    1.293   .     A
C203   C205    1.465   .     S
C204   C616    1.405   1_554 S
C204   H263    1.084   .     S
C206   C207    1.393   .     A
C206   N231    1.434   .     S
C207   C631    1.387   .     S
C208   H218    1.077   .     S
C208   C613    1.414   1_554 S
C208   C630    1.387   1_554 S
Cu209  O223    1.963   .     S
Cu209  O227    1.959   .     S
Cu209  O229    1.917   .     S
Cu209  O225    1.939   .     S
Cu209  Cu210   2.683   .     S
Cu209  N222    2.016   .     S
Cu210  O228    1.963   .     S
Cu210  O230    1.939   .     S
Cu210  O226    1.917   .     S
Cu210  N221    2.016   .     S
Cu210  O224    1.959   .     S
H212   C342    1.088   .     S
H214   N269    1.029   .     S
H219   C254    1.084   .     S
N221   H260    1.029   .     S
N221   N269    1.285   .     S
H232   N278    1.046   .     S
H233   N278    1.046   .     S
H235   O375    0.990   .     S
C236   O270    1.293   .     A
C236   O271    1.283   .     A
C236   C246    1.439   .     S
C237   C238    1.419   .     A
C237   C662    1.425   .     S
C237   C678    1.414   .     S
C238   C245    1.426   .     A
C238   C242    1.414   .     A
C239   C243    1.402   .     A
C239   C660    1.425   1_554 S
C239   C663    1.419   1_554 S
C240   C241    1.392   .     A
C240   C662    1.419   .     S
C240   C674    1.405   .     S
C241   C242    1.388   .     A
C241   H262    1.084   .     S
C242   H267    1.080   .     S
C243   C252    1.398   .     A
C243   H264    1.077   .     S
C244   C252    1.398   .     A
C244   C251    1.395   .     A
C244   H258    1.083   .     S
C245   C247    1.484   .     S
C245   C253    1.416   .     A
C246   C389    1.338   .     S
C246   O422    1.389   .     S
C247   O273    1.298   .     A
C247   O272    1.302   .     A
C248   C249    1.432   .     S
C249   O275    1.287   .     A
C249   O274    1.289   .     A
C250   O277    1.300   .     A
C250   O276    1.293   .     A
C250   C252    1.465   .     S
C251   C663    1.405   1_554 S
C251   H169    1.084   1_655 S
C253   C254    1.393   .     A
C253   N278    1.434   .     S
C254   C678    1.387   .     S
C255   H265    1.077   .     S
C255   C660    1.414   1_554 S
C255   C677    1.387   1_554 S
Cu256  O270    1.963   .     S
Cu256  O274    1.959   .     S
Cu256  O276    1.917   .     S
Cu256  O272    1.939   .     S
Cu256  Cu257   2.683   .     S
Cu256  N269    2.016   .     S
Cu257  O275    1.963   .     S
Cu257  O277    1.939   .     S
Cu257  O273    1.917   .     S
Cu257  N268    2.016   .     S
Cu257  O271    1.959   .     S
H259   C389    1.088   .     S
H261   N175    1.029   1_655 S
H266   C160    1.084   1_655 S
N268   H166    1.029   1_655 S
N268   N175    1.285   1_655 S
H279   N184    1.046   1_655 S
H280   N184    1.046   1_655 S
H282   O422    0.990   .     S
C283   O317    1.293   .     A
C283   O318    1.283   .     A
C283   C293    1.439   .     S
C284   C285    1.419   .     A
C284   C709    1.425   .     S
C284   C725    1.414   .     S
C285   C292    1.426   .     A
C285   C289    1.414   .     A
C286   C290    1.402   .     A
C286   C707    1.425   1_554 S
C286   C710    1.419   1_554 S
C287   C288    1.392   .     A
C287   C709    1.419   .     S
C287   C721    1.405   .     S
C288   C289    1.388   .     A
C288   H309    1.084   .     S
C289   H314    1.080   .     S
C290   C299    1.398   .     A
C290   H311    1.077   .     S
C291   C299    1.398   .     A
C291   C298    1.395   .     A
C291   H305    1.083   .     S
C292   C294    1.484   .     S
C292   C300    1.416   .     A
C293   C13     1.338   1_565 S
C293   O46     1.389   1_565 S
C294   O320    1.298   .     A
C294   O319    1.302   .     A
C295   C296    1.432   .     S
C296   O322    1.287   .     A
C296   O321    1.289   .     A
C297   O324    1.300   .     A
C297   O323    1.293   .     A
C297   C299    1.465   .     S
C298   C710    1.405   1_554 S
C298   H357    1.084   .     S
C300   C301    1.393   .     A
C300   N325    1.434   .     S
C301   C725    1.387   .     S
C301   H407    1.084   1_455 S
C302   H312    1.077   .     S
C302   C707    1.414   1_554 S
C302   C724    1.387   1_554 S
Cu303  O317    1.963   .     S
Cu303  O321    1.959   .     S
Cu303  O323    1.917   .     S
Cu303  O319    1.939   .     S
Cu303  Cu304   2.683   .     S
Cu303  N316    2.016   .     S
Cu304  O322    1.963   .     S
Cu304  O324    1.939   .     S
Cu304  O320    1.917   .     S
Cu304  N315    2.016   .     S
Cu304  O318    1.959   .     S
H306   C13     1.088   1_565 S
H307   N409    1.029   1_455 S
H308   N363    1.029   .     S
H310   C392    1.084   1_455 S
H313   C348    1.084   .     S
N315   H354    1.029   .     S
N315   N363    1.285   .     S
N316   N409    1.285   1_455 S
N316   H402    1.029   1_455 S
N325   H420    1.046   1_455 S
N325   H421    1.046   1_455 S
H326   N372    1.046   .     S
H327   N372    1.046   .     S
H329   O46     0.990   1_565 S
C330   O364    1.293   .     A
C330   O365    1.283   .     A
C330   C340    1.439   .     S
C331   C332    1.419   .     A
C331   C756    1.425   .     S
C331   C772    1.414   .     S
C332   C339    1.426   .     A
C332   C336    1.414   .     A
C333   C337    1.402   .     A
C333   C754    1.425   1_554 S
C333   C757    1.419   1_554 S
C334   C335    1.392   .     A
C334   C756    1.419   .     S
C334   C768    1.405   .     S
C335   C336    1.388   .     A
C335   H356    1.084   .     S
C336   H361    1.080   .     S
C337   C346    1.398   .     A
C337   H358    1.077   .     S
C338   C346    1.398   .     A
C338   C345    1.395   .     A
C338   H352    1.083   .     S
C339   C341    1.484   .     S
C339   C347    1.416   .     A
C340   C60     1.338   1_565 S
C340   O93     1.389   1_565 S
C341   O367    1.298   .     A
C341   O366    1.302   .     A
C342   C343    1.432   .     S
C343   O369    1.287   .     A
C343   O368    1.289   .     A
C344   O371    1.300   .     A
C344   O370    1.293   .     A
C344   C346    1.465   .     S
C345   C757    1.405   1_554 S
C345   H404    1.084   .     S
C347   C348    1.393   .     A
C347   N372    1.434   .     S
C348   C772    1.387   .     S
C349   H359    1.077   .     S
C349   C754    1.414   1_554 S
C349   C771    1.387   1_554 S
Cu350  O364    1.963   .     S
Cu350  O368    1.959   .     S
Cu350  O370    1.917   .     S
Cu350  O366    1.939   .     S
Cu350  Cu351   2.683   .     S
Cu350  N363    2.016   .     S
Cu351  O369    1.963   .     S
Cu351  O371    1.939   .     S
Cu351  O367    1.917   .     S
Cu351  N362    2.016   .     S
Cu351  O365    1.959   .     S
H353   C60     1.088   1_565 S
H355   N410    1.029   .     S
H360   C395    1.084   .     S
N362   H401    1.029   .     S
N362   N410    1.285   .     S
H373   N419    1.046   .     S
H374   N419    1.046   .     S
H376   O93     0.990   1_565 S
C377   O411    1.293   .     A
C377   O412    1.283   .     A
C377   C387    1.439   .     S
C378   C379    1.419   .     A
C378   C803    1.425   .     S
C378   C819    1.414   .     S
C379   C386    1.426   .     A
C379   C383    1.414   .     A
C380   C384    1.402   .     A
C380   C801    1.425   1_554 S
C380   C804    1.419   1_554 S
C381   C382    1.392   .     A
C381   C803    1.419   .     S
C381   C815    1.405   .     S
C382   C383    1.388   .     A
C382   H403    1.084   .     S
C383   H408    1.080   .     S
C384   C393    1.398   .     A
C384   H405    1.077   .     S
C385   C393    1.398   .     A
C385   C392    1.395   .     A
C385   H399    1.083   .     S
C386   C388    1.484   .     S
C386   C394    1.416   .     A
C387   C107    1.338   1_565 S
C387   O140    1.389   1_565 S
C388   O414    1.298   .     A
C388   O413    1.302   .     A
C389   C390    1.432   .     S
C390   O416    1.287   .     A
C390   O415    1.289   .     A
C391   O418    1.300   .     A
C391   O417    1.293   .     A
C391   C393    1.465   .     S
C392   C804    1.405   1_554 S
C392   H310    1.084   1_655 S
C394   C395    1.393   .     A
C394   N419    1.434   .     S
C395   C819    1.387   .     S
C396   H406    1.077   .     S
C396   C801    1.414   1_554 S
C396   C818    1.387   1_554 S
Cu397  O411    1.963   .     S
Cu397  O415    1.959   .     S
Cu397  O417    1.917   .     S
Cu397  O413    1.939   .     S
Cu397  Cu398   2.683   .     S
Cu397  N410    2.016   .     S
Cu398  O416    1.963   .     S
Cu398  O418    1.939   .     S
Cu398  O414    1.917   .     S
Cu398  N409    2.016   .     S
Cu398  O412    1.959   .     S
H400   C107    1.088   1_565 S
H402   N316    1.029   1_655 S
H407   C301    1.084   1_655 S
N409   H307    1.029   1_655 S
N409   N316    1.285   1_655 S
H420   N325    1.046   1_655 S
H421   N325    1.046   1_655 S
H423   O140    0.990   1_565 S
C424   O458    1.293   .     A
C424   O459    1.283   .     A
C424   C434    1.439   .     S
C425   C426    1.419   .     A
C425   C4      1.425   1_556 S
C425   C20     1.414   1_556 S
C426   C433    1.426   .     A
C426   C430    1.414   .     A
C427   C431    1.402   .     A
C428   C429    1.392   .     A
C428   C4      1.419   1_556 S
C428   C16     1.405   1_556 S
C429   C430    1.388   .     A
C429   H450    1.084   .     S
C430   H455    1.080   .     S
C431   C440    1.398   .     A
C431   H452    1.077   .     S
C432   C440    1.398   .     A
C432   C439    1.395   .     A
C432   H446    1.083   .     S
C433   C435    1.484   .     S
C433   C441    1.416   .     A
C434   C577    1.338   .     S
C434   O610    1.389   .     S
C435   O461    1.298   .     A
C435   O460    1.302   .     A
C436   C437    1.432   .     S
C436   C716    1.338   1_545 S
C436   H729    1.088   1_545 S
C437   O463    1.287   .     A
C437   O462    1.289   .     A
C438   O465    1.300   .     A
C438   O464    1.293   .     A
C438   C440    1.465   .     S
C439   H498    1.084   .     S
C441   C442    1.393   .     A
C441   N466    1.434   .     S
C442   C20     1.387   1_556 S
C442   H548    1.084   1_455 S
C443   H453    1.077   .     S
Cu444  O458    1.963   .     S
Cu444  O462    1.959   .     S
Cu444  O464    1.917   .     S
Cu444  O460    1.939   .     S
Cu444  Cu445   2.683   .     S
Cu444  N457    2.016   .     S
Cu445  O463    1.963   .     S
Cu445  O465    1.939   .     S
Cu445  O461    1.917   .     S
Cu445  N456    2.016   .     S
Cu445  O459    1.959   .     S
H447   C577    1.088   .     S
H448   N550    1.029   1_455 S
H449   N504    1.029   .     S
H451   C533    1.084   1_455 S
H454   C489    1.084   .     S
N456   H495    1.029   .     S
N456   N504    1.285   .     S
N457   N550    1.285   1_455 S
N457   H543    1.029   1_455 S
N466   H561    1.046   1_455 S
N466   H562    1.046   1_455 S
H467   N513    1.046   .     S
H468   N513    1.046   .     S
O469   C716    1.389   1_545 S
O469   H752    0.990   1_545 S
H470   O610    0.990   .     S
C471   O505    1.293   .     A
C471   O506    1.283   .     A
C471   C481    1.439   .     S
C472   C473    1.419   .     A
C472   C51     1.425   1_556 S
C472   C67     1.414   1_556 S
C473   C480    1.426   .     A
C473   C477    1.414   .     A
C474   C478    1.402   .     A
C475   C476    1.392   .     A
C475   C51     1.419   1_556 S
C475   C63     1.405   1_556 S
C476   C477    1.388   .     A
C476   H497    1.084   .     S
C477   H502    1.080   .     S
C478   C487    1.398   .     A
C478   H499    1.077   .     S
C479   C487    1.398   .     A
C479   C486    1.395   .     A
C479   H493    1.083   .     S
C480   C482    1.484   .     S
C480   C488    1.416   .     A
C481   C624    1.338   .     S
C481   O657    1.389   .     S
C482   O508    1.298   .     A
C482   O507    1.302   .     A
C483   C484    1.432   .     S
C483   C763    1.338   1_545 S
C483   H776    1.088   1_545 S
C484   O510    1.287   .     A
C484   O509    1.289   .     A
C485   O512    1.300   .     A
C485   O511    1.293   .     A
C485   C487    1.465   .     S
C486   H545    1.084   .     S
C488   C489    1.393   .     A
C488   N513    1.434   .     S
C489   C67     1.387   1_556 S
C490   H500    1.077   .     S
Cu491  O505    1.963   .     S
Cu491  O509    1.959   .     S
Cu491  O511    1.917   .     S
Cu491  O507    1.939   .     S
Cu491  Cu492   2.683   .     S
Cu491  N504    2.016   .     S
Cu492  O510    1.963   .     S
Cu492  O512    1.939   .     S
Cu492  O508    1.917   .     S
Cu492  N503    2.016   .     S
Cu492  O506    1.959   .     S
H494   C624    1.088   .     S
H496   N551    1.029   .     S
H501   C536    1.084   .     S
N503   H542    1.029   .     S
N503   N551    1.285   .     S
H514   N560    1.046   .     S
H515   N560    1.046   .     S
O516   C763    1.389   1_545 S
O516   H799    0.990   1_545 S
H517   O657    0.990   .     S
C518   O552    1.293   .     A
C518   O553    1.283   .     A
C518   C528    1.439   .     S
C519   C520    1.419   .     A
C519   C98     1.425   1_556 S
C519   C114    1.414   1_556 S
C520   C527    1.426   .     A
C520   C524    1.414   .     A
C521   C525    1.402   .     A
C522   C523    1.392   .     A
C522   C98     1.419   1_556 S
C522   C110    1.405   1_556 S
C523   C524    1.388   .     A
C523   H544    1.084   .     S
C524   H549    1.080   .     S
C525   C534    1.398   .     A
C525   H546    1.077   .     S
C526   C534    1.398   .     A
C526   C533    1.395   .     A
C526   H540    1.083   .     S
C527   C529    1.484   .     S
C527   C535    1.416   .     A
C528   C671    1.338   .     S
C528   O704    1.389   .     S
C529   O555    1.298   .     A
C529   O554    1.302   .     A
C530   C531    1.432   .     S
C530   C810    1.338   1_545 S
C530   H823    1.088   1_545 S
C531   O557    1.287   .     A
C531   O556    1.289   .     A
C532   O559    1.300   .     A
C532   O558    1.293   .     A
C532   C534    1.465   .     S
C533   H451    1.084   1_655 S
C535   C536    1.393   .     A
C535   N560    1.434   .     S
C536   C114    1.387   1_556 S
C537   H547    1.077   .     S
Cu538  O552    1.963   .     S
Cu538  O556    1.959   .     S
Cu538  O558    1.917   .     S
Cu538  O554    1.939   .     S
Cu538  Cu539   2.683   .     S
Cu538  N551    2.016   .     S
Cu539  O557    1.963   .     S
Cu539  O559    1.939   .     S
Cu539  O555    1.917   .     S
Cu539  N550    2.016   .     S
Cu539  O553    1.959   .     S
H541   C671    1.088   .     S
H543   N457    1.029   1_655 S
H548   C442    1.084   1_655 S
N550   H448    1.029   1_655 S
N550   N457    1.285   1_655 S
H561   N466    1.046   1_655 S
H562   N466    1.046   1_655 S
O563   C810    1.389   1_545 S
O563   H846    0.990   1_545 S
H564   O704    0.990   .     S
C565   O599    1.293   .     A
C565   O600    1.283   .     A
C565   C575    1.439   .     S
C566   C567    1.419   .     A
C566   C145    1.425   1_556 S
C566   C161    1.414   1_556 S
C567   C574    1.426   .     A
C567   C571    1.414   .     A
C568   C572    1.402   .     A
C569   C570    1.392   .     A
C569   C145    1.419   1_556 S
C569   C157    1.405   1_556 S
C570   C571    1.388   .     A
C570   H591    1.084   .     S
C571   H596    1.080   .     S
C572   C581    1.398   .     A
C572   H593    1.077   .     S
C573   C581    1.398   .     A
C573   C580    1.395   .     A
C573   H587    1.083   .     S
C574   C576    1.484   .     S
C574   C582    1.416   .     A
C575   C718    1.338   .     S
C575   O751    1.389   .     S
C576   O602    1.298   .     A
C576   O601    1.302   .     A
C577   C578    1.432   .     S
C578   O604    1.287   .     A
C578   O603    1.289   .     A
C579   O606    1.300   .     A
C579   O605    1.293   .     A
C579   C581    1.465   .     S
C580   H639    1.084   .     S
C582   C583    1.393   .     A
C582   N607    1.434   .     S
C583   C161    1.387   1_556 S
C583   H689    1.084   1_455 S
C584   H594    1.077   .     S
Cu585  O599    1.963   .     S
Cu585  O603    1.959   .     S
Cu585  O605    1.917   .     S
Cu585  O601    1.939   .     S
Cu585  Cu586   2.683   .     S
Cu585  N598    2.016   .     S
Cu586  O604    1.963   .     S
Cu586  O606    1.939   .     S
Cu586  O602    1.917   .     S
Cu586  N597    2.016   .     S
Cu586  O600    1.959   .     S
H588   C718    1.088   .     S
H589   N691    1.029   1_455 S
H590   N645    1.029   .     S
H592   C674    1.084   1_455 S
H595   C630    1.084   .     S
N597   H636    1.029   .     S
N597   N645    1.285   .     S
N598   N691    1.285   1_455 S
N598   H684    1.029   1_455 S
N607   H702    1.046   1_455 S
N607   H703    1.046   1_455 S
H608   N654    1.046   .     S
H609   N654    1.046   .     S
H611   O751    0.990   .     S
C612   O646    1.293   .     A
C612   O647    1.283   .     A
C612   C622    1.439   .     S
C613   C614    1.419   .     A
C613   C192    1.425   1_556 S
C613   C208    1.414   1_556 S
C614   C621    1.426   .     A
C614   C618    1.414   .     A
C615   C619    1.402   .     A
C616   C617    1.392   .     A
C616   C192    1.419   1_556 S
C616   C204    1.405   1_556 S
C617   C618    1.388   .     A
C617   H638    1.084   .     S
C618   H643    1.080   .     S
C619   C628    1.398   .     A
C619   H640    1.077   .     S
C620   C628    1.398   .     A
C620   C627    1.395   .     A
C620   H634    1.083   .     S
C621   C623    1.484   .     S
C621   C629    1.416   .     A
C622   C765    1.338   .     S
C622   O798    1.389   .     S
C623   O649    1.298   .     A
C623   O648    1.302   .     A
C624   C625    1.432   .     S
C625   O651    1.287   .     A
C625   O650    1.289   .     A
C626   O653    1.300   .     A
C626   O652    1.293   .     A
C626   C628    1.465   .     S
C627   H686    1.084   .     S
C629   C630    1.393   .     A
C629   N654    1.434   .     S
C630   C208    1.387   1_556 S
C631   H641    1.077   .     S
Cu632  O646    1.963   .     S
Cu632  O650    1.959   .     S
Cu632  O652    1.917   .     S
Cu632  O648    1.939   .     S
Cu632  Cu633   2.683   .     S
Cu632  N645    2.016   .     S
Cu633  O651    1.963   .     S
Cu633  O653    1.939   .     S
Cu633  O649    1.917   .     S
Cu633  N644    2.016   .     S
Cu633  O647    1.959   .     S
H635   C765    1.088   .     S
H637   N692    1.029   .     S
H642   C677    1.084   .     S
N644   H683    1.029   .     S
N644   N692    1.285   .     S
H655   N701    1.046   .     S
H656   N701    1.046   .     S
H658   O798    0.990   .     S
C659   O693    1.293   .     A
C659   O694    1.283   .     A
C659   C669    1.439   .     S
C660   C661    1.419   .     A
C660   C239    1.425   1_556 S
C660   C255    1.414   1_556 S
C661   C668    1.426   .     A
C661   C665    1.414   .     A
C662   C666    1.402   .     A
C663   C664    1.392   .     A
C663   C239    1.419   1_556 S
C663   C251    1.405   1_556 S
C664   C665    1.388   .     A
C664   H685    1.084   .     S
C665   H690    1.080   .     S
C666   C675    1.398   .     A
C666   H687    1.077   .     S
C667   C675    1.398   .     A
C667   C674    1.395   .     A
C667   H681    1.083   .     S
C668   C670    1.484   .     S
C668   C676    1.416   .     A
C669   C812    1.338   .     S
C669   O845    1.389   .     S
C670   O696    1.298   .     A
C670   O695    1.302   .     A
C671   C672    1.432   .     S
C672   O698    1.287   .     A
C672   O697    1.289   .     A
C673   O700    1.300   .     A
C673   O699    1.293   .     A
C673   C675    1.465   .     S
C674   H592    1.084   1_655 S
C676   C677    1.393   .     A
C676   N701    1.434   .     S
C677   C255    1.387   1_556 S
C678   H688    1.077   .     S
Cu679  O693    1.963   .     S
Cu679  O697    1.959   .     S
Cu679  O699    1.917   .     S
Cu679  O695    1.939   .     S
Cu679  Cu680   2.683   .     S
Cu679  N692    2.016   .     S
Cu680  O698    1.963   .     S
Cu680  O700    1.939   .     S
Cu680  O696    1.917   .     S
Cu680  N691    2.016   .     S
Cu680  O694    1.959   .     S
H682   C812    1.088   .     S
H684   N598    1.029   1_655 S
H689   C583    1.084   1_655 S
N691   H589    1.029   1_655 S
N691   N598    1.285   1_655 S
H702   N607    1.046   1_655 S
H703   N607    1.046   1_655 S
H705   O845    0.990   .     S
C706   O740    1.293   .     A
C706   O741    1.283   .     A
C706   C716    1.439   .     S
C707   C708    1.419   .     A
C707   C286    1.425   1_556 S
C707   C302    1.414   1_556 S
C708   C715    1.426   .     A
C708   C712    1.414   .     A
C709   C713    1.402   .     A
C710   C711    1.392   .     A
C710   C286    1.419   1_556 S
C710   C298    1.405   1_556 S
C711   C712    1.388   .     A
C711   H732    1.084   .     S
C712   H737    1.080   .     S
C713   C722    1.398   .     A
C713   H734    1.077   .     S
C714   C722    1.398   .     A
C714   C721    1.395   .     A
C714   H728    1.083   .     S
C715   C717    1.484   .     S
C715   C723    1.416   .     A
C716   C436    1.338   1_565 S
C716   O469    1.389   1_565 S
C717   O743    1.298   .     A
C717   O742    1.302   .     A
C718   C719    1.432   .     S
C719   O745    1.287   .     A
C719   O744    1.289   .     A
C720   O747    1.300   .     A
C720   O746    1.293   .     A
C720   C722    1.465   .     S
C721   H780    1.084   .     S
C723   C724    1.393   .     A
C723   N748    1.434   .     S
C724   C302    1.387   1_556 S
C724   H830    1.084   1_455 S
C725   H735    1.077   .     S
Cu726  O740    1.963   .     S
Cu726  O744    1.959   .     S
Cu726  O746    1.917   .     S
Cu726  O742    1.939   .     S
Cu726  Cu727   2.683   .     S
Cu726  N739    2.016   .     S
Cu727  O745    1.963   .     S
Cu727  O747    1.939   .     S
Cu727  O743    1.917   .     S
Cu727  N738    2.016   .     S
Cu727  O741    1.959   .     S
H729   C436    1.088   1_565 S
H730   N832    1.029   1_455 S
H731   N786    1.029   .     S
H733   C815    1.084   1_455 S
H736   C771    1.084   .     S
N738   H777    1.029   .     S
N738   N786    1.285   .     S
N739   N832    1.285   1_455 S
N739   H825    1.029   1_455 S
N748   H843    1.046   1_455 S
N748   H844    1.046   1_455 S
H749   N795    1.046   .     S
H750   N795    1.046   .     S
H752   O469    0.990   1_565 S
C753   O787    1.293   .     A
C753   O788    1.283   .     A
C753   C763    1.439   .     S
C754   C755    1.419   .     A
C754   C333    1.425   1_556 S
C754   C349    1.414   1_556 S
C755   C762    1.426   .     A
C755   C759    1.414   .     A
C756   C760    1.402   .     A
C757   C758    1.392   .     A
C757   C333    1.419   1_556 S
C757   C345    1.405   1_556 S
C758   C759    1.388   .     A
C758   H779    1.084   .     S
C759   H784    1.080   .     S
C760   C769    1.398   .     A
C760   H781    1.077   .     S
C761   C769    1.398   .     A
C761   C768    1.395   .     A
C761   H775    1.083   .     S
C762   C764    1.484   .     S
C762   C770    1.416   .     A
C763   C483    1.338   1_565 S
C763   O516    1.389   1_565 S
C764   O790    1.298   .     A
C764   O789    1.302   .     A
C765   C766    1.432   .     S
C766   O792    1.287   .     A
C766   O791    1.289   .     A
C767   O794    1.300   .     A
C767   O793    1.293   .     A
C767   C769    1.465   .     S
C768   H827    1.084   .     S
C770   C771    1.393   .     A
C770   N795    1.434   .     S
C771   C349    1.387   1_556 S
C772   H782    1.077   .     S
Cu773  O787    1.963   .     S
Cu773  O791    1.959   .     S
Cu773  O793    1.917   .     S
Cu773  O789    1.939   .     S
Cu773  Cu774   2.683   .     S
Cu773  N786    2.016   .     S
Cu774  O792    1.963   .     S
Cu774  O794    1.939   .     S
Cu774  O790    1.917   .     S
Cu774  N785    2.016   .     S
Cu774  O788    1.959   .     S
H776   C483    1.088   1_565 S
H778   N833    1.029   .     S
H783   C818    1.084   .     S
N785   H824    1.029   .     S
N785   N833    1.285   .     S
H796   N842    1.046   .     S
H797   N842    1.046   .     S
H799   O516    0.990   1_565 S
C800   O834    1.293   .     A
C800   O835    1.283   .     A
C800   C810    1.439   .     S
C801   C802    1.419   .     A
C801   C380    1.425   1_556 S
C801   C396    1.414   1_556 S
C802   C809    1.426   .     A
C802   C806    1.414   .     A
C803   C807    1.402   .     A
C804   C805    1.392   .     A
C804   C380    1.419   1_556 S
C804   C392    1.405   1_556 S
C805   C806    1.388   .     A
C805   H826    1.084   .     S
C806   H831    1.080   .     S
C807   C816    1.398   .     A
C807   H828    1.077   .     S
C808   C816    1.398   .     A
C808   C815    1.395   .     A
C808   H822    1.083   .     S
C809   C811    1.484   .     S
C809   C817    1.416   .     A
C810   C530    1.338   1_565 S
C810   O563    1.389   1_565 S
C811   O837    1.298   .     A
C811   O836    1.302   .     A
C812   C813    1.432   .     S
C813   O839    1.287   .     A
C813   O838    1.289   .     A
C814   O841    1.300   .     A
C814   O840    1.293   .     A
C814   C816    1.465   .     S
C815   H733    1.084   1_655 S
C817   C818    1.393   .     A
C817   N842    1.434   .     S
C818   C396    1.387   1_556 S
C819   H829    1.077   .     S
Cu820  O834    1.963   .     S
Cu820  O838    1.959   .     S
Cu820  O840    1.917   .     S
Cu820  O836    1.939   .     S
Cu820  Cu821   2.683   .     S
Cu820  N833    2.016   .     S
Cu821  O839    1.963   .     S
Cu821  O841    1.939   .     S
Cu821  O837    1.917   .     S
Cu821  N832    2.016   .     S
Cu821  O835    1.959   .     S
H823   C530    1.088   1_565 S
H825   N739    1.029   1_655 S
H830   C724    1.084   1_655 S
N832   H730    1.029   1_655 S
N832   N739    1.285   1_655 S
H843   N748    1.046   1_655 S
H844   N748    1.046   1_655 S
H846   O563    0.990   1_565 S
