data_str_m1_o1_o2_pcu_sym.33
_audit_creation_date              2020-01-03
_audit_creation_method            'Materials Studio'
_symmetry_space_group_name_H-M    'P1'
_symmetry_Int_Tables_number       1
_symmetry_cell_setting            triclinic
loop_
_symmetry_equiv_pos_as_xyz
  x,y,z
_cell_length_a                    36.6309
_cell_length_b                    36.6310
_cell_length_c                    34.5278
_cell_angle_alpha                 89.9584
_cell_angle_beta                  89.9582
_cell_angle_gamma                 89.9861
loop_
_atom_site_label
_atom_site_type_symbol
_atom_site_fract_x
_atom_site_fract_y
_atom_site_fract_z
_atom_site_U_iso_or_equiv
_atom_site_adp_type
_atom_site_occupancy
C1     C     0.22269   0.01956   0.04203   0.00000  Uiso   1.00
C2     C     0.02732   0.26953   0.45794   0.00000  Uiso   1.00
C3     C     0.34802   0.40198   0.75000   0.00000  Uiso   1.00
C4     C     0.40197   0.15198   0.25003   0.00000  Uiso   1.00
C5     C     0.09784   0.34837   0.74903   0.00000  Uiso   1.00
C6     C     0.34802   0.40197   0.25000   0.00000  Uiso   1.00
C7     C     0.15197   0.09802   0.75000   0.00000  Uiso   1.00
C8     C     0.09803   0.15198   0.75000   0.00000  Uiso   1.00
C9     C     0.40198   0.34803   0.25000   0.00000  Uiso   1.00
C10    C     0.15216   0.40163   0.75097   0.00000  Uiso   1.00
C11    C     0.34803   0.09802   0.24997   0.00000  Uiso   1.00
C12    C     0.40198   0.34802   0.75000   0.00000  Uiso   1.00
C13    C     0.23047   0.47268   0.54206   0.00000  Uiso   1.00
C14    C     0.09802   0.15198   0.25000   0.00000  Uiso   1.00
C15    C     0.34802   0.09803   0.74997   0.00000  Uiso   1.00
C16    C     0.15162   0.40216   0.25097   0.00000  Uiso   1.00
C17    C     0.25003   0.00002   0.10253   0.00000  Uiso   1.00
C18    C     0.24997   0.00002   0.89747   0.00000  Uiso   1.00
C19    C     0.49998   0.25003   0.10253   0.00000  Uiso   1.00
C20    C     0.49998   0.24997   0.89747   0.00000  Uiso   1.00
C21    C     0.00003   0.25001   0.60253   0.00000  Uiso   1.00
C22    C     0.49997   0.25001   0.39747   0.00000  Uiso   1.00
C23    C     0.24999   0.00002   0.60253   0.00000  Uiso   1.00
C24    C     0.23045   0.02731   0.45797   0.00000  Uiso   1.00
C25    C     0.24999   0.49997   0.39747   0.00000  Uiso   1.00
C26    C     0.02734   0.23047   0.54201   0.00000  Uiso   1.00
C27    C     0.47266   0.23048   0.45802   0.00000  Uiso   1.00
C28    C     0.26951   0.02734   0.54198   0.00000  Uiso   1.00
C29    C     0.26953   0.47266   0.45799   0.00000  Uiso   1.00
C30    C     0.22259   0.01843   0.08234   0.00000  Uiso   1.00
C31    C     0.27741   0.01843   0.91763   0.00000  Uiso   1.00
C32    C     0.48157   0.22259   0.08237   0.00000  Uiso   1.00
C33    C     0.27731   0.01956   0.95794   0.00000  Uiso   1.00
C34    C     0.48157   0.27741   0.91766   0.00000  Uiso   1.00
C35    C     0.27746   0.48162   0.08232   0.00000  Uiso   1.00
C36    C     0.22254   0.48163   0.91771   0.00000  Uiso   1.00
C37    C     0.01837   0.27746   0.08229   0.00000  Uiso   1.00
C38    C     0.01838   0.22254   0.91768   0.00000  Uiso   1.00
C39    C     0.47259   0.26842   0.58234   0.00000  Uiso   1.00
C40    C     0.02741   0.26841   0.41763   0.00000  Uiso   1.00
C41    C     0.23160   0.47258   0.58237   0.00000  Uiso   1.00
C42    C     0.23158   0.02741   0.41766   0.00000  Uiso   1.00
C43    C     0.02746   0.23160   0.58232   0.00000  Uiso   1.00
C44    C     0.48045   0.22269   0.04206   0.00000  Uiso   1.00
C45    C     0.47254   0.23162   0.41771   0.00000  Uiso   1.00
C46    C     0.26838   0.02746   0.58229   0.00000  Uiso   1.00
C47    C     0.26840   0.47254   0.41768   0.00000  Uiso   1.00
C48    C     0.25001   0.00002   0.02136   0.00000  Uiso   1.00
C49    C     0.25000   0.00002   0.97864   0.00000  Uiso   1.00
C50    C     0.49998   0.25001   0.02136   0.00000  Uiso   1.00
C51    C     0.49998   0.24999   0.97864   0.00000  Uiso   1.00
C52    C     0.00001   0.25000   0.52136   0.00000  Uiso   1.00
C53    C    -0.00000   0.25000   0.47864   0.00000  Uiso   1.00
C54    C     0.25000   0.00000   0.52136   0.00000  Uiso   1.00
C55    C     0.48044   0.27731   0.95797   0.00000  Uiso   1.00
C56    C     0.25000  -0.00000   0.47864   0.00000  Uiso   1.00
C57    C     0.25000   0.49999   0.35518   0.00000  Uiso   1.00
C58    C     0.25000   0.00001   0.64482   0.00000  Uiso   1.00
C59    C     0.49999   0.25000   0.35518   0.00000  Uiso   1.00
C60    C     0.00001   0.25000   0.64482   0.00000  Uiso   1.00
C61    C    -0.00000   0.24999   0.85518   0.00000  Uiso   1.00
C62    C    -0.00000   0.25001   0.14482   0.00000  Uiso   1.00
C63    C     0.24999   0.00000   0.85518   0.00000  Uiso   1.00
C64    C     0.25001   0.00000   0.14482   0.00000  Uiso   1.00
C65    C     0.18002   0.06998   0.25000   0.00000  Uiso   1.00
C66    C     0.27735   0.48050   0.04201   0.00000  Uiso   1.00
C67    C     0.31998   0.43002   0.75000   0.00000  Uiso   1.00
C68    C     0.43001   0.18002   0.25001   0.00000  Uiso   1.00
C69    C     0.06992   0.32012   0.74976   0.00000  Uiso   1.00
C70    C     0.31998   0.43001   0.25000   0.00000  Uiso   1.00
C71    C     0.18001   0.06998   0.75000   0.00000  Uiso   1.00
C72    C     0.07012   0.31992   0.24976   0.00000  Uiso   1.00
C73    C     0.43002   0.18001   0.75001   0.00000  Uiso   1.00
C74    C     0.18008   0.42988   0.75024   0.00000  Uiso   1.00
C75    C     0.31999   0.06998   0.24999   0.00000  Uiso   1.00
C76    C     0.43002   0.31998   0.75000   0.00000  Uiso   1.00
C77    C     0.22266   0.48050   0.95802   0.00000  Uiso   1.00
C78    C     0.06998   0.18002   0.25000   0.00000  Uiso   1.00
C79    C     0.31998   0.06999   0.74999   0.00000  Uiso   1.00
C80    C     0.17988   0.43008   0.25024   0.00000  Uiso   1.00
C81    C     0.06999   0.18002   0.75000   0.00000  Uiso   1.00
C82    C     0.43002   0.31999   0.25000   0.00000  Uiso   1.00
C83    C     0.11434   0.41208   0.25283   0.00000  Uiso   1.00
C84    C     0.38476   0.08837   0.74239   0.00000  Uiso   1.00
C85    C     0.08835   0.11522   0.25750   0.00000  Uiso   1.00
C86    C     0.41165   0.38477   0.74249   0.00000  Uiso   1.00
C87    C     0.38477   0.08835   0.25758   0.00000  Uiso   1.00
C88    C     0.01950   0.27734   0.04198   0.00000  Uiso   1.00
C89    C     0.11535   0.41238   0.74883   0.00000  Uiso   1.00
C90    C     0.41167   0.38481   0.25728   0.00000  Uiso   1.00
C91    C     0.08834   0.11522   0.74260   0.00000  Uiso   1.00
C92    C     0.11521   0.08834   0.74262   0.00000  Uiso   1.00
C93    C     0.38479   0.41167   0.25729   0.00000  Uiso   1.00
C94    C     0.08792   0.38566   0.74715   0.00000  Uiso   1.00
C95    C     0.41163   0.11523   0.25761   0.00000  Uiso   1.00
C96    C     0.38478   0.41165   0.74249   0.00000  Uiso   1.00
C97    C     0.11522   0.08835   0.25750   0.00000  Uiso   1.00
C98    C     0.41164   0.11523   0.74242   0.00000  Uiso   1.00
C99    C     0.01951   0.22266   0.95799   0.00000  Uiso   1.00
C100   C     0.08762   0.38465   0.25115   0.00000  Uiso   1.00
C101   C     0.36523   0.16163   0.75761   0.00000  Uiso   1.00
C102   C     0.13566   0.33792   0.24718   0.00000  Uiso   1.00
C103   C     0.33835   0.36522   0.75751   0.00000  Uiso   1.00
C104   C     0.16165   0.13478   0.24250   0.00000  Uiso   1.00
C105   C     0.13465   0.33762   0.75117   0.00000  Uiso   1.00
C106   C     0.36523   0.16165   0.24242   0.00000  Uiso   1.00
C107   C     0.16165   0.13478   0.75740   0.00000  Uiso   1.00
C108   C     0.33833   0.36520   0.24272   0.00000  Uiso   1.00
C109   C     0.36521   0.33833   0.24271   0.00000  Uiso   1.00
C110   C     0.47269   0.26955   0.54203   0.00000  Uiso   1.00
C111   C     0.13479   0.16166   0.75739   0.00000  Uiso   1.00
C112   C     0.33837   0.13477   0.24240   0.00000  Uiso   1.00
C113   C     0.16208   0.36434   0.75285   0.00000  Uiso   1.00
C114   C     0.13478   0.16165   0.24250   0.00000  Uiso   1.00
C115   C     0.36523   0.33835   0.75752   0.00000  Uiso   1.00
C116   C     0.16238   0.36535   0.24885   0.00000  Uiso   1.00
C117   C     0.33836   0.13477   0.75758   0.00000  Uiso   1.00
C118   C     0.09837   0.34784   0.24903   0.00000  Uiso   1.00
C119   C     0.40198   0.15196   0.75003   0.00000  Uiso   1.00
C120   C     0.15198   0.09802   0.25000   0.00000  Uiso   1.00
H121   H     0.20149   0.03302   0.09801   0.00000  Uiso   1.00
H122   H     0.04850   0.28300   0.40194   0.00000  Uiso   1.00
H123   H     0.21701   0.45149   0.59806   0.00000  Uiso   1.00
H124   H     0.21698   0.04850   0.40199   0.00000  Uiso   1.00
H125   H     0.04855   0.21701   0.59798   0.00000  Uiso   1.00
H126   H     0.45145   0.21703   0.40208   0.00000  Uiso   1.00
H127   H     0.28296   0.04855   0.59792   0.00000  Uiso   1.00
H128   H     0.28300   0.45145   0.40202   0.00000  Uiso   1.00
H129   H     0.20096   0.04284   0.99649   0.00000  Uiso   1.00
H130   H     0.29904   0.04282   0.00345   0.00000  Uiso   1.00
H131   H     0.45718   0.20097   0.99655   0.00000  Uiso   1.00
H132   H     0.29849   0.03302   0.90193   0.00000  Uiso   1.00
H133   H     0.45717   0.29904   0.00351   0.00000  Uiso   1.00
H134   H     0.29906   0.45724   0.99645   0.00000  Uiso   1.00
H135   H     0.20096   0.45724   0.00362   0.00000  Uiso   1.00
H136   H     0.04276   0.29905   0.99638   0.00000  Uiso   1.00
H137   H     0.04277   0.20095   0.00355   0.00000  Uiso   1.00
H138   H     0.45097   0.29283   0.49648   0.00000  Uiso   1.00
H139   H     0.04905   0.29278   0.50346   0.00000  Uiso   1.00
H140   H     0.20722   0.45095   0.49655   0.00000  Uiso   1.00
H141   H     0.20718   0.04904   0.50352   0.00000  Uiso   1.00
H142   H     0.04905   0.20720   0.49646   0.00000  Uiso   1.00
H143   H     0.46699   0.20150   0.09806   0.00000  Uiso   1.00
H144   H     0.45096   0.20722   0.50361   0.00000  Uiso   1.00
H145   H     0.29278   0.04905   0.49639   0.00000  Uiso   1.00
H146   H     0.29281   0.45096   0.50354   0.00000  Uiso   1.00
H147   H     0.12266   0.46222   0.26991   0.00000  Uiso   1.00
H148   H     0.37453   0.03845   0.72507   0.00000  Uiso   1.00
H149   H     0.03839   0.12542   0.27480   0.00000  Uiso   1.00
H150   H     0.46160   0.37457   0.72519   0.00000  Uiso   1.00
H151   H     0.37453   0.03837   0.27479   0.00000  Uiso   1.00
H152   H     0.08065   0.45320   0.74635   0.00000  Uiso   1.00
H153   H     0.46167   0.37468   0.27442   0.00000  Uiso   1.00
H154   H     0.46697   0.29850   0.90199   0.00000  Uiso   1.00
H155   H     0.03840   0.12542   0.72533   0.00000  Uiso   1.00
H156   H     0.12537   0.03834   0.72550   0.00000  Uiso   1.00
H157   H     0.37464   0.46161   0.27457   0.00000  Uiso   1.00
H158   H     0.03778   0.37733   0.73006   0.00000  Uiso   1.00
H159   H     0.46155   0.12547   0.27492   0.00000  Uiso   1.00
H160   H     0.37457   0.46161   0.72520   0.00000  Uiso   1.00
H161   H     0.12542   0.03839   0.27480   0.00000  Uiso   1.00
H162   H     0.46162   0.12547   0.72521   0.00000  Uiso   1.00
H163   H     0.04680   0.41935   0.25362   0.00000  Uiso   1.00
H164   H     0.37547   0.21155   0.77492   0.00000  Uiso   1.00
H165   H     0.29856   0.46703   0.09797   0.00000  Uiso   1.00
H166   H     0.12734   0.28779   0.23006   0.00000  Uiso   1.00
H167   H     0.28839   0.37543   0.77480   0.00000  Uiso   1.00
H168   H     0.21161   0.12458   0.22520   0.00000  Uiso   1.00
H169   H     0.16935   0.29680   0.75366   0.00000  Uiso   1.00
H170   H     0.37547   0.21163   0.22520   0.00000  Uiso   1.00
H171   H     0.21160   0.12459   0.77466   0.00000  Uiso   1.00
H172   H     0.28833   0.37532   0.22557   0.00000  Uiso   1.00
H173   H     0.37536   0.28839   0.22543   0.00000  Uiso   1.00
H174   H     0.12462   0.21166   0.77451   0.00000  Uiso   1.00
H175   H     0.28844   0.12453   0.22509   0.00000  Uiso   1.00
H176   H     0.20145   0.46703   0.90208   0.00000  Uiso   1.00
H177   H     0.21222   0.37267   0.76995   0.00000  Uiso   1.00
H178   H     0.12458   0.21161   0.22521   0.00000  Uiso   1.00
H179   H     0.37543   0.28840   0.77481   0.00000  Uiso   1.00
H180   H     0.20319   0.33065   0.24642   0.00000  Uiso   1.00
H181   H     0.28838   0.12453   0.77480   0.00000  Uiso   1.00
H182   H     0.03296   0.29855   0.09792   0.00000  Uiso   1.00
H183   H     0.03298   0.20144   0.90203   0.00000  Uiso   1.00
H184   H     0.45150   0.28302   0.59801   0.00000  Uiso   1.00
O185   O     0.25000   0.00000   0.25000   0.00000  Uiso   1.00
O186   O     0.25000   0.46964   0.66317   0.00000  Uiso   1.00
O187   O     0.30314   0.14570   0.76645   0.00000  Uiso   1.00
O188   O     0.46964   0.25000   0.33683   0.00000  Uiso   1.00
O189   O     0.03036   0.25000   0.66317   0.00000  Uiso   1.00
O190   O    -0.00000   0.21964   0.83683   0.00000  Uiso   1.00
O191   O    -0.00000   0.28036   0.16317   0.00000  Uiso   1.00
O192   O     0.28036   0.00000   0.83683   0.00000  Uiso   1.00
O193   O     0.21964   0.00000   0.16317   0.00000  Uiso   1.00
O194   O    -0.00000   0.28036   0.83683   0.00000  Uiso   1.00
O195   O    -0.00000   0.21964   0.16317   0.00000  Uiso   1.00
O196   O     0.21964   0.00000   0.83683   0.00000  Uiso   1.00
O197   O     0.25000   0.00000   0.75000   0.00000  Uiso   1.00
O198   O     0.28036   0.00000   0.16317   0.00000  Uiso   1.00
O199   O     0.20725   0.07307   0.27282   0.00000  Uiso   1.00
O200   O     0.29274   0.42693   0.72718   0.00000  Uiso   1.00
O201   O     0.42693   0.20725   0.27282   0.00000  Uiso   1.00
O202   O     0.07307   0.29275   0.72718   0.00000  Uiso   1.00
O203   O     0.29274   0.42693   0.27282   0.00000  Uiso   1.00
O204   O     0.20725   0.07307   0.72718   0.00000  Uiso   1.00
O205   O     0.07307   0.29275   0.27282   0.00000  Uiso   1.00
O206   O     0.42693   0.20725   0.72718   0.00000  Uiso   1.00
O207   O     0.20725   0.42693   0.72718   0.00000  Uiso   1.00
O208   O     0.00000   0.25000   0.25000   0.00000  Uiso   1.00
O209   O     0.29274   0.07307   0.27282   0.00000  Uiso   1.00
O210   O     0.42693   0.29274   0.72718   0.00000  Uiso   1.00
O211   O     0.07307   0.20726   0.27282   0.00000  Uiso   1.00
O212   O     0.29274   0.07307   0.72718   0.00000  Uiso   1.00
O213   O     0.20725   0.42693   0.27282   0.00000  Uiso   1.00
O214   O     0.07307   0.20726   0.72718   0.00000  Uiso   1.00
O215   O     0.42693   0.29274   0.27282   0.00000  Uiso   1.00
O216   O     0.45725   0.32307   0.77282   0.00000  Uiso   1.00
O217   O     0.04274   0.17693   0.22718   0.00000  Uiso   1.00
O218   O     0.17693   0.45726   0.77282   0.00000  Uiso   1.00
O219   O     0.00000   0.25000   0.75000   0.00000  Uiso   1.00
O220   O     0.32307   0.04274   0.22718   0.00000  Uiso   1.00
O221   O     0.04274   0.17693   0.77282   0.00000  Uiso   1.00
O222   O     0.45725   0.32307   0.22718   0.00000  Uiso   1.00
O223   O     0.32307   0.04274   0.77282   0.00000  Uiso   1.00
O224   O     0.17693   0.45726   0.22718   0.00000  Uiso   1.00
O225   O     0.45725   0.17693   0.22718   0.00000  Uiso   1.00
O226   O     0.04274   0.32307   0.77282   0.00000  Uiso   1.00
O227   O     0.17693   0.04274   0.22718   0.00000  Uiso   1.00
O228   O     0.32307   0.45726   0.77282   0.00000  Uiso   1.00
O229   O     0.04274   0.32307   0.22718   0.00000  Uiso   1.00
O230   O     0.25000   0.46964   0.33683   0.00000  Uiso   1.00
O231   O     0.45725   0.17693   0.77282   0.00000  Uiso   1.00
O232   O     0.32307   0.45726   0.22718   0.00000  Uiso   1.00
O233   O     0.17693   0.04274   0.77282   0.00000  Uiso   1.00
O234   O     0.19566   0.04001   0.02439   0.00000  Uiso   1.00
O235   O     0.30432   0.04000   0.97554   0.00000  Uiso   1.00
O236   O     0.46000   0.19567   0.02445   0.00000  Uiso   1.00
O237   O     0.45999   0.30434   0.97561   0.00000  Uiso   1.00
O238   O     0.30436   0.46005   0.02434   0.00000  Uiso   1.00
O239   O     0.19566   0.46005   0.97572   0.00000  Uiso   1.00
O240   O     0.03994   0.30435   0.02428   0.00000  Uiso   1.00
O241   O     0.25000   0.03036   0.66317   0.00000  Uiso   1.00
O242   O     0.03996   0.19565   0.97566   0.00000  Uiso   1.00
O243   O     0.44567   0.29000   0.52439   0.00000  Uiso   1.00
O244   O     0.05434   0.28997   0.47555   0.00000  Uiso   1.00
O245   O     0.21004   0.44566   0.52445   0.00000  Uiso   1.00
O246   O     0.21000   0.05433   0.47561   0.00000  Uiso   1.00
O247   O     0.05435   0.21002   0.52435   0.00000  Uiso   1.00
O248   O     0.44565   0.21005   0.47571   0.00000  Uiso   1.00
O249   O     0.28995   0.05435   0.52429   0.00000  Uiso   1.00
O250   O     0.28999   0.44565   0.47565   0.00000  Uiso   1.00
O251   O     0.10314   0.44792   0.25722   0.00000  Uiso   1.00
O252   O     0.03036   0.25000   0.33683   0.00000  Uiso   1.00
O253   O     0.39569   0.05317   0.73350   0.00000  Uiso   1.00
O254   O     0.05312   0.10428   0.26628   0.00000  Uiso   1.00
O255   O     0.44687   0.39571   0.73369   0.00000  Uiso   1.00
O256   O     0.39571   0.05313   0.26643   0.00000  Uiso   1.00
O257   O     0.10738   0.44931   0.74664   0.00000  Uiso   1.00
O258   O     0.44692   0.39578   0.26584   0.00000  Uiso   1.00
O259   O     0.05311   0.10429   0.73391   0.00000  Uiso   1.00
O260   O     0.10425   0.05311   0.73395   0.00000  Uiso   1.00
O261   O     0.39574   0.44692   0.26588   0.00000  Uiso   1.00
O262   O     0.05208   0.39686   0.74274   0.00000  Uiso   1.00
O263   O     0.46964   0.25000   0.66317   0.00000  Uiso   1.00
O264   O     0.44684   0.10430   0.26649   0.00000  Uiso   1.00
O265   O     0.39571   0.44687   0.73369   0.00000  Uiso   1.00
O266   O     0.10428   0.05312   0.26628   0.00000  Uiso   1.00
O267   O     0.44686   0.10430   0.73355   0.00000  Uiso   1.00
O268   O     0.05069   0.39262   0.25333   0.00000  Uiso   1.00
O269   O     0.35431   0.19683   0.76650   0.00000  Uiso   1.00
O270   O     0.14686   0.30208   0.24278   0.00000  Uiso   1.00
O271   O     0.30313   0.35429   0.76631   0.00000  Uiso   1.00
O272   O     0.19688   0.14571   0.23371   0.00000  Uiso   1.00
O273   O     0.14262   0.30069   0.75337   0.00000  Uiso   1.00
O274   O     0.25000   0.03036   0.33683   0.00000  Uiso   1.00
O275   O     0.35429   0.19687   0.23356   0.00000  Uiso   1.00
O276   O     0.19689   0.14571   0.76609   0.00000  Uiso   1.00
O277   O     0.30308   0.35423   0.23415   0.00000  Uiso   1.00
O278   O     0.35426   0.30308   0.23412   0.00000  Uiso   1.00
O279   O     0.14575   0.19689   0.76605   0.00000  Uiso   1.00
O280   O     0.30316   0.14570   0.23352   0.00000  Uiso   1.00
O281   O     0.19792   0.35314   0.75726   0.00000  Uiso   1.00
O282   O     0.14572   0.19688   0.23372   0.00000  Uiso   1.00
O283   O     0.35429   0.30313   0.76632   0.00000  Uiso   1.00
O284   O     0.19931   0.35738   0.24668   0.00000  Uiso   1.00
Zn285  Zn    0.20660   0.00000   0.21760   0.00000  Uiso   1.00
Zn286  Zn    0.04340   0.25000   0.28240   0.00000  Uiso   1.00
Zn287  Zn    0.25000   0.45660   0.71760   0.00000  Uiso   1.00
Zn288  Zn    0.25000   0.04340   0.28240   0.00000  Uiso   1.00
Zn289  Zn    0.04340   0.25000   0.71760   0.00000  Uiso   1.00
Zn290  Zn    0.45660   0.25000   0.28240   0.00000  Uiso   1.00
Zn291  Zn    0.25000   0.04340   0.71760   0.00000  Uiso   1.00
Zn292  Zn    0.25000   0.45660   0.28240   0.00000  Uiso   1.00
Zn293  Zn    0.29340   0.00000   0.78240   0.00000  Uiso   1.00
Zn294  Zn   -0.00000   0.20660   0.21760   0.00000  Uiso   1.00
Zn295  Zn   -0.00000   0.29340   0.78240   0.00000  Uiso   1.00
Zn296  Zn    0.29340   0.00000   0.21760   0.00000  Uiso   1.00
Zn297  Zn    0.20660   0.00000   0.78240   0.00000  Uiso   1.00
Zn298  Zn    0.00000   0.29340   0.21760   0.00000  Uiso   1.00
Zn299  Zn   -0.00000   0.20660   0.78240   0.00000  Uiso   1.00
Zn300  Zn    0.45660   0.25000   0.71760   0.00000  Uiso   1.00
C301   C     0.72269   0.01956   0.04203   0.00000  Uiso   1.00
C302   C     0.52732   0.26953   0.45794   0.00000  Uiso   1.00
C303   C     0.84802   0.40198   0.75000   0.00000  Uiso   1.00
C304   C     0.90197   0.15198   0.25003   0.00000  Uiso   1.00
C305   C     0.59784   0.34837   0.74903   0.00000  Uiso   1.00
C306   C     0.84802   0.40197   0.25000   0.00000  Uiso   1.00
C307   C     0.65197   0.09802   0.75000   0.00000  Uiso   1.00
C308   C     0.59803   0.15198   0.75000   0.00000  Uiso   1.00
C309   C     0.90198   0.34803   0.25000   0.00000  Uiso   1.00
C310   C     0.65216   0.40163   0.75097   0.00000  Uiso   1.00
C311   C     0.84803   0.09802   0.24997   0.00000  Uiso   1.00
C312   C     0.90198   0.34802   0.75000   0.00000  Uiso   1.00
C313   C     0.73047   0.47268   0.54206   0.00000  Uiso   1.00
C314   C     0.59802   0.15198   0.25000   0.00000  Uiso   1.00
C315   C     0.84802   0.09803   0.74997   0.00000  Uiso   1.00
C316   C     0.65162   0.40216   0.25097   0.00000  Uiso   1.00
C317   C     0.75003   0.00002   0.10253   0.00000  Uiso   1.00
C318   C     0.74997   0.00002   0.89747   0.00000  Uiso   1.00
C319   C     0.99998   0.25003   0.10253   0.00000  Uiso   1.00
C320   C     0.99998   0.24997   0.89747   0.00000  Uiso   1.00
C321   C     0.50003   0.25001   0.60253   0.00000  Uiso   1.00
C322   C     0.99997   0.25001   0.39747   0.00000  Uiso   1.00
C323   C     0.74999   0.00002   0.60253   0.00000  Uiso   1.00
C324   C     0.73045   0.02731   0.45797   0.00000  Uiso   1.00
C325   C     0.74999   0.49997   0.39747   0.00000  Uiso   1.00
C326   C     0.52734   0.23047   0.54201   0.00000  Uiso   1.00
C327   C     0.97266   0.23048   0.45802   0.00000  Uiso   1.00
C328   C     0.76951   0.02734   0.54198   0.00000  Uiso   1.00
C329   C     0.76953   0.47266   0.45799   0.00000  Uiso   1.00
C330   C     0.72259   0.01843   0.08234   0.00000  Uiso   1.00
C331   C     0.77741   0.01843   0.91763   0.00000  Uiso   1.00
C332   C     0.98157   0.22259   0.08237   0.00000  Uiso   1.00
C333   C     0.77731   0.01956   0.95794   0.00000  Uiso   1.00
C334   C     0.98157   0.27741   0.91766   0.00000  Uiso   1.00
C335   C     0.77746   0.48162   0.08232   0.00000  Uiso   1.00
C336   C     0.72254   0.48163   0.91771   0.00000  Uiso   1.00
C337   C     0.51837   0.27746   0.08229   0.00000  Uiso   1.00
C338   C     0.51838   0.22254   0.91768   0.00000  Uiso   1.00
C339   C     0.97259   0.26842   0.58234   0.00000  Uiso   1.00
C340   C     0.52741   0.26841   0.41763   0.00000  Uiso   1.00
C341   C     0.73160   0.47258   0.58237   0.00000  Uiso   1.00
C342   C     0.73158   0.02741   0.41766   0.00000  Uiso   1.00
C343   C     0.52746   0.23160   0.58232   0.00000  Uiso   1.00
C344   C     0.98045   0.22269   0.04206   0.00000  Uiso   1.00
C345   C     0.97254   0.23162   0.41771   0.00000  Uiso   1.00
C346   C     0.76838   0.02746   0.58229   0.00000  Uiso   1.00
C347   C     0.76840   0.47254   0.41768   0.00000  Uiso   1.00
C348   C     0.75001   0.00002   0.02136   0.00000  Uiso   1.00
C349   C     0.75000   0.00002   0.97864   0.00000  Uiso   1.00
C350   C     0.99998   0.25001   0.02136   0.00000  Uiso   1.00
C351   C     0.99998   0.24999   0.97864   0.00000  Uiso   1.00
C352   C     0.50001   0.25000   0.52136   0.00000  Uiso   1.00
C353   C     0.50000   0.25000   0.47864   0.00000  Uiso   1.00
C354   C     0.75000   0.00000   0.52136   0.00000  Uiso   1.00
C355   C     0.98044   0.27731   0.95797   0.00000  Uiso   1.00
C356   C     0.75000  -0.00000   0.47864   0.00000  Uiso   1.00
C357   C     0.75000   0.49999   0.35518   0.00000  Uiso   1.00
C358   C     0.75000   0.00001   0.64482   0.00000  Uiso   1.00
C359   C     0.99999   0.25000   0.35518   0.00000  Uiso   1.00
C360   C     0.50001   0.25000   0.64482   0.00000  Uiso   1.00
C361   C     0.50000   0.24999   0.85518   0.00000  Uiso   1.00
C362   C     0.50000   0.25001   0.14482   0.00000  Uiso   1.00
C363   C     0.74999   0.00000   0.85518   0.00000  Uiso   1.00
C364   C     0.75001   0.00000   0.14482   0.00000  Uiso   1.00
C365   C     0.68002   0.06998   0.25000   0.00000  Uiso   1.00
C366   C     0.77735   0.48050   0.04201   0.00000  Uiso   1.00
C367   C     0.81998   0.43002   0.75000   0.00000  Uiso   1.00
C368   C     0.93001   0.18002   0.25001   0.00000  Uiso   1.00
C369   C     0.56992   0.32012   0.74976   0.00000  Uiso   1.00
C370   C     0.81998   0.43001   0.25000   0.00000  Uiso   1.00
C371   C     0.68001   0.06998   0.75000   0.00000  Uiso   1.00
C372   C     0.57012   0.31992   0.24976   0.00000  Uiso   1.00
C373   C     0.93002   0.18001   0.75001   0.00000  Uiso   1.00
C374   C     0.68008   0.42988   0.75024   0.00000  Uiso   1.00
C375   C     0.81999   0.06998   0.24999   0.00000  Uiso   1.00
C376   C     0.93002   0.31998   0.75000   0.00000  Uiso   1.00
C377   C     0.72266   0.48050   0.95802   0.00000  Uiso   1.00
C378   C     0.56998   0.18002   0.25000   0.00000  Uiso   1.00
C379   C     0.81998   0.06999   0.74999   0.00000  Uiso   1.00
C380   C     0.67988   0.43008   0.25024   0.00000  Uiso   1.00
C381   C     0.56999   0.18002   0.75000   0.00000  Uiso   1.00
C382   C     0.93002   0.31999   0.25000   0.00000  Uiso   1.00
C383   C     0.61434   0.41208   0.25283   0.00000  Uiso   1.00
C384   C     0.88476   0.08837   0.74239   0.00000  Uiso   1.00
C385   C     0.58835   0.11522   0.25750   0.00000  Uiso   1.00
C386   C     0.91165   0.38477   0.74249   0.00000  Uiso   1.00
C387   C     0.88477   0.08835   0.25758   0.00000  Uiso   1.00
C388   C     0.51950   0.27734   0.04198   0.00000  Uiso   1.00
C389   C     0.61535   0.41238   0.74883   0.00000  Uiso   1.00
C390   C     0.91167   0.38481   0.25728   0.00000  Uiso   1.00
C391   C     0.58834   0.11522   0.74260   0.00000  Uiso   1.00
C392   C     0.61521   0.08834   0.74262   0.00000  Uiso   1.00
C393   C     0.88479   0.41167   0.25729   0.00000  Uiso   1.00
C394   C     0.58792   0.38566   0.74715   0.00000  Uiso   1.00
C395   C     0.91163   0.11523   0.25761   0.00000  Uiso   1.00
C396   C     0.88478   0.41165   0.74249   0.00000  Uiso   1.00
C397   C     0.61522   0.08835   0.25750   0.00000  Uiso   1.00
C398   C     0.91164   0.11523   0.74242   0.00000  Uiso   1.00
C399   C     0.51951   0.22266   0.95799   0.00000  Uiso   1.00
C400   C     0.58762   0.38465   0.25115   0.00000  Uiso   1.00
C401   C     0.86523   0.16163   0.75761   0.00000  Uiso   1.00
C402   C     0.63566   0.33792   0.24718   0.00000  Uiso   1.00
C403   C     0.83835   0.36522   0.75751   0.00000  Uiso   1.00
C404   C     0.66165   0.13478   0.24250   0.00000  Uiso   1.00
C405   C     0.63465   0.33762   0.75117   0.00000  Uiso   1.00
C406   C     0.86523   0.16165   0.24242   0.00000  Uiso   1.00
C407   C     0.66165   0.13478   0.75740   0.00000  Uiso   1.00
C408   C     0.83833   0.36520   0.24272   0.00000  Uiso   1.00
C409   C     0.86521   0.33833   0.24271   0.00000  Uiso   1.00
C410   C     0.97269   0.26955   0.54203   0.00000  Uiso   1.00
C411   C     0.63479   0.16166   0.75739   0.00000  Uiso   1.00
C412   C     0.83837   0.13477   0.24240   0.00000  Uiso   1.00
C413   C     0.66208   0.36434   0.75285   0.00000  Uiso   1.00
C414   C     0.63478   0.16165   0.24250   0.00000  Uiso   1.00
C415   C     0.86523   0.33835   0.75752   0.00000  Uiso   1.00
C416   C     0.66238   0.36535   0.24885   0.00000  Uiso   1.00
C417   C     0.83836   0.13477   0.75758   0.00000  Uiso   1.00
C418   C     0.59837   0.34784   0.24903   0.00000  Uiso   1.00
C419   C     0.90198   0.15196   0.75003   0.00000  Uiso   1.00
C420   C     0.65198   0.09802   0.25000   0.00000  Uiso   1.00
H421   H     0.70149   0.03302   0.09801   0.00000  Uiso   1.00
H422   H     0.54850   0.28300   0.40194   0.00000  Uiso   1.00
H423   H     0.71701   0.45149   0.59806   0.00000  Uiso   1.00
H424   H     0.71698   0.04850   0.40199   0.00000  Uiso   1.00
H425   H     0.54855   0.21701   0.59798   0.00000  Uiso   1.00
H426   H     0.95145   0.21703   0.40208   0.00000  Uiso   1.00
H427   H     0.78296   0.04855   0.59792   0.00000  Uiso   1.00
H428   H     0.78300   0.45145   0.40202   0.00000  Uiso   1.00
H429   H     0.70096   0.04284   0.99649   0.00000  Uiso   1.00
H430   H     0.79904   0.04282   0.00345   0.00000  Uiso   1.00
H431   H     0.95718   0.20097   0.99655   0.00000  Uiso   1.00
H432   H     0.79849   0.03302   0.90193   0.00000  Uiso   1.00
H433   H     0.95717   0.29904   0.00351   0.00000  Uiso   1.00
H434   H     0.79906   0.45724   0.99645   0.00000  Uiso   1.00
H435   H     0.70096   0.45724   0.00362   0.00000  Uiso   1.00
H436   H     0.54276   0.29905   0.99638   0.00000  Uiso   1.00
H437   H     0.54277   0.20095   0.00355   0.00000  Uiso   1.00
H438   H     0.95097   0.29283   0.49648   0.00000  Uiso   1.00
H439   H     0.54905   0.29278   0.50346   0.00000  Uiso   1.00
H440   H     0.70722   0.45095   0.49655   0.00000  Uiso   1.00
H441   H     0.70718   0.04904   0.50352   0.00000  Uiso   1.00
H442   H     0.54905   0.20720   0.49646   0.00000  Uiso   1.00
H443   H     0.96699   0.20150   0.09806   0.00000  Uiso   1.00
H444   H     0.95096   0.20722   0.50361   0.00000  Uiso   1.00
H445   H     0.79278   0.04905   0.49639   0.00000  Uiso   1.00
H446   H     0.79281   0.45096   0.50354   0.00000  Uiso   1.00
H447   H     0.62266   0.46222   0.26991   0.00000  Uiso   1.00
H448   H     0.87453   0.03845   0.72507   0.00000  Uiso   1.00
H449   H     0.53839   0.12542   0.27480   0.00000  Uiso   1.00
H450   H     0.96160   0.37457   0.72519   0.00000  Uiso   1.00
H451   H     0.87453   0.03837   0.27479   0.00000  Uiso   1.00
H452   H     0.58065   0.45320   0.74635   0.00000  Uiso   1.00
H453   H     0.96167   0.37468   0.27442   0.00000  Uiso   1.00
H454   H     0.96697   0.29850   0.90199   0.00000  Uiso   1.00
H455   H     0.53840   0.12542   0.72533   0.00000  Uiso   1.00
H456   H     0.62537   0.03834   0.72550   0.00000  Uiso   1.00
H457   H     0.87464   0.46161   0.27457   0.00000  Uiso   1.00
H458   H     0.53778   0.37733   0.73006   0.00000  Uiso   1.00
H459   H     0.96155   0.12547   0.27492   0.00000  Uiso   1.00
H460   H     0.87457   0.46161   0.72520   0.00000  Uiso   1.00
H461   H     0.62542   0.03839   0.27480   0.00000  Uiso   1.00
H462   H     0.96162   0.12547   0.72521   0.00000  Uiso   1.00
H463   H     0.54680   0.41935   0.25362   0.00000  Uiso   1.00
H464   H     0.87547   0.21155   0.77492   0.00000  Uiso   1.00
H465   H     0.79856   0.46703   0.09797   0.00000  Uiso   1.00
H466   H     0.62734   0.28779   0.23006   0.00000  Uiso   1.00
H467   H     0.78839   0.37543   0.77480   0.00000  Uiso   1.00
H468   H     0.71161   0.12458   0.22520   0.00000  Uiso   1.00
H469   H     0.66935   0.29680   0.75366   0.00000  Uiso   1.00
H470   H     0.87547   0.21163   0.22520   0.00000  Uiso   1.00
H471   H     0.71160   0.12459   0.77466   0.00000  Uiso   1.00
H472   H     0.78833   0.37532   0.22557   0.00000  Uiso   1.00
H473   H     0.87536   0.28839   0.22543   0.00000  Uiso   1.00
H474   H     0.62462   0.21166   0.77451   0.00000  Uiso   1.00
H475   H     0.78844   0.12453   0.22509   0.00000  Uiso   1.00
H476   H     0.70145   0.46703   0.90208   0.00000  Uiso   1.00
H477   H     0.71222   0.37267   0.76995   0.00000  Uiso   1.00
H478   H     0.62458   0.21161   0.22521   0.00000  Uiso   1.00
H479   H     0.87543   0.28840   0.77481   0.00000  Uiso   1.00
H480   H     0.70319   0.33065   0.24642   0.00000  Uiso   1.00
H481   H     0.78838   0.12453   0.77480   0.00000  Uiso   1.00
H482   H     0.53296   0.29855   0.09792   0.00000  Uiso   1.00
H483   H     0.53298   0.20144   0.90203   0.00000  Uiso   1.00
H484   H     0.95150   0.28302   0.59801   0.00000  Uiso   1.00
O485   O     0.75000   0.00000   0.25000   0.00000  Uiso   1.00
O486   O     0.75000   0.46964   0.66317   0.00000  Uiso   1.00
O487   O     0.80314   0.14570   0.76645   0.00000  Uiso   1.00
O488   O     0.96964   0.25000   0.33683   0.00000  Uiso   1.00
O489   O     0.53036   0.25000   0.66317   0.00000  Uiso   1.00
O490   O     0.50000   0.21964   0.83683   0.00000  Uiso   1.00
O491   O     0.50000   0.28036   0.16317   0.00000  Uiso   1.00
O492   O     0.78036   0.00000   0.83683   0.00000  Uiso   1.00
O493   O     0.71964   0.00000   0.16317   0.00000  Uiso   1.00
O494   O     0.50000   0.28036   0.83683   0.00000  Uiso   1.00
O495   O     0.50000   0.21964   0.16317   0.00000  Uiso   1.00
O496   O     0.71964   0.00000   0.83683   0.00000  Uiso   1.00
O497   O     0.75000   0.00000   0.75000   0.00000  Uiso   1.00
O498   O     0.78036   0.00000   0.16317   0.00000  Uiso   1.00
O499   O     0.70725   0.07307   0.27282   0.00000  Uiso   1.00
O500   O     0.79274   0.42693   0.72718   0.00000  Uiso   1.00
O501   O     0.92693   0.20725   0.27282   0.00000  Uiso   1.00
O502   O     0.57307   0.29275   0.72718   0.00000  Uiso   1.00
O503   O     0.79274   0.42693   0.27282   0.00000  Uiso   1.00
O504   O     0.70725   0.07307   0.72718   0.00000  Uiso   1.00
O505   O     0.57307   0.29275   0.27282   0.00000  Uiso   1.00
O506   O     0.92693   0.20725   0.72718   0.00000  Uiso   1.00
O507   O     0.70725   0.42693   0.72718   0.00000  Uiso   1.00
O508   O     0.50000   0.25000   0.25000   0.00000  Uiso   1.00
O509   O     0.79274   0.07307   0.27282   0.00000  Uiso   1.00
O510   O     0.92693   0.29274   0.72718   0.00000  Uiso   1.00
O511   O     0.57307   0.20726   0.27282   0.00000  Uiso   1.00
O512   O     0.79274   0.07307   0.72718   0.00000  Uiso   1.00
O513   O     0.70725   0.42693   0.27282   0.00000  Uiso   1.00
O514   O     0.57307   0.20726   0.72718   0.00000  Uiso   1.00
O515   O     0.92693   0.29274   0.27282   0.00000  Uiso   1.00
O516   O     0.95725   0.32307   0.77282   0.00000  Uiso   1.00
O517   O     0.54274   0.17693   0.22718   0.00000  Uiso   1.00
O518   O     0.67693   0.45726   0.77282   0.00000  Uiso   1.00
O519   O     0.50000   0.25000   0.75000   0.00000  Uiso   1.00
O520   O     0.82307   0.04274   0.22718   0.00000  Uiso   1.00
O521   O     0.54274   0.17693   0.77282   0.00000  Uiso   1.00
O522   O     0.95725   0.32307   0.22718   0.00000  Uiso   1.00
O523   O     0.82307   0.04274   0.77282   0.00000  Uiso   1.00
O524   O     0.67693   0.45726   0.22718   0.00000  Uiso   1.00
O525   O     0.95725   0.17693   0.22718   0.00000  Uiso   1.00
O526   O     0.54274   0.32307   0.77282   0.00000  Uiso   1.00
O527   O     0.67693   0.04274   0.22718   0.00000  Uiso   1.00
O528   O     0.82307   0.45726   0.77282   0.00000  Uiso   1.00
O529   O     0.54274   0.32307   0.22718   0.00000  Uiso   1.00
O530   O     0.75000   0.46964   0.33683   0.00000  Uiso   1.00
O531   O     0.95725   0.17693   0.77282   0.00000  Uiso   1.00
O532   O     0.82307   0.45726   0.22718   0.00000  Uiso   1.00
O533   O     0.67693   0.04274   0.77282   0.00000  Uiso   1.00
O534   O     0.69566   0.04001   0.02439   0.00000  Uiso   1.00
O535   O     0.80432   0.04000   0.97554   0.00000  Uiso   1.00
O536   O     0.96000   0.19567   0.02445   0.00000  Uiso   1.00
O537   O     0.95999   0.30434   0.97561   0.00000  Uiso   1.00
O538   O     0.80436   0.46005   0.02434   0.00000  Uiso   1.00
O539   O     0.69566   0.46005   0.97572   0.00000  Uiso   1.00
O540   O     0.53994   0.30435   0.02428   0.00000  Uiso   1.00
O541   O     0.75000   0.03036   0.66317   0.00000  Uiso   1.00
O542   O     0.53996   0.19565   0.97566   0.00000  Uiso   1.00
O543   O     0.94567   0.29000   0.52439   0.00000  Uiso   1.00
O544   O     0.55434   0.28997   0.47555   0.00000  Uiso   1.00
O545   O     0.71004   0.44566   0.52445   0.00000  Uiso   1.00
O546   O     0.71000   0.05433   0.47561   0.00000  Uiso   1.00
O547   O     0.55435   0.21002   0.52435   0.00000  Uiso   1.00
O548   O     0.94565   0.21005   0.47571   0.00000  Uiso   1.00
O549   O     0.78995   0.05435   0.52429   0.00000  Uiso   1.00
O550   O     0.78999   0.44565   0.47565   0.00000  Uiso   1.00
O551   O     0.60314   0.44792   0.25722   0.00000  Uiso   1.00
O552   O     0.53036   0.25000   0.33683   0.00000  Uiso   1.00
O553   O     0.89569   0.05317   0.73350   0.00000  Uiso   1.00
O554   O     0.55312   0.10428   0.26628   0.00000  Uiso   1.00
O555   O     0.94687   0.39571   0.73369   0.00000  Uiso   1.00
O556   O     0.89571   0.05313   0.26643   0.00000  Uiso   1.00
O557   O     0.60738   0.44931   0.74664   0.00000  Uiso   1.00
O558   O     0.94692   0.39578   0.26584   0.00000  Uiso   1.00
O559   O     0.55311   0.10429   0.73391   0.00000  Uiso   1.00
O560   O     0.60425   0.05311   0.73395   0.00000  Uiso   1.00
O561   O     0.89574   0.44692   0.26588   0.00000  Uiso   1.00
O562   O     0.55208   0.39686   0.74274   0.00000  Uiso   1.00
O563   O     0.96964   0.25000   0.66317   0.00000  Uiso   1.00
O564   O     0.94684   0.10430   0.26649   0.00000  Uiso   1.00
O565   O     0.89571   0.44687   0.73369   0.00000  Uiso   1.00
O566   O     0.60428   0.05312   0.26628   0.00000  Uiso   1.00
O567   O     0.94686   0.10430   0.73355   0.00000  Uiso   1.00
O568   O     0.55069   0.39262   0.25333   0.00000  Uiso   1.00
O569   O     0.85431   0.19683   0.76650   0.00000  Uiso   1.00
O570   O     0.64686   0.30208   0.24278   0.00000  Uiso   1.00
O571   O     0.80313   0.35429   0.76631   0.00000  Uiso   1.00
O572   O     0.69688   0.14571   0.23371   0.00000  Uiso   1.00
O573   O     0.64262   0.30069   0.75337   0.00000  Uiso   1.00
O574   O     0.75000   0.03036   0.33683   0.00000  Uiso   1.00
O575   O     0.85429   0.19687   0.23356   0.00000  Uiso   1.00
O576   O     0.69689   0.14571   0.76609   0.00000  Uiso   1.00
O577   O     0.80308   0.35423   0.23415   0.00000  Uiso   1.00
O578   O     0.85426   0.30308   0.23412   0.00000  Uiso   1.00
O579   O     0.64575   0.19689   0.76605   0.00000  Uiso   1.00
O580   O     0.80316   0.14570   0.23352   0.00000  Uiso   1.00
O581   O     0.69792   0.35314   0.75726   0.00000  Uiso   1.00
O582   O     0.64572   0.19688   0.23372   0.00000  Uiso   1.00
O583   O     0.85429   0.30313   0.76632   0.00000  Uiso   1.00
O584   O     0.69931   0.35738   0.24668   0.00000  Uiso   1.00
Zn585  Zn    0.70660   0.00000   0.21760   0.00000  Uiso   1.00
Zn586  Zn    0.54340   0.25000   0.28240   0.00000  Uiso   1.00
Zn587  Zn    0.75000   0.45660   0.71760   0.00000  Uiso   1.00
Zn588  Zn    0.75000   0.04340   0.28240   0.00000  Uiso   1.00
Zn589  Zn    0.54340   0.25000   0.71760   0.00000  Uiso   1.00
Zn590  Zn    0.95660   0.25000   0.28240   0.00000  Uiso   1.00
Zn591  Zn    0.75000   0.04340   0.71760   0.00000  Uiso   1.00
Zn592  Zn    0.75000   0.45660   0.28240   0.00000  Uiso   1.00
Zn593  Zn    0.79340   0.00000   0.78240   0.00000  Uiso   1.00
Zn594  Zn    0.50000   0.20660   0.21760   0.00000  Uiso   1.00
Zn595  Zn    0.50000   0.29340   0.78240   0.00000  Uiso   1.00
Zn596  Zn    0.79340   0.00000   0.21760   0.00000  Uiso   1.00
Zn597  Zn    0.70660   0.00000   0.78240   0.00000  Uiso   1.00
Zn598  Zn    0.50000   0.29340   0.21760   0.00000  Uiso   1.00
Zn599  Zn    0.50000   0.20660   0.78240   0.00000  Uiso   1.00
Zn600  Zn    0.95660   0.25000   0.71760   0.00000  Uiso   1.00
C601   C     0.22269   0.51956   0.04203   0.00000  Uiso   1.00
C602   C     0.02732   0.76953   0.45794   0.00000  Uiso   1.00
C603   C     0.34802   0.90198   0.75000   0.00000  Uiso   1.00
C604   C     0.40197   0.65198   0.25003   0.00000  Uiso   1.00
C605   C     0.09784   0.84837   0.74903   0.00000  Uiso   1.00
C606   C     0.34802   0.90197   0.25000   0.00000  Uiso   1.00
C607   C     0.15197   0.59802   0.75000   0.00000  Uiso   1.00
C608   C     0.09803   0.65198   0.75000   0.00000  Uiso   1.00
C609   C     0.40198   0.84803   0.25000   0.00000  Uiso   1.00
C610   C     0.15216   0.90163   0.75097   0.00000  Uiso   1.00
C611   C     0.34803   0.59802   0.24997   0.00000  Uiso   1.00
C612   C     0.40198   0.84802   0.75000   0.00000  Uiso   1.00
C613   C     0.23047   0.97268   0.54206   0.00000  Uiso   1.00
C614   C     0.09802   0.65198   0.25000   0.00000  Uiso   1.00
C615   C     0.34802   0.59803   0.74997   0.00000  Uiso   1.00
C616   C     0.15162   0.90216   0.25097   0.00000  Uiso   1.00
C617   C     0.25003   0.50002   0.10253   0.00000  Uiso   1.00
C618   C     0.24997   0.50002   0.89747   0.00000  Uiso   1.00
C619   C     0.49998   0.75003   0.10253   0.00000  Uiso   1.00
C620   C     0.49998   0.74997   0.89747   0.00000  Uiso   1.00
C621   C     0.00003   0.75001   0.60253   0.00000  Uiso   1.00
C622   C     0.49997   0.75001   0.39747   0.00000  Uiso   1.00
C623   C     0.24999   0.50002   0.60253   0.00000  Uiso   1.00
C624   C     0.23045   0.52731   0.45797   0.00000  Uiso   1.00
C625   C     0.24999   0.99997   0.39747   0.00000  Uiso   1.00
C626   C     0.02734   0.73047   0.54201   0.00000  Uiso   1.00
C627   C     0.47266   0.73048   0.45802   0.00000  Uiso   1.00
C628   C     0.26951   0.52734   0.54198   0.00000  Uiso   1.00
C629   C     0.26953   0.97266   0.45799   0.00000  Uiso   1.00
C630   C     0.22259   0.51843   0.08234   0.00000  Uiso   1.00
C631   C     0.27741   0.51843   0.91763   0.00000  Uiso   1.00
C632   C     0.48157   0.72259   0.08237   0.00000  Uiso   1.00
C633   C     0.27731   0.51956   0.95794   0.00000  Uiso   1.00
C634   C     0.48157   0.77741   0.91766   0.00000  Uiso   1.00
C635   C     0.27746   0.98162   0.08232   0.00000  Uiso   1.00
C636   C     0.22254   0.98163   0.91771   0.00000  Uiso   1.00
C637   C     0.01837   0.77746   0.08229   0.00000  Uiso   1.00
C638   C     0.01838   0.72254   0.91768   0.00000  Uiso   1.00
C639   C     0.47259   0.76842   0.58234   0.00000  Uiso   1.00
C640   C     0.02741   0.76841   0.41763   0.00000  Uiso   1.00
C641   C     0.23160   0.97258   0.58237   0.00000  Uiso   1.00
C642   C     0.23158   0.52741   0.41766   0.00000  Uiso   1.00
C643   C     0.02746   0.73160   0.58232   0.00000  Uiso   1.00
C644   C     0.48045   0.72269   0.04206   0.00000  Uiso   1.00
C645   C     0.47254   0.73162   0.41771   0.00000  Uiso   1.00
C646   C     0.26838   0.52746   0.58229   0.00000  Uiso   1.00
C647   C     0.26840   0.97254   0.41768   0.00000  Uiso   1.00
C648   C     0.25001   0.50002   0.02136   0.00000  Uiso   1.00
C649   C     0.25000   0.50002   0.97864   0.00000  Uiso   1.00
C650   C     0.49998   0.75001   0.02136   0.00000  Uiso   1.00
C651   C     0.49998   0.74999   0.97864   0.00000  Uiso   1.00
C652   C     0.00001   0.75000   0.52136   0.00000  Uiso   1.00
C653   C    -0.00000   0.75000   0.47864   0.00000  Uiso   1.00
C654   C     0.25000   0.50000   0.52136   0.00000  Uiso   1.00
C655   C     0.48044   0.77731   0.95797   0.00000  Uiso   1.00
C656   C     0.25000   0.50000   0.47864   0.00000  Uiso   1.00
C657   C     0.25000   0.99999   0.35518   0.00000  Uiso   1.00
C658   C     0.25000   0.50001   0.64482   0.00000  Uiso   1.00
C659   C     0.49999   0.75000   0.35518   0.00000  Uiso   1.00
C660   C     0.00001   0.75000   0.64482   0.00000  Uiso   1.00
C661   C    -0.00000   0.74999   0.85518   0.00000  Uiso   1.00
C662   C    -0.00000   0.75001   0.14482   0.00000  Uiso   1.00
C663   C     0.24999   0.50000   0.85518   0.00000  Uiso   1.00
C664   C     0.25001   0.50000   0.14482   0.00000  Uiso   1.00
C665   C     0.18002   0.56998   0.25000   0.00000  Uiso   1.00
C666   C     0.27735   0.98050   0.04201   0.00000  Uiso   1.00
C667   C     0.31998   0.93002   0.75000   0.00000  Uiso   1.00
C668   C     0.43001   0.68002   0.25001   0.00000  Uiso   1.00
C669   C     0.06992   0.82012   0.74976   0.00000  Uiso   1.00
C670   C     0.31998   0.93001   0.25000   0.00000  Uiso   1.00
C671   C     0.18001   0.56998   0.75000   0.00000  Uiso   1.00
C672   C     0.07012   0.81992   0.24976   0.00000  Uiso   1.00
C673   C     0.43002   0.68001   0.75001   0.00000  Uiso   1.00
C674   C     0.18008   0.92988   0.75024   0.00000  Uiso   1.00
C675   C     0.31999   0.56998   0.24999   0.00000  Uiso   1.00
C676   C     0.43002   0.81998   0.75000   0.00000  Uiso   1.00
C677   C     0.22266   0.98050   0.95802   0.00000  Uiso   1.00
C678   C     0.06998   0.68002   0.25000   0.00000  Uiso   1.00
C679   C     0.31998   0.56999   0.74999   0.00000  Uiso   1.00
C680   C     0.17988   0.93008   0.25024   0.00000  Uiso   1.00
C681   C     0.06999   0.68002   0.75000   0.00000  Uiso   1.00
C682   C     0.43002   0.81999   0.25000   0.00000  Uiso   1.00
C683   C     0.11434   0.91208   0.25283   0.00000  Uiso   1.00
C684   C     0.38476   0.58837   0.74239   0.00000  Uiso   1.00
C685   C     0.08835   0.61522   0.25750   0.00000  Uiso   1.00
C686   C     0.41165   0.88477   0.74249   0.00000  Uiso   1.00
C687   C     0.38477   0.58835   0.25758   0.00000  Uiso   1.00
C688   C     0.01950   0.77734   0.04198   0.00000  Uiso   1.00
C689   C     0.11535   0.91238   0.74883   0.00000  Uiso   1.00
C690   C     0.41167   0.88481   0.25728   0.00000  Uiso   1.00
C691   C     0.08834   0.61522   0.74260   0.00000  Uiso   1.00
C692   C     0.11521   0.58834   0.74262   0.00000  Uiso   1.00
C693   C     0.38479   0.91167   0.25729   0.00000  Uiso   1.00
C694   C     0.08792   0.88566   0.74715   0.00000  Uiso   1.00
C695   C     0.41163   0.61523   0.25761   0.00000  Uiso   1.00
C696   C     0.38478   0.91165   0.74249   0.00000  Uiso   1.00
C697   C     0.11522   0.58835   0.25750   0.00000  Uiso   1.00
C698   C     0.41164   0.61523   0.74242   0.00000  Uiso   1.00
C699   C     0.01951   0.72266   0.95799   0.00000  Uiso   1.00
C700   C     0.08762   0.88465   0.25115   0.00000  Uiso   1.00
C701   C     0.36523   0.66163   0.75761   0.00000  Uiso   1.00
C702   C     0.13566   0.83792   0.24718   0.00000  Uiso   1.00
C703   C     0.33835   0.86522   0.75751   0.00000  Uiso   1.00
C704   C     0.16165   0.63478   0.24250   0.00000  Uiso   1.00
C705   C     0.13465   0.83762   0.75117   0.00000  Uiso   1.00
C706   C     0.36523   0.66165   0.24242   0.00000  Uiso   1.00
C707   C     0.16165   0.63478   0.75740   0.00000  Uiso   1.00
C708   C     0.33833   0.86520   0.24272   0.00000  Uiso   1.00
C709   C     0.36521   0.83833   0.24271   0.00000  Uiso   1.00
C710   C     0.47269   0.76955   0.54203   0.00000  Uiso   1.00
C711   C     0.13479   0.66166   0.75739   0.00000  Uiso   1.00
C712   C     0.33837   0.63477   0.24240   0.00000  Uiso   1.00
C713   C     0.16208   0.86434   0.75285   0.00000  Uiso   1.00
C714   C     0.13478   0.66165   0.24250   0.00000  Uiso   1.00
C715   C     0.36523   0.83835   0.75752   0.00000  Uiso   1.00
C716   C     0.16238   0.86535   0.24885   0.00000  Uiso   1.00
C717   C     0.33836   0.63477   0.75758   0.00000  Uiso   1.00
C718   C     0.09837   0.84784   0.24903   0.00000  Uiso   1.00
C719   C     0.40198   0.65196   0.75003   0.00000  Uiso   1.00
C720   C     0.15198   0.59802   0.25000   0.00000  Uiso   1.00
H721   H     0.20149   0.53302   0.09801   0.00000  Uiso   1.00
H722   H     0.04850   0.78300   0.40194   0.00000  Uiso   1.00
H723   H     0.21701   0.95149   0.59806   0.00000  Uiso   1.00
H724   H     0.21698   0.54850   0.40199   0.00000  Uiso   1.00
H725   H     0.04855   0.71701   0.59798   0.00000  Uiso   1.00
H726   H     0.45145   0.71703   0.40208   0.00000  Uiso   1.00
H727   H     0.28296   0.54855   0.59792   0.00000  Uiso   1.00
H728   H     0.28300   0.95145   0.40202   0.00000  Uiso   1.00
H729   H     0.20096   0.54284   0.99649   0.00000  Uiso   1.00
H730   H     0.29904   0.54282   0.00345   0.00000  Uiso   1.00
H731   H     0.45718   0.70097   0.99655   0.00000  Uiso   1.00
H732   H     0.29849   0.53302   0.90193   0.00000  Uiso   1.00
H733   H     0.45717   0.79904   0.00351   0.00000  Uiso   1.00
H734   H     0.29906   0.95724   0.99645   0.00000  Uiso   1.00
H735   H     0.20096   0.95724   0.00362   0.00000  Uiso   1.00
H736   H     0.04276   0.79905   0.99638   0.00000  Uiso   1.00
H737   H     0.04277   0.70095   0.00355   0.00000  Uiso   1.00
H738   H     0.45097   0.79283   0.49648   0.00000  Uiso   1.00
H739   H     0.04905   0.79278   0.50346   0.00000  Uiso   1.00
H740   H     0.20722   0.95095   0.49655   0.00000  Uiso   1.00
H741   H     0.20718   0.54904   0.50352   0.00000  Uiso   1.00
H742   H     0.04905   0.70720   0.49646   0.00000  Uiso   1.00
H743   H     0.46699   0.70150   0.09806   0.00000  Uiso   1.00
H744   H     0.45096   0.70722   0.50361   0.00000  Uiso   1.00
H745   H     0.29278   0.54905   0.49639   0.00000  Uiso   1.00
H746   H     0.29281   0.95096   0.50354   0.00000  Uiso   1.00
H747   H     0.12266   0.96222   0.26991   0.00000  Uiso   1.00
H748   H     0.37453   0.53845   0.72507   0.00000  Uiso   1.00
H749   H     0.03839   0.62542   0.27480   0.00000  Uiso   1.00
H750   H     0.46160   0.87457   0.72519   0.00000  Uiso   1.00
H751   H     0.37453   0.53837   0.27479   0.00000  Uiso   1.00
H752   H     0.08065   0.95320   0.74635   0.00000  Uiso   1.00
H753   H     0.46167   0.87468   0.27442   0.00000  Uiso   1.00
H754   H     0.46697   0.79850   0.90199   0.00000  Uiso   1.00
H755   H     0.03840   0.62542   0.72533   0.00000  Uiso   1.00
H756   H     0.12537   0.53834   0.72550   0.00000  Uiso   1.00
H757   H     0.37464   0.96161   0.27457   0.00000  Uiso   1.00
H758   H     0.03778   0.87733   0.73006   0.00000  Uiso   1.00
H759   H     0.46155   0.62547   0.27492   0.00000  Uiso   1.00
H760   H     0.37457   0.96161   0.72520   0.00000  Uiso   1.00
H761   H     0.12542   0.53839   0.27480   0.00000  Uiso   1.00
H762   H     0.46162   0.62547   0.72521   0.00000  Uiso   1.00
H763   H     0.04680   0.91935   0.25362   0.00000  Uiso   1.00
H764   H     0.37547   0.71155   0.77492   0.00000  Uiso   1.00
H765   H     0.29856   0.96703   0.09797   0.00000  Uiso   1.00
H766   H     0.12734   0.78779   0.23006   0.00000  Uiso   1.00
H767   H     0.28839   0.87543   0.77480   0.00000  Uiso   1.00
H768   H     0.21161   0.62458   0.22520   0.00000  Uiso   1.00
H769   H     0.16935   0.79680   0.75366   0.00000  Uiso   1.00
H770   H     0.37547   0.71163   0.22520   0.00000  Uiso   1.00
H771   H     0.21160   0.62459   0.77466   0.00000  Uiso   1.00
H772   H     0.28833   0.87532   0.22557   0.00000  Uiso   1.00
H773   H     0.37536   0.78839   0.22543   0.00000  Uiso   1.00
H774   H     0.12462   0.71166   0.77451   0.00000  Uiso   1.00
H775   H     0.28844   0.62453   0.22509   0.00000  Uiso   1.00
H776   H     0.20145   0.96703   0.90208   0.00000  Uiso   1.00
H777   H     0.21222   0.87267   0.76995   0.00000  Uiso   1.00
H778   H     0.12458   0.71161   0.22521   0.00000  Uiso   1.00
H779   H     0.37543   0.78840   0.77481   0.00000  Uiso   1.00
H780   H     0.20319   0.83065   0.24642   0.00000  Uiso   1.00
H781   H     0.28838   0.62453   0.77480   0.00000  Uiso   1.00
H782   H     0.03296   0.79855   0.09792   0.00000  Uiso   1.00
H783   H     0.03298   0.70144   0.90203   0.00000  Uiso   1.00
H784   H     0.45150   0.78302   0.59801   0.00000  Uiso   1.00
O785   O     0.25000   0.50000   0.25000   0.00000  Uiso   1.00
O786   O     0.25000   0.96964   0.66317   0.00000  Uiso   1.00
O787   O     0.30314   0.64570   0.76645   0.00000  Uiso   1.00
O788   O     0.46964   0.75000   0.33683   0.00000  Uiso   1.00
O789   O     0.03036   0.75000   0.66317   0.00000  Uiso   1.00
O790   O    -0.00000   0.71964   0.83683   0.00000  Uiso   1.00
O791   O    -0.00000   0.78036   0.16317   0.00000  Uiso   1.00
O792   O     0.28036   0.50000   0.83683   0.00000  Uiso   1.00
O793   O     0.21964   0.50000   0.16317   0.00000  Uiso   1.00
O794   O    -0.00000   0.78036   0.83683   0.00000  Uiso   1.00
O795   O    -0.00000   0.71964   0.16317   0.00000  Uiso   1.00
O796   O     0.21964   0.50000   0.83683   0.00000  Uiso   1.00
O797   O     0.25000   0.50000   0.75000   0.00000  Uiso   1.00
O798   O     0.28036   0.50000   0.16317   0.00000  Uiso   1.00
O799   O     0.20725   0.57307   0.27282   0.00000  Uiso   1.00
O800   O     0.29274   0.92693   0.72718   0.00000  Uiso   1.00
O801   O     0.42693   0.70725   0.27282   0.00000  Uiso   1.00
O802   O     0.07307   0.79275   0.72718   0.00000  Uiso   1.00
O803   O     0.29274   0.92693   0.27282   0.00000  Uiso   1.00
O804   O     0.20725   0.57307   0.72718   0.00000  Uiso   1.00
O805   O     0.07307   0.79275   0.27282   0.00000  Uiso   1.00
O806   O     0.42693   0.70725   0.72718   0.00000  Uiso   1.00
O807   O     0.20725   0.92693   0.72718   0.00000  Uiso   1.00
O808   O     0.00000   0.75000   0.25000   0.00000  Uiso   1.00
O809   O     0.29274   0.57307   0.27282   0.00000  Uiso   1.00
O810   O     0.42693   0.79274   0.72718   0.00000  Uiso   1.00
O811   O     0.07307   0.70726   0.27282   0.00000  Uiso   1.00
O812   O     0.29274   0.57307   0.72718   0.00000  Uiso   1.00
O813   O     0.20725   0.92693   0.27282   0.00000  Uiso   1.00
O814   O     0.07307   0.70726   0.72718   0.00000  Uiso   1.00
O815   O     0.42693   0.79274   0.27282   0.00000  Uiso   1.00
O816   O     0.45725   0.82307   0.77282   0.00000  Uiso   1.00
O817   O     0.04274   0.67693   0.22718   0.00000  Uiso   1.00
O818   O     0.17693   0.95726   0.77282   0.00000  Uiso   1.00
O819   O     0.00000   0.75000   0.75000   0.00000  Uiso   1.00
O820   O     0.32307   0.54274   0.22718   0.00000  Uiso   1.00
O821   O     0.04274   0.67693   0.77282   0.00000  Uiso   1.00
O822   O     0.45725   0.82307   0.22718   0.00000  Uiso   1.00
O823   O     0.32307   0.54274   0.77282   0.00000  Uiso   1.00
O824   O     0.17693   0.95726   0.22718   0.00000  Uiso   1.00
O825   O     0.45725   0.67693   0.22718   0.00000  Uiso   1.00
O826   O     0.04274   0.82307   0.77282   0.00000  Uiso   1.00
O827   O     0.17693   0.54274   0.22718   0.00000  Uiso   1.00
O828   O     0.32307   0.95726   0.77282   0.00000  Uiso   1.00
O829   O     0.04274   0.82307   0.22718   0.00000  Uiso   1.00
O830   O     0.25000   0.96964   0.33683   0.00000  Uiso   1.00
O831   O     0.45725   0.67693   0.77282   0.00000  Uiso   1.00
O832   O     0.32307   0.95726   0.22718   0.00000  Uiso   1.00
O833   O     0.17693   0.54274   0.77282   0.00000  Uiso   1.00
O834   O     0.19566   0.54001   0.02439   0.00000  Uiso   1.00
O835   O     0.30432   0.54000   0.97554   0.00000  Uiso   1.00
O836   O     0.46000   0.69567   0.02445   0.00000  Uiso   1.00
O837   O     0.45999   0.80434   0.97561   0.00000  Uiso   1.00
O838   O     0.30436   0.96005   0.02434   0.00000  Uiso   1.00
O839   O     0.19566   0.96005   0.97572   0.00000  Uiso   1.00
O840   O     0.03994   0.80435   0.02428   0.00000  Uiso   1.00
O841   O     0.25000   0.53036   0.66317   0.00000  Uiso   1.00
O842   O     0.03996   0.69565   0.97566   0.00000  Uiso   1.00
O843   O     0.44567   0.79000   0.52439   0.00000  Uiso   1.00
O844   O     0.05434   0.78997   0.47555   0.00000  Uiso   1.00
O845   O     0.21004   0.94566   0.52445   0.00000  Uiso   1.00
O846   O     0.21000   0.55433   0.47561   0.00000  Uiso   1.00
O847   O     0.05435   0.71002   0.52435   0.00000  Uiso   1.00
O848   O     0.44565   0.71005   0.47571   0.00000  Uiso   1.00
O849   O     0.28995   0.55435   0.52429   0.00000  Uiso   1.00
O850   O     0.28999   0.94565   0.47565   0.00000  Uiso   1.00
O851   O     0.10314   0.94792   0.25722   0.00000  Uiso   1.00
O852   O     0.03036   0.75000   0.33683   0.00000  Uiso   1.00
O853   O     0.39569   0.55317   0.73350   0.00000  Uiso   1.00
O854   O     0.05312   0.60428   0.26628   0.00000  Uiso   1.00
O855   O     0.44687   0.89571   0.73369   0.00000  Uiso   1.00
O856   O     0.39571   0.55313   0.26643   0.00000  Uiso   1.00
O857   O     0.10738   0.94931   0.74664   0.00000  Uiso   1.00
O858   O     0.44692   0.89578   0.26584   0.00000  Uiso   1.00
O859   O     0.05311   0.60429   0.73391   0.00000  Uiso   1.00
O860   O     0.10425   0.55311   0.73395   0.00000  Uiso   1.00
O861   O     0.39574   0.94692   0.26588   0.00000  Uiso   1.00
O862   O     0.05208   0.89686   0.74274   0.00000  Uiso   1.00
O863   O     0.46964   0.75000   0.66317   0.00000  Uiso   1.00
O864   O     0.44684   0.60430   0.26649   0.00000  Uiso   1.00
O865   O     0.39571   0.94687   0.73369   0.00000  Uiso   1.00
O866   O     0.10428   0.55312   0.26628   0.00000  Uiso   1.00
O867   O     0.44686   0.60430   0.73355   0.00000  Uiso   1.00
O868   O     0.05069   0.89262   0.25333   0.00000  Uiso   1.00
O869   O     0.35431   0.69683   0.76650   0.00000  Uiso   1.00
O870   O     0.14686   0.80208   0.24278   0.00000  Uiso   1.00
O871   O     0.30313   0.85429   0.76631   0.00000  Uiso   1.00
O872   O     0.19688   0.64571   0.23371   0.00000  Uiso   1.00
O873   O     0.14262   0.80069   0.75337   0.00000  Uiso   1.00
O874   O     0.25000   0.53036   0.33683   0.00000  Uiso   1.00
O875   O     0.35429   0.69687   0.23356   0.00000  Uiso   1.00
O876   O     0.19689   0.64571   0.76609   0.00000  Uiso   1.00
O877   O     0.30308   0.85423   0.23415   0.00000  Uiso   1.00
O878   O     0.35426   0.80308   0.23412   0.00000  Uiso   1.00
O879   O     0.14575   0.69689   0.76605   0.00000  Uiso   1.00
O880   O     0.30316   0.64570   0.23352   0.00000  Uiso   1.00
O881   O     0.19792   0.85314   0.75726   0.00000  Uiso   1.00
O882   O     0.14572   0.69688   0.23372   0.00000  Uiso   1.00
O883   O     0.35429   0.80313   0.76632   0.00000  Uiso   1.00
O884   O     0.19931   0.85738   0.24668   0.00000  Uiso   1.00
Zn885  Zn    0.20660   0.50000   0.21760   0.00000  Uiso   1.00
Zn886  Zn    0.04340   0.75000   0.28240   0.00000  Uiso   1.00
Zn887  Zn    0.25000   0.95660   0.71760   0.00000  Uiso   1.00
Zn888  Zn    0.25000   0.54340   0.28240   0.00000  Uiso   1.00
Zn889  Zn    0.04340   0.75000   0.71760   0.00000  Uiso   1.00
Zn890  Zn    0.45660   0.75000   0.28240   0.00000  Uiso   1.00
Zn891  Zn    0.25000   0.54340   0.71760   0.00000  Uiso   1.00
Zn892  Zn    0.25000   0.95660   0.28240   0.00000  Uiso   1.00
Zn893  Zn    0.29340   0.50000   0.78240   0.00000  Uiso   1.00
Zn894  Zn   -0.00000   0.70660   0.21760   0.00000  Uiso   1.00
Zn895  Zn   -0.00000   0.79340   0.78240   0.00000  Uiso   1.00
Zn896  Zn    0.29340   0.50000   0.21760   0.00000  Uiso   1.00
Zn897  Zn    0.20660   0.50000   0.78240   0.00000  Uiso   1.00
Zn898  Zn    0.00000   0.79340   0.21760   0.00000  Uiso   1.00
Zn899  Zn   -0.00000   0.70660   0.78240   0.00000  Uiso   1.00
Zn900  Zn    0.45660   0.75000   0.71760   0.00000  Uiso   1.00
C901   C     0.72269   0.51956   0.04203   0.00000  Uiso   1.00
C902   C     0.52732   0.76953   0.45794   0.00000  Uiso   1.00
C903   C     0.84802   0.90198   0.75000   0.00000  Uiso   1.00
C904   C     0.90197   0.65198   0.25003   0.00000  Uiso   1.00
C905   C     0.59784   0.84837   0.74903   0.00000  Uiso   1.00
C906   C     0.84802   0.90197   0.25000   0.00000  Uiso   1.00
C907   C     0.65197   0.59802   0.75000   0.00000  Uiso   1.00
C908   C     0.59803   0.65198   0.75000   0.00000  Uiso   1.00
C909   C     0.90198   0.84803   0.25000   0.00000  Uiso   1.00
C910   C     0.65216   0.90163   0.75097   0.00000  Uiso   1.00
C911   C     0.84803   0.59802   0.24997   0.00000  Uiso   1.00
C912   C     0.90198   0.84802   0.75000   0.00000  Uiso   1.00
C913   C     0.73047   0.97268   0.54206   0.00000  Uiso   1.00
C914   C     0.59802   0.65198   0.25000   0.00000  Uiso   1.00
C915   C     0.84802   0.59803   0.74997   0.00000  Uiso   1.00
C916   C     0.65162   0.90216   0.25097   0.00000  Uiso   1.00
C917   C     0.75003   0.50002   0.10253   0.00000  Uiso   1.00
C918   C     0.74997   0.50002   0.89747   0.00000  Uiso   1.00
C919   C     0.99998   0.75003   0.10253   0.00000  Uiso   1.00
C920   C     0.99998   0.74997   0.89747   0.00000  Uiso   1.00
C921   C     0.50003   0.75001   0.60253   0.00000  Uiso   1.00
C922   C     0.99997   0.75001   0.39747   0.00000  Uiso   1.00
C923   C     0.74999   0.50002   0.60253   0.00000  Uiso   1.00
C924   C     0.73045   0.52731   0.45797   0.00000  Uiso   1.00
C925   C     0.74999   0.99997   0.39747   0.00000  Uiso   1.00
C926   C     0.52734   0.73047   0.54201   0.00000  Uiso   1.00
C927   C     0.97266   0.73048   0.45802   0.00000  Uiso   1.00
C928   C     0.76951   0.52734   0.54198   0.00000  Uiso   1.00
C929   C     0.76953   0.97266   0.45799   0.00000  Uiso   1.00
C930   C     0.72259   0.51843   0.08234   0.00000  Uiso   1.00
C931   C     0.77741   0.51843   0.91763   0.00000  Uiso   1.00
C932   C     0.98157   0.72259   0.08237   0.00000  Uiso   1.00
C933   C     0.77731   0.51956   0.95794   0.00000  Uiso   1.00
C934   C     0.98157   0.77741   0.91766   0.00000  Uiso   1.00
C935   C     0.77746   0.98162   0.08232   0.00000  Uiso   1.00
C936   C     0.72254   0.98163   0.91771   0.00000  Uiso   1.00
C937   C     0.51837   0.77746   0.08229   0.00000  Uiso   1.00
C938   C     0.51838   0.72254   0.91768   0.00000  Uiso   1.00
C939   C     0.97259   0.76842   0.58234   0.00000  Uiso   1.00
C940   C     0.52741   0.76841   0.41763   0.00000  Uiso   1.00
C941   C     0.73160   0.97258   0.58237   0.00000  Uiso   1.00
C942   C     0.73158   0.52741   0.41766   0.00000  Uiso   1.00
C943   C     0.52746   0.73160   0.58232   0.00000  Uiso   1.00
C944   C     0.98045   0.72269   0.04206   0.00000  Uiso   1.00
C945   C     0.97254   0.73162   0.41771   0.00000  Uiso   1.00
C946   C     0.76838   0.52746   0.58229   0.00000  Uiso   1.00
C947   C     0.76840   0.97254   0.41768   0.00000  Uiso   1.00
C948   C     0.75001   0.50002   0.02136   0.00000  Uiso   1.00
C949   C     0.75000   0.50002   0.97864   0.00000  Uiso   1.00
C950   C     0.99998   0.75001   0.02136   0.00000  Uiso   1.00
C951   C     0.99998   0.74999   0.97864   0.00000  Uiso   1.00
C952   C     0.50001   0.75000   0.52136   0.00000  Uiso   1.00
C953   C     0.50000   0.75000   0.47864   0.00000  Uiso   1.00
C954   C     0.75000   0.50000   0.52136   0.00000  Uiso   1.00
C955   C     0.98044   0.77731   0.95797   0.00000  Uiso   1.00
C956   C     0.75000   0.50000   0.47864   0.00000  Uiso   1.00
C957   C     0.75000   0.99999   0.35518   0.00000  Uiso   1.00
C958   C     0.75000   0.50001   0.64482   0.00000  Uiso   1.00
C959   C     0.99999   0.75000   0.35518   0.00000  Uiso   1.00
C960   C     0.50001   0.75000   0.64482   0.00000  Uiso   1.00
C961   C     0.50000   0.74999   0.85518   0.00000  Uiso   1.00
C962   C     0.50000   0.75001   0.14482   0.00000  Uiso   1.00
C963   C     0.74999   0.50000   0.85518   0.00000  Uiso   1.00
C964   C     0.75001   0.50000   0.14482   0.00000  Uiso   1.00
C965   C     0.68002   0.56998   0.25000   0.00000  Uiso   1.00
C966   C     0.77735   0.98050   0.04201   0.00000  Uiso   1.00
C967   C     0.81998   0.93002   0.75000   0.00000  Uiso   1.00
C968   C     0.93001   0.68002   0.25001   0.00000  Uiso   1.00
C969   C     0.56992   0.82012   0.74976   0.00000  Uiso   1.00
C970   C     0.81998   0.93001   0.25000   0.00000  Uiso   1.00
C971   C     0.68001   0.56998   0.75000   0.00000  Uiso   1.00
C972   C     0.57012   0.81992   0.24976   0.00000  Uiso   1.00
C973   C     0.93002   0.68001   0.75001   0.00000  Uiso   1.00
C974   C     0.68008   0.92988   0.75024   0.00000  Uiso   1.00
C975   C     0.81999   0.56998   0.24999   0.00000  Uiso   1.00
C976   C     0.93002   0.81998   0.75000   0.00000  Uiso   1.00
C977   C     0.72266   0.98050   0.95802   0.00000  Uiso   1.00
C978   C     0.56998   0.68002   0.25000   0.00000  Uiso   1.00
C979   C     0.81998   0.56999   0.74999   0.00000  Uiso   1.00
C980   C     0.67988   0.93008   0.25024   0.00000  Uiso   1.00
C981   C     0.56999   0.68002   0.75000   0.00000  Uiso   1.00
C982   C     0.93002   0.81999   0.25000   0.00000  Uiso   1.00
C983   C     0.61434   0.91208   0.25283   0.00000  Uiso   1.00
C984   C     0.88476   0.58837   0.74239   0.00000  Uiso   1.00
C985   C     0.58835   0.61522   0.25750   0.00000  Uiso   1.00
C986   C     0.91165   0.88477   0.74249   0.00000  Uiso   1.00
C987   C     0.88477   0.58835   0.25758   0.00000  Uiso   1.00
C988   C     0.51950   0.77734   0.04198   0.00000  Uiso   1.00
C989   C     0.61535   0.91238   0.74883   0.00000  Uiso   1.00
C990   C     0.91167   0.88481   0.25728   0.00000  Uiso   1.00
C991   C     0.58834   0.61522   0.74260   0.00000  Uiso   1.00
C992   C     0.61521   0.58834   0.74262   0.00000  Uiso   1.00
C993   C     0.88479   0.91167   0.25729   0.00000  Uiso   1.00
C994   C     0.58792   0.88566   0.74715   0.00000  Uiso   1.00
C995   C     0.91163   0.61523   0.25761   0.00000  Uiso   1.00
C996   C     0.88478   0.91165   0.74249   0.00000  Uiso   1.00
C997   C     0.61522   0.58835   0.25750   0.00000  Uiso   1.00
C998   C     0.91164   0.61523   0.74242   0.00000  Uiso   1.00
C999   C     0.51951   0.72266   0.95799   0.00000  Uiso   1.00
C1000  C     0.58762   0.88465   0.25115   0.00000  Uiso   1.00
C1001  C     0.86523   0.66163   0.75761   0.00000  Uiso   1.00
C1002  C     0.63566   0.83792   0.24718   0.00000  Uiso   1.00
C1003  C     0.83835   0.86522   0.75751   0.00000  Uiso   1.00
C1004  C     0.66165   0.63478   0.24250   0.00000  Uiso   1.00
C1005  C     0.63465   0.83762   0.75117   0.00000  Uiso   1.00
C1006  C     0.86523   0.66165   0.24242   0.00000  Uiso   1.00
C1007  C     0.66165   0.63478   0.75740   0.00000  Uiso   1.00
C1008  C     0.83833   0.86520   0.24272   0.00000  Uiso   1.00
C1009  C     0.86521   0.83833   0.24271   0.00000  Uiso   1.00
C1010  C     0.97269   0.76955   0.54203   0.00000  Uiso   1.00
C1011  C     0.63479   0.66166   0.75739   0.00000  Uiso   1.00
C1012  C     0.83837   0.63477   0.24240   0.00000  Uiso   1.00
C1013  C     0.66208   0.86434   0.75285   0.00000  Uiso   1.00
C1014  C     0.63478   0.66165   0.24250   0.00000  Uiso   1.00
C1015  C     0.86523   0.83835   0.75752   0.00000  Uiso   1.00
C1016  C     0.66238   0.86535   0.24885   0.00000  Uiso   1.00
C1017  C     0.83836   0.63477   0.75758   0.00000  Uiso   1.00
C1018  C     0.59837   0.84784   0.24903   0.00000  Uiso   1.00
C1019  C     0.90198   0.65196   0.75003   0.00000  Uiso   1.00
C1020  C     0.65198   0.59802   0.25000   0.00000  Uiso   1.00
H1021  H     0.70149   0.53302   0.09801   0.00000  Uiso   1.00
H1022  H     0.54850   0.78300   0.40194   0.00000  Uiso   1.00
H1023  H     0.71701   0.95149   0.59806   0.00000  Uiso   1.00
H1024  H     0.71698   0.54850   0.40199   0.00000  Uiso   1.00
H1025  H     0.54855   0.71701   0.59798   0.00000  Uiso   1.00
H1026  H     0.95145   0.71703   0.40208   0.00000  Uiso   1.00
H1027  H     0.78296   0.54855   0.59792   0.00000  Uiso   1.00
H1028  H     0.78300   0.95145   0.40202   0.00000  Uiso   1.00
H1029  H     0.70096   0.54284   0.99649   0.00000  Uiso   1.00
H1030  H     0.79904   0.54282   0.00345   0.00000  Uiso   1.00
H1031  H     0.95718   0.70097   0.99655   0.00000  Uiso   1.00
H1032  H     0.79849   0.53302   0.90193   0.00000  Uiso   1.00
H1033  H     0.95717   0.79904   0.00351   0.00000  Uiso   1.00
H1034  H     0.79906   0.95724   0.99645   0.00000  Uiso   1.00
H1035  H     0.70096   0.95724   0.00362   0.00000  Uiso   1.00
H1036  H     0.54276   0.79905   0.99638   0.00000  Uiso   1.00
H1037  H     0.54277   0.70095   0.00355   0.00000  Uiso   1.00
H1038  H     0.95097   0.79283   0.49648   0.00000  Uiso   1.00
H1039  H     0.54905   0.79278   0.50346   0.00000  Uiso   1.00
H1040  H     0.70722   0.95095   0.49655   0.00000  Uiso   1.00
H1041  H     0.70718   0.54904   0.50352   0.00000  Uiso   1.00
H1042  H     0.54905   0.70720   0.49646   0.00000  Uiso   1.00
H1043  H     0.96699   0.70150   0.09806   0.00000  Uiso   1.00
H1044  H     0.95096   0.70722   0.50361   0.00000  Uiso   1.00
H1045  H     0.79278   0.54905   0.49639   0.00000  Uiso   1.00
H1046  H     0.79281   0.95096   0.50354   0.00000  Uiso   1.00
H1047  H     0.62266   0.96222   0.26991   0.00000  Uiso   1.00
H1048  H     0.87453   0.53845   0.72507   0.00000  Uiso   1.00
H1049  H     0.53839   0.62542   0.27480   0.00000  Uiso   1.00
H1050  H     0.96160   0.87457   0.72519   0.00000  Uiso   1.00
H1051  H     0.87453   0.53837   0.27479   0.00000  Uiso   1.00
H1052  H     0.58065   0.95320   0.74635   0.00000  Uiso   1.00
H1053  H     0.96167   0.87468   0.27442   0.00000  Uiso   1.00
H1054  H     0.96697   0.79850   0.90199   0.00000  Uiso   1.00
H1055  H     0.53840   0.62542   0.72533   0.00000  Uiso   1.00
H1056  H     0.62537   0.53834   0.72550   0.00000  Uiso   1.00
H1057  H     0.87464   0.96161   0.27457   0.00000  Uiso   1.00
H1058  H     0.53778   0.87733   0.73006   0.00000  Uiso   1.00
H1059  H     0.96155   0.62547   0.27492   0.00000  Uiso   1.00
H1060  H     0.87457   0.96161   0.72520   0.00000  Uiso   1.00
H1061  H     0.62542   0.53839   0.27480   0.00000  Uiso   1.00
H1062  H     0.96162   0.62547   0.72521   0.00000  Uiso   1.00
H1063  H     0.54680   0.91935   0.25362   0.00000  Uiso   1.00
H1064  H     0.87547   0.71155   0.77492   0.00000  Uiso   1.00
H1065  H     0.79856   0.96703   0.09797   0.00000  Uiso   1.00
H1066  H     0.62734   0.78779   0.23006   0.00000  Uiso   1.00
H1067  H     0.78839   0.87543   0.77480   0.00000  Uiso   1.00
H1068  H     0.71161   0.62458   0.22520   0.00000  Uiso   1.00
H1069  H     0.66935   0.79680   0.75366   0.00000  Uiso   1.00
H1070  H     0.87547   0.71163   0.22520   0.00000  Uiso   1.00
H1071  H     0.71160   0.62459   0.77466   0.00000  Uiso   1.00
H1072  H     0.78833   0.87532   0.22557   0.00000  Uiso   1.00
H1073  H     0.87536   0.78839   0.22543   0.00000  Uiso   1.00
H1074  H     0.62462   0.71166   0.77451   0.00000  Uiso   1.00
H1075  H     0.78844   0.62453   0.22509   0.00000  Uiso   1.00
H1076  H     0.70145   0.96703   0.90208   0.00000  Uiso   1.00
H1077  H     0.71222   0.87267   0.76995   0.00000  Uiso   1.00
H1078  H     0.62458   0.71161   0.22521   0.00000  Uiso   1.00
H1079  H     0.87543   0.78840   0.77481   0.00000  Uiso   1.00
H1080  H     0.70319   0.83065   0.24642   0.00000  Uiso   1.00
H1081  H     0.78838   0.62453   0.77480   0.00000  Uiso   1.00
H1082  H     0.53296   0.79855   0.09792   0.00000  Uiso   1.00
H1083  H     0.53298   0.70144   0.90203   0.00000  Uiso   1.00
H1084  H     0.95150   0.78302   0.59801   0.00000  Uiso   1.00
O1085  O     0.75000   0.50000   0.25000   0.00000  Uiso   1.00
O1086  O     0.75000   0.96964   0.66317   0.00000  Uiso   1.00
O1087  O     0.80314   0.64570   0.76645   0.00000  Uiso   1.00
O1088  O     0.96964   0.75000   0.33683   0.00000  Uiso   1.00
O1089  O     0.53036   0.75000   0.66317   0.00000  Uiso   1.00
O1090  O     0.50000   0.71964   0.83683   0.00000  Uiso   1.00
O1091  O     0.50000   0.78036   0.16317   0.00000  Uiso   1.00
O1092  O     0.78036   0.50000   0.83683   0.00000  Uiso   1.00
O1093  O     0.71964   0.50000   0.16317   0.00000  Uiso   1.00
O1094  O     0.50000   0.78036   0.83683   0.00000  Uiso   1.00
O1095  O     0.50000   0.71964   0.16317   0.00000  Uiso   1.00
O1096  O     0.71964   0.50000   0.83683   0.00000  Uiso   1.00
O1097  O     0.75000   0.50000   0.75000   0.00000  Uiso   1.00
O1098  O     0.78036   0.50000   0.16317   0.00000  Uiso   1.00
O1099  O     0.70725   0.57307   0.27282   0.00000  Uiso   1.00
O1100  O     0.79274   0.92693   0.72718   0.00000  Uiso   1.00
O1101  O     0.92693   0.70725   0.27282   0.00000  Uiso   1.00
O1102  O     0.57307   0.79275   0.72718   0.00000  Uiso   1.00
O1103  O     0.79274   0.92693   0.27282   0.00000  Uiso   1.00
O1104  O     0.70725   0.57307   0.72718   0.00000  Uiso   1.00
O1105  O     0.57307   0.79275   0.27282   0.00000  Uiso   1.00
O1106  O     0.92693   0.70725   0.72718   0.00000  Uiso   1.00
O1107  O     0.70725   0.92693   0.72718   0.00000  Uiso   1.00
O1108  O     0.50000   0.75000   0.25000   0.00000  Uiso   1.00
O1109  O     0.79274   0.57307   0.27282   0.00000  Uiso   1.00
O1110  O     0.92693   0.79274   0.72718   0.00000  Uiso   1.00
O1111  O     0.57307   0.70726   0.27282   0.00000  Uiso   1.00
O1112  O     0.79274   0.57307   0.72718   0.00000  Uiso   1.00
O1113  O     0.70725   0.92693   0.27282   0.00000  Uiso   1.00
O1114  O     0.57307   0.70726   0.72718   0.00000  Uiso   1.00
O1115  O     0.92693   0.79274   0.27282   0.00000  Uiso   1.00
O1116  O     0.95725   0.82307   0.77282   0.00000  Uiso   1.00
O1117  O     0.54274   0.67693   0.22718   0.00000  Uiso   1.00
O1118  O     0.67693   0.95726   0.77282   0.00000  Uiso   1.00
O1119  O     0.50000   0.75000   0.75000   0.00000  Uiso   1.00
O1120  O     0.82307   0.54274   0.22718   0.00000  Uiso   1.00
O1121  O     0.54274   0.67693   0.77282   0.00000  Uiso   1.00
O1122  O     0.95725   0.82307   0.22718   0.00000  Uiso   1.00
O1123  O     0.82307   0.54274   0.77282   0.00000  Uiso   1.00
O1124  O     0.67693   0.95726   0.22718   0.00000  Uiso   1.00
O1125  O     0.95725   0.67693   0.22718   0.00000  Uiso   1.00
O1126  O     0.54274   0.82307   0.77282   0.00000  Uiso   1.00
O1127  O     0.67693   0.54274   0.22718   0.00000  Uiso   1.00
O1128  O     0.82307   0.95726   0.77282   0.00000  Uiso   1.00
O1129  O     0.54274   0.82307   0.22718   0.00000  Uiso   1.00
O1130  O     0.75000   0.96964   0.33683   0.00000  Uiso   1.00
O1131  O     0.95725   0.67693   0.77282   0.00000  Uiso   1.00
O1132  O     0.82307   0.95726   0.22718   0.00000  Uiso   1.00
O1133  O     0.67693   0.54274   0.77282   0.00000  Uiso   1.00
O1134  O     0.69566   0.54001   0.02439   0.00000  Uiso   1.00
O1135  O     0.80432   0.54000   0.97554   0.00000  Uiso   1.00
O1136  O     0.96000   0.69567   0.02445   0.00000  Uiso   1.00
O1137  O     0.95999   0.80434   0.97561   0.00000  Uiso   1.00
O1138  O     0.80436   0.96005   0.02434   0.00000  Uiso   1.00
O1139  O     0.69566   0.96005   0.97572   0.00000  Uiso   1.00
O1140  O     0.53994   0.80435   0.02428   0.00000  Uiso   1.00
O1141  O     0.75000   0.53036   0.66317   0.00000  Uiso   1.00
O1142  O     0.53996   0.69565   0.97566   0.00000  Uiso   1.00
O1143  O     0.94567   0.79000   0.52439   0.00000  Uiso   1.00
O1144  O     0.55434   0.78997   0.47555   0.00000  Uiso   1.00
O1145  O     0.71004   0.94566   0.52445   0.00000  Uiso   1.00
O1146  O     0.71000   0.55433   0.47561   0.00000  Uiso   1.00
O1147  O     0.55435   0.71002   0.52435   0.00000  Uiso   1.00
O1148  O     0.94565   0.71005   0.47571   0.00000  Uiso   1.00
O1149  O     0.78995   0.55435   0.52429   0.00000  Uiso   1.00
O1150  O     0.78999   0.94565   0.47565   0.00000  Uiso   1.00
O1151  O     0.60314   0.94792   0.25722   0.00000  Uiso   1.00
O1152  O     0.53036   0.75000   0.33683   0.00000  Uiso   1.00
O1153  O     0.89569   0.55317   0.73350   0.00000  Uiso   1.00
O1154  O     0.55312   0.60428   0.26628   0.00000  Uiso   1.00
O1155  O     0.94687   0.89571   0.73369   0.00000  Uiso   1.00
O1156  O     0.89571   0.55313   0.26643   0.00000  Uiso   1.00
O1157  O     0.60738   0.94931   0.74664   0.00000  Uiso   1.00
O1158  O     0.94692   0.89578   0.26584   0.00000  Uiso   1.00
O1159  O     0.55311   0.60429   0.73391   0.00000  Uiso   1.00
O1160  O     0.60425   0.55311   0.73395   0.00000  Uiso   1.00
O1161  O     0.89574   0.94692   0.26588   0.00000  Uiso   1.00
O1162  O     0.55208   0.89686   0.74274   0.00000  Uiso   1.00
O1163  O     0.96964   0.75000   0.66317   0.00000  Uiso   1.00
O1164  O     0.94684   0.60430   0.26649   0.00000  Uiso   1.00
O1165  O     0.89571   0.94687   0.73369   0.00000  Uiso   1.00
O1166  O     0.60428   0.55312   0.26628   0.00000  Uiso   1.00
O1167  O     0.94686   0.60430   0.73355   0.00000  Uiso   1.00
O1168  O     0.55069   0.89262   0.25333   0.00000  Uiso   1.00
O1169  O     0.85431   0.69683   0.76650   0.00000  Uiso   1.00
O1170  O     0.64686   0.80208   0.24278   0.00000  Uiso   1.00
O1171  O     0.80313   0.85429   0.76631   0.00000  Uiso   1.00
O1172  O     0.69688   0.64571   0.23371   0.00000  Uiso   1.00
O1173  O     0.64262   0.80069   0.75337   0.00000  Uiso   1.00
O1174  O     0.75000   0.53036   0.33683   0.00000  Uiso   1.00
O1175  O     0.85429   0.69687   0.23356   0.00000  Uiso   1.00
O1176  O     0.69689   0.64571   0.76609   0.00000  Uiso   1.00
O1177  O     0.80308   0.85423   0.23415   0.00000  Uiso   1.00
O1178  O     0.85426   0.80308   0.23412   0.00000  Uiso   1.00
O1179  O     0.64575   0.69689   0.76605   0.00000  Uiso   1.00
O1180  O     0.80316   0.64570   0.23352   0.00000  Uiso   1.00
O1181  O     0.69792   0.85314   0.75726   0.00000  Uiso   1.00
O1182  O     0.64572   0.69688   0.23372   0.00000  Uiso   1.00
O1183  O     0.85429   0.80313   0.76632   0.00000  Uiso   1.00
O1184  O     0.69931   0.85738   0.24668   0.00000  Uiso   1.00
Zn1185 Zn    0.70660   0.50000   0.21760   0.00000  Uiso   1.00
Zn1186 Zn    0.54340   0.75000   0.28240   0.00000  Uiso   1.00
Zn1187 Zn    0.75000   0.95660   0.71760   0.00000  Uiso   1.00
Zn1188 Zn    0.75000   0.54340   0.28240   0.00000  Uiso   1.00
Zn1189 Zn    0.54340   0.75000   0.71760   0.00000  Uiso   1.00
Zn1190 Zn    0.95660   0.75000   0.28240   0.00000  Uiso   1.00
Zn1191 Zn    0.75000   0.54340   0.71760   0.00000  Uiso   1.00
Zn1192 Zn    0.75000   0.95660   0.28240   0.00000  Uiso   1.00
Zn1193 Zn    0.79340   0.50000   0.78240   0.00000  Uiso   1.00
Zn1194 Zn    0.50000   0.70660   0.21760   0.00000  Uiso   1.00
Zn1195 Zn    0.50000   0.79340   0.78240   0.00000  Uiso   1.00
Zn1196 Zn    0.79340   0.50000   0.21760   0.00000  Uiso   1.00
Zn1197 Zn    0.70660   0.50000   0.78240   0.00000  Uiso   1.00
Zn1198 Zn    0.50000   0.79340   0.21760   0.00000  Uiso   1.00
Zn1199 Zn    0.50000   0.70660   0.78240   0.00000  Uiso   1.00
Zn1200 Zn    0.95660   0.75000   0.71760   0.00000  Uiso   1.00
loop_
_geom_bond_atom_site_label_1
_geom_bond_atom_site_label_2
_geom_bond_distance
_geom_bond_site_symmetry_2
_ccdc_geom_bond_type
C1     C48     1.422   .     A
C1     O234    1.383   .     S
C1     C30     1.392   .     A
C2     C40     1.392   .     A
C2     O244    1.383   .     S
C2     C53     1.422   .     S
C3     C103    1.416   .     A
C3     C96     1.416   .     A
C3     C67     1.453   .     S
C4     C106    1.416   .     A
C4     C68     1.453   .     S
C4     C95     1.416   .     A
C5     C105    1.406   .     A
C5     C94     1.415   .     A
C5     C69     1.456   .     S
C6     C93     1.416   .     A
C6     C70     1.452   .     S
C6     C108    1.416   .     A
C7     C92     1.416   .     A
C7     C107    1.416   .     A
C7     C71     1.452   .     S
C8     C81     1.452   .     S
C8     C111    1.416   .     A
C8     C91     1.416   .     A
C9     C90     1.416   .     A
C9     C82     1.452   .     S
C9     C109    1.416   .     A
C10    C113    1.415   .     A
C10    C89     1.406   .     A
C10    C74     1.455   .     S
C11    C112    1.416   .     A
C11    C87     1.416   .     A
C11    C75     1.453   .     S
C12    C115    1.416   .     A
C12    C86     1.416   .     A
C12    C76     1.453   .     S
C13    O245    1.383   .     S
C13    C41     1.392   .     A
C13    C654    1.422   .     S
C14    C114    1.416   .     A
C14    C85     1.416   .     A
C14    C78     1.453   .     S
C15    C84     1.416   .     A
C15    C79     1.453   .     S
C15    C117    1.416   .     A
C16    C80     1.456   .     S
C16    C116    1.406   .     A
C16    C83     1.415   .     A
C17    C30     1.397   .     A
C17    C64     1.460   .     S
C17    C635    1.397   1_545 S
C18    C31     1.397   .     A
C18    C63     1.460   .     S
C18    C636    1.397   1_545 S
C19    C32     1.397   .     A
C19    C362    1.460   .     S
C19    C337    1.397   .     S
C20    C361    1.460   .     S
C20    C34     1.397   .     A
C20    C338    1.397   .     S
C21    C60     1.460   .     S
C21    C43     1.397   .     A
C21    C339    1.397   1_455 S
C22    C45     1.397   .     A
C22    C59     1.460   .     S
C22    C340    1.397   .     S
C23    C58     1.460   .     S
C23    C46     1.397   .     A
C23    C641    1.397   1_545 S
C24    C42     1.392   .     A
C24    O246    1.383   .     S
C24    C56     1.422   .     S
C25    C57     1.460   .     S
C25    C47     1.397   .     A
C25    C642    1.397   .     S
C26    O247    1.383   .     S
C26    C43     1.392   .     A
C26    C52     1.422   .     A
C27    C353    1.422   .     A
C27    C45     1.392   .     A
C27    O248    1.383   .     S
C28    O249    1.383   .     S
C28    C54     1.422   .     A
C28    C46     1.392   .     A
C29    C47     1.392   .     A
C29    C656    1.422   .     A
C29    O250    1.383   .     S
C30    H121    1.084   .     S
C31    C33     1.392   .     A
C31    H132    1.084   .     S
C32    H143    1.084   .     S
C32    C44     1.392   .     A
C33    C49     1.422   .     A
C33    O235    1.383   .     S
C34    C55     1.392   .     A
C34    H154    1.084   .     S
C35    C66     1.392   .     A
C35    H165    1.084   .     S
C35    C617    1.397   .     S
C36    C77     1.392   .     A
C36    H176    1.084   .     S
C36    C618    1.397   .     S
C37    C88     1.392   .     A
C37    H182    1.084   .     S
C37    C319    1.397   1_455 S
C38    C99     1.393   .     A
C38    H183    1.084   .     S
C38    C320    1.397   1_455 S
C39    H184    1.084   .     S
C39    C110    1.392   .     A
C39    C321    1.397   .     S
C40    H122    1.084   .     S
C40    C322    1.397   1_455 S
C41    H123    1.084   .     S
C41    C623    1.397   .     S
C42    H124    1.084   .     S
C42    C625    1.397   1_545 S
C43    H125    1.084   .     S
C44    O236    1.383   .     S
C44    C50     1.422   .     A
C45    H126    1.084   .     S
C46    H127    1.084   .     S
C47    H128    1.084   .     S
C48    C49     1.475   1_554 S
C48    C666    1.422   1_545 S
C49    C48     1.475   1_556 S
C49    C677    1.422   1_545 S
C50    C51     1.475   1_554 S
C50    C388    1.422   .     S
C51    C55     1.422   .     A
C51    C50     1.475   1_556 S
C51    C399    1.422   .     S
C52    C53     1.475   .     S
C52    C410    1.422   1_455 S
C53    C327    1.422   1_455 A
C54    C613    1.422   1_545 S
C54    C56     1.475   .     S
C55    O237    1.383   .     S
C56    C629    1.422   1_545 A
C57    O230    1.280   .     A
C57    O874    1.280   .     S
C58    O241    1.280   .     A
C58    O786    1.280   1_545 S
C59    O188    1.280   .     A
C59    O552    1.280   .     S
C60    O189    1.280   .     A
C60    O563    1.280   1_455 S
C61    C320    1.460   1_455 S
C61    O190    1.280   .     A
C61    O194    1.280   .     A
C62    O191    1.280   .     A
C62    O195    1.280   .     A
C62    C319    1.460   1_455 S
C63    O192    1.280   .     S
C63    O196    1.280   .     S
C64    O193    1.280   .     S
C64    O198    1.280   .     S
C65    O199    1.277   .     A
C65    C120    1.453   .     S
C65    O227    1.277   .     A
C66    O238    1.383   .     S
C66    C648    1.422   .     S
C67    O200    1.277   .     A
C67    O228    1.277   .     A
C68    O225    1.276   .     A
C68    O201    1.276   .     A
C69    O226    1.279   .     A
C69    O202    1.276   .     A
C70    O203    1.276   .     A
C70    O232    1.276   .     A
C71    O204    1.276   .     A
C71    O233    1.276   .     A
C72    C118    1.455   .     S
C72    O205    1.279   .     A
C72    O229    1.276   .     A
C73    O206    1.276   .     A
C73    C119    1.453   .     S
C73    O231    1.276   .     A
C74    O207    1.279   .     A
C74    O218    1.276   .     A
C75    O209    1.276   .     A
C75    O220    1.276   .     A
C76    O210    1.277   .     A
C76    O216    1.277   .     A
C77    O239    1.383   .     S
C77    C649    1.422   .     S
C78    O217    1.277   .     A
C78    O211    1.277   .     A
C79    O212    1.276   .     A
C79    O223    1.276   .     A
C80    O224    1.279   .     A
C80    O213    1.276   .     A
C81    O221    1.276   .     A
C81    O214    1.276   .     A
C82    O222    1.276   .     A
C82    O215    1.276   .     A
C83    C100    1.404   .     A
C83    O251    1.384   .     S
C84    O253    1.385   .     S
C84    C98     1.392   .     A
C85    C97     1.392   .     A
C85    O254    1.385   .     S
C86    C96     1.392   .     A
C86    O255    1.385   .     S
C87    O256    1.385   .     S
C87    C95     1.392   .     A
C88    O240    1.383   .     S
C88    C350    1.422   1_455 S
C89    C94     1.404   .     A
C89    O257    1.386   .     S
C90    O258    1.385   .     S
C90    C93     1.392   .     A
C91    C92     1.392   .     A
C91    O259    1.385   .     S
C92    O260    1.385   .     S
C93    O261    1.385   .     S
C94    O262    1.384   .     S
C95    O264    1.385   .     S
C96    O265    1.385   .     S
C97    O266    1.385   .     S
C97    C120    1.416   .     A
C98    O267    1.385   .     S
C98    C119    1.416   .     A
C99    O242    1.383   .     S
C99    C351    1.422   1_455 S
C100   O268    1.386   .     S
C100   C118    1.406   .     A
C101   O269    1.385   .     S
C101   C117    1.392   .     A
C101   C119    1.416   .     A
C102   O270    1.384   .     S
C102   C118    1.415   .     A
C102   C116    1.404   .     A
C103   O271    1.385   .     S
C103   C115    1.392   .     A
C104   O272    1.385   .     S
C104   C120    1.416   .     A
C104   C114    1.392   .     A
C105   O273    1.386   .     S
C105   C113    1.404   .     A
C106   O275    1.385   .     S
C106   C112    1.392   .     A
C107   C111    1.392   .     A
C107   O276    1.385   .     S
C108   C109    1.392   .     A
C108   O277    1.385   .     S
C109   O278    1.385   .     S
C110   O243    1.383   .     S
C110   C352    1.422   .     S
C111   O279    1.385   .     S
C112   O280    1.385   .     S
C113   O281    1.384   .     S
C114   O282    1.385   .     S
C115   O283    1.385   .     S
C116   O284    1.386   .     S
C117   O187    1.385   .     S
H129   O234    0.988   1_556 S
H130   O235    0.988   1_554 S
H131   O236    0.988   1_556 S
H133   O237    0.988   1_554 S
H134   O238    0.988   1_556 S
H135   O239    0.988   1_554 S
H136   O240    0.988   1_556 S
H137   O242    0.988   1_554 S
H138   O243    0.988   .     S
H139   O244    0.988   .     S
H140   O245    0.988   .     S
H141   O246    0.988   .     S
H142   O247    0.988   .     S
H144   O248    0.988   .     S
H145   O249    0.988   .     S
H146   O250    0.988   .     S
H147   O251    0.989   .     S
H148   O253    0.988   .     S
H149   O254    0.988   .     S
H150   O255    0.988   .     S
H151   O256    0.989   .     S
H152   O257    0.989   .     S
H153   O258    0.988   .     S
H155   O259    0.988   .     S
H156   O260    0.988   .     S
H157   O261    0.988   .     S
H158   O262    0.989   .     S
H159   O264    0.989   .     S
H160   O265    0.988   .     S
H161   O266    0.988   .     S
H162   O267    0.988   .     S
H163   O268    0.989   .     S
H164   O269    0.988   .     S
H166   O270    0.989   .     S
H167   O271    0.988   .     S
H168   O272    0.988   .     S
H169   O273    0.989   .     S
H170   O275    0.989   .     S
H171   O276    0.988   .     S
H172   O277    0.988   .     S
H173   O278    0.988   .     S
H174   O279    0.988   .     S
H175   O280    0.989   .     S
H177   O281    0.989   .     S
H178   O282    0.988   .     S
H179   O283    0.988   .     S
H180   O284    0.989   .     S
H181   O187    0.988   .     S
O185   Zn296   1.943   .     S
O185   Zn285   1.945   .     S
O185   Zn892   1.943   1_545 S
O185   Zn288   1.945   .     S
O186   Zn287   1.939   .     S
O186   C658    1.280   .     S
O188   Zn290   1.939   .     S
O189   Zn289   1.939   .     S
O190   Zn299   1.939   .     S
O191   Zn298   1.939   .     S
O192   Zn293   1.939   .     S
O193   Zn285   1.939   .     S
O194   Zn295   1.939   .     S
O195   Zn294   1.939   .     S
O196   Zn297   1.939   .     S
O197   Zn297   1.943   .     S
O197   Zn887   1.945   1_545 S
O197   Zn293   1.945   .     S
O197   Zn291   1.943   .     S
O198   Zn296   1.939   .     S
O199   Zn288   1.934   .     S
O200   Zn287   1.934   .     S
O201   Zn290   1.935   .     S
O202   Zn289   1.935   .     S
O203   Zn292   1.934   .     S
O204   Zn291   1.934   .     S
O205   Zn286   1.934   .     S
O206   Zn300   1.934   .     S
O207   Zn287   1.934   .     S
O208   Zn298   1.943   .     S
O208   Zn286   1.945   .     S
O208   Zn590   1.943   1_455 S
O208   Zn294   1.945   .     S
O209   Zn288   1.934   .     S
O210   Zn300   1.934   .     S
O211   Zn286   1.934   .     S
O212   Zn291   1.935   .     S
O213   Zn292   1.935   .     S
O214   Zn289   1.934   .     S
O215   Zn290   1.934   .     S
O216   Zn595   1.934   .     S
O217   Zn294   1.934   .     S
O218   Zn897   1.935   .     S
O219   Zn289   1.943   .     S
O219   Zn295   1.945   .     S
O219   Zn299   1.943   .     S
O219   Zn600   1.945   1_455 S
O220   Zn296   1.935   .     S
O221   Zn299   1.934   .     S
O222   Zn598   1.934   .     S
O223   Zn293   1.934   .     S
O224   Zn885   1.934   .     S
O225   Zn594   1.934   .     S
O226   Zn295   1.934   .     S
O227   Zn285   1.934   .     S
O228   Zn893   1.934   .     S
O229   Zn298   1.935   .     S
O230   Zn292   1.939   .     S
O231   Zn599   1.935   .     S
O232   Zn896   1.934   .     S
O233   Zn297   1.934   .     S
O234   H129    0.988   1_554 S
O235   H130    0.988   1_556 S
O236   H131    0.988   1_554 S
O237   H133    0.988   1_556 S
O238   H134    0.988   1_554 S
O239   H135    0.988   1_556 S
O240   H136    0.988   1_554 S
O241   Zn291   1.939   .     S
O242   H137    0.988   1_556 S
O252   Zn286   1.939   .     S
O252   C359    1.280   1_455 S
O263   Zn300   1.939   .     S
O263   C360    1.280   .     S
O274   Zn288   1.939   .     S
O274   C657    1.280   1_545 S
Zn285  O824    1.934   1_545 S
Zn287  O797    1.945   .     S
Zn290  O508    1.943   .     S
Zn292  O785    1.943   .     S
Zn293  O828    1.934   1_545 S
Zn294  O525    1.934   1_455 S
Zn295  O516    1.934   1_455 S
Zn296  O832    1.934   1_545 S
Zn297  O818    1.935   1_545 S
Zn298  O522    1.934   1_455 S
Zn299  O531    1.935   1_455 S
Zn300  O519    1.945   .     S
C301   C348    1.422   .     A
C301   O534    1.383   .     S
C301   C330    1.392   .     A
C302   C340    1.392   .     A
C302   O544    1.383   .     S
C302   C353    1.422   .     S
C303   C403    1.416   .     A
C303   C396    1.416   .     A
C303   C367    1.453   .     S
C304   C406    1.416   .     A
C304   C368    1.453   .     S
C304   C395    1.416   .     A
C305   C405    1.406   .     A
C305   C394    1.415   .     A
C305   C369    1.456   .     S
C306   C393    1.416   .     A
C306   C370    1.452   .     S
C306   C408    1.416   .     A
C307   C392    1.416   .     A
C307   C407    1.416   .     A
C307   C371    1.452   .     S
C308   C381    1.452   .     S
C308   C411    1.416   .     A
C308   C391    1.416   .     A
C309   C390    1.416   .     A
C309   C382    1.452   .     S
C309   C409    1.416   .     A
C310   C413    1.415   .     A
C310   C389    1.406   .     A
C310   C374    1.455   .     S
C311   C412    1.416   .     A
C311   C387    1.416   .     A
C311   C375    1.453   .     S
C312   C415    1.416   .     A
C312   C386    1.416   .     A
C312   C376    1.453   .     S
C313   O545    1.383   .     S
C313   C341    1.392   .     A
C313   C954    1.422   .     S
C314   C414    1.416   .     A
C314   C385    1.416   .     A
C314   C378    1.453   .     S
C315   C384    1.416   .     A
C315   C379    1.453   .     S
C315   C417    1.416   .     A
C316   C380    1.456   .     S
C316   C416    1.406   .     A
C316   C383    1.415   .     A
C317   C330    1.397   .     A
C317   C364    1.460   .     S
C317   C935    1.397   1_545 S
C318   C331    1.397   .     A
C318   C363    1.460   .     S
C318   C936    1.397   1_545 S
C319   C332    1.397   .     A
C319   C62     1.460   1_655 S
C319   C37     1.397   1_655 S
C320   C61     1.460   1_655 S
C320   C334    1.397   .     A
C320   C38     1.397   1_655 S
C321   C360    1.460   .     S
C321   C343    1.397   .     A
C322   C345    1.397   .     A
C322   C359    1.460   .     S
C322   C40     1.397   1_655 S
C323   C358    1.460   .     S
C323   C346    1.397   .     A
C323   C941    1.397   1_545 S
C324   C342    1.392   .     A
C324   O546    1.383   .     S
C324   C356    1.422   .     S
C325   C357    1.460   .     S
C325   C347    1.397   .     A
C325   C942    1.397   .     S
C326   O547    1.383   .     S
C326   C343    1.392   .     A
C326   C352    1.422   .     A
C327   C53     1.422   1_655 A
C327   C345    1.392   .     A
C327   O548    1.383   .     S
C328   O549    1.383   .     S
C328   C354    1.422   .     A
C328   C346    1.392   .     A
C329   C347    1.392   .     A
C329   C956    1.422   .     A
C329   O550    1.383   .     S
C330   H421    1.084   .     S
C331   C333    1.392   .     A
C331   H432    1.084   .     S
C332   H443    1.084   .     S
C332   C344    1.392   .     A
C333   C349    1.422   .     A
C333   O535    1.383   .     S
C334   C355    1.392   .     A
C334   H454    1.084   .     S
C335   C366    1.392   .     A
C335   H465    1.084   .     S
C335   C917    1.397   .     S
C336   C377    1.392   .     A
C336   H476    1.084   .     S
C336   C918    1.397   .     S
C337   C388    1.392   .     A
C337   H482    1.084   .     S
C338   C399    1.393   .     A
C338   H483    1.084   .     S
C339   H484    1.084   .     S
C339   C410    1.392   .     A
C339   C21     1.397   1_655 S
C340   H422    1.084   .     S
C341   H423    1.084   .     S
C341   C923    1.397   .     S
C342   H424    1.084   .     S
C342   C925    1.397   1_545 S
C343   H425    1.084   .     S
C344   O536    1.383   .     S
C344   C350    1.422   .     A
C345   H426    1.084   .     S
C346   H427    1.084   .     S
C347   H428    1.084   .     S
C348   C349    1.475   1_554 S
C348   C966    1.422   1_545 S
C349   C348    1.475   1_556 S
C349   C977    1.422   1_545 S
C350   C351    1.475   1_554 S
C350   C88     1.422   1_655 S
C351   C355    1.422   .     A
C351   C350    1.475   1_556 S
C351   C99     1.422   1_655 S
C352   C353    1.475   .     S
C354   C913    1.422   1_545 S
C354   C356    1.475   .     S
C355   O537    1.383   .     S
C356   C929    1.422   1_545 A
C357   O530    1.280   .     A
C357   O1174   1.280   .     S
C358   O541    1.280   .     A
C358   O1086   1.280   1_545 S
C359   O488    1.280   .     A
C359   O252    1.280   1_655 S
C360   O489    1.280   .     A
C361   O490    1.280   .     A
C361   O494    1.280   .     A
C362   O491    1.280   .     A
C362   O495    1.280   .     A
C363   O492    1.280   .     S
C363   O496    1.280   .     S
C364   O493    1.280   .     S
C364   O498    1.280   .     S
C365   O499    1.277   .     A
C365   C420    1.453   .     S
C365   O527    1.277   .     A
C366   O538    1.383   .     S
C366   C948    1.422   .     S
C367   O500    1.277   .     A
C367   O528    1.277   .     A
C368   O525    1.276   .     A
C368   O501    1.276   .     A
C369   O526    1.279   .     A
C369   O502    1.276   .     A
C370   O503    1.276   .     A
C370   O532    1.276   .     A
C371   O504    1.276   .     A
C371   O533    1.276   .     A
C372   C418    1.455   .     S
C372   O505    1.279   .     A
C372   O529    1.276   .     A
C373   O506    1.276   .     A
C373   C419    1.453   .     S
C373   O531    1.276   .     A
C374   O507    1.279   .     A
C374   O518    1.276   .     A
C375   O509    1.276   .     A
C375   O520    1.276   .     A
C376   O510    1.277   .     A
C376   O516    1.277   .     A
C377   O539    1.383   .     S
C377   C949    1.422   .     S
C378   O517    1.277   .     A
C378   O511    1.277   .     A
C379   O512    1.276   .     A
C379   O523    1.276   .     A
C380   O524    1.279   .     A
C380   O513    1.276   .     A
C381   O521    1.276   .     A
C381   O514    1.276   .     A
C382   O522    1.276   .     A
C382   O515    1.276   .     A
C383   C400    1.404   .     A
C383   O551    1.384   .     S
C384   O553    1.385   .     S
C384   C398    1.392   .     A
C385   C397    1.392   .     A
C385   O554    1.385   .     S
C386   C396    1.392   .     A
C386   O555    1.385   .     S
C387   O556    1.385   .     S
C387   C395    1.392   .     A
C388   O540    1.383   .     S
C389   C394    1.404   .     A
C389   O557    1.386   .     S
C390   O558    1.385   .     S
C390   C393    1.392   .     A
C391   C392    1.392   .     A
C391   O559    1.385   .     S
C392   O560    1.385   .     S
C393   O561    1.385   .     S
C394   O562    1.384   .     S
C395   O564    1.385   .     S
C396   O565    1.385   .     S
C397   O566    1.385   .     S
C397   C420    1.416   .     A
C398   O567    1.385   .     S
C398   C419    1.416   .     A
C399   O542    1.383   .     S
C400   O568    1.386   .     S
C400   C418    1.406   .     A
C401   O569    1.385   .     S
C401   C417    1.392   .     A
C401   C419    1.416   .     A
C402   O570    1.384   .     S
C402   C418    1.415   .     A
C402   C416    1.404   .     A
C403   O571    1.385   .     S
C403   C415    1.392   .     A
C404   O572    1.385   .     S
C404   C420    1.416   .     A
C404   C414    1.392   .     A
C405   O573    1.386   .     S
C405   C413    1.404   .     A
C406   O575    1.385   .     S
C406   C412    1.392   .     A
C407   C411    1.392   .     A
C407   O576    1.385   .     S
C408   C409    1.392   .     A
C408   O577    1.385   .     S
C409   O578    1.385   .     S
C410   O543    1.383   .     S
C410   C52     1.422   1_655 S
C411   O579    1.385   .     S
C412   O580    1.385   .     S
C413   O581    1.384   .     S
C414   O582    1.385   .     S
C415   O583    1.385   .     S
C416   O584    1.386   .     S
C417   O487    1.385   .     S
H429   O534    0.988   1_556 S
H430   O535    0.988   1_554 S
H431   O536    0.988   1_556 S
H433   O537    0.988   1_554 S
H434   O538    0.988   1_556 S
H435   O539    0.988   1_554 S
H436   O540    0.988   1_556 S
H437   O542    0.988   1_554 S
H438   O543    0.988   .     S
H439   O544    0.988   .     S
H440   O545    0.988   .     S
H441   O546    0.988   .     S
H442   O547    0.988   .     S
H444   O548    0.988   .     S
H445   O549    0.988   .     S
H446   O550    0.988   .     S
H447   O551    0.989   .     S
H448   O553    0.988   .     S
H449   O554    0.988   .     S
H450   O555    0.988   .     S
H451   O556    0.989   .     S
H452   O557    0.989   .     S
H453   O558    0.988   .     S
H455   O559    0.988   .     S
H456   O560    0.988   .     S
H457   O561    0.988   .     S
H458   O562    0.989   .     S
H459   O564    0.989   .     S
H460   O565    0.988   .     S
H461   O566    0.988   .     S
H462   O567    0.988   .     S
H463   O568    0.989   .     S
H464   O569    0.988   .     S
H466   O570    0.989   .     S
H467   O571    0.988   .     S
H468   O572    0.988   .     S
H469   O573    0.989   .     S
H470   O575    0.989   .     S
H471   O576    0.988   .     S
H472   O577    0.988   .     S
H473   O578    0.988   .     S
H474   O579    0.988   .     S
H475   O580    0.989   .     S
H477   O581    0.989   .     S
H478   O582    0.988   .     S
H479   O583    0.988   .     S
H480   O584    0.989   .     S
H481   O487    0.988   .     S
O485   Zn596   1.943   .     S
O485   Zn585   1.945   .     S
O485   Zn1192  1.943   1_545 S
O485   Zn588   1.945   .     S
O486   Zn587   1.939   .     S
O486   C958    1.280   .     S
O488   Zn590   1.939   .     S
O489   Zn589   1.939   .     S
O490   Zn599   1.939   .     S
O491   Zn598   1.939   .     S
O492   Zn593   1.939   .     S
O493   Zn585   1.939   .     S
O494   Zn595   1.939   .     S
O495   Zn594   1.939   .     S
O496   Zn597   1.939   .     S
O497   Zn597   1.943   .     S
O497   Zn1187  1.945   1_545 S
O497   Zn593   1.945   .     S
O497   Zn591   1.943   .     S
O498   Zn596   1.939   .     S
O499   Zn588   1.934   .     S
O500   Zn587   1.934   .     S
O501   Zn590   1.935   .     S
O502   Zn589   1.935   .     S
O503   Zn592   1.934   .     S
O504   Zn591   1.934   .     S
O505   Zn586   1.934   .     S
O506   Zn600   1.934   .     S
O507   Zn587   1.934   .     S
O508   Zn598   1.943   .     S
O508   Zn586   1.945   .     S
O508   Zn594   1.945   .     S
O509   Zn588   1.934   .     S
O510   Zn600   1.934   .     S
O511   Zn586   1.934   .     S
O512   Zn591   1.935   .     S
O513   Zn592   1.935   .     S
O514   Zn589   1.934   .     S
O515   Zn590   1.934   .     S
O516   Zn295   1.934   1_655 S
O517   Zn594   1.934   .     S
O518   Zn1197  1.935   .     S
O519   Zn589   1.943   .     S
O519   Zn595   1.945   .     S
O519   Zn599   1.943   .     S
O520   Zn596   1.935   .     S
O521   Zn599   1.934   .     S
O522   Zn298   1.934   1_655 S
O523   Zn593   1.934   .     S
O524   Zn1185  1.934   .     S
O525   Zn294   1.934   1_655 S
O526   Zn595   1.934   .     S
O527   Zn585   1.934   .     S
O528   Zn1193  1.934   .     S
O529   Zn598   1.935   .     S
O530   Zn592   1.939   .     S
O531   Zn299   1.935   1_655 S
O532   Zn1196  1.934   .     S
O533   Zn597   1.934   .     S
O534   H429    0.988   1_554 S
O535   H430    0.988   1_556 S
O536   H431    0.988   1_554 S
O537   H433    0.988   1_556 S
O538   H434    0.988   1_554 S
O539   H435    0.988   1_556 S
O540   H436    0.988   1_554 S
O541   Zn591   1.939   .     S
O542   H437    0.988   1_556 S
O552   Zn586   1.939   .     S
O563   Zn600   1.939   .     S
O563   C60     1.280   1_655 S
O574   Zn588   1.939   .     S
O574   C957    1.280   1_545 S
Zn585  O1124   1.934   1_545 S
Zn587  O1097   1.945   .     S
Zn590  O208    1.943   1_655 S
Zn592  O1085   1.943   .     S
Zn593  O1128   1.934   1_545 S
Zn596  O1132   1.934   1_545 S
Zn597  O1118   1.935   1_545 S
Zn600  O219    1.945   1_655 S
C601   C648    1.422   .     A
C601   O834    1.383   .     S
C601   C630    1.392   .     A
C602   C640    1.392   .     A
C602   O844    1.383   .     S
C602   C653    1.422   .     S
C603   C703    1.416   .     A
C603   C696    1.416   .     A
C603   C667    1.453   .     S
C604   C706    1.416   .     A
C604   C668    1.453   .     S
C604   C695    1.416   .     A
C605   C705    1.406   .     A
C605   C694    1.415   .     A
C605   C669    1.456   .     S
C606   C693    1.416   .     A
C606   C670    1.452   .     S
C606   C708    1.416   .     A
C607   C692    1.416   .     A
C607   C707    1.416   .     A
C607   C671    1.452   .     S
C608   C681    1.452   .     S
C608   C711    1.416   .     A
C608   C691    1.416   .     A
C609   C690    1.416   .     A
C609   C682    1.452   .     S
C609   C709    1.416   .     A
C610   C713    1.415   .     A
C610   C689    1.406   .     A
C610   C674    1.455   .     S
C611   C712    1.416   .     A
C611   C687    1.416   .     A
C611   C675    1.453   .     S
C612   C715    1.416   .     A
C612   C686    1.416   .     A
C612   C676    1.453   .     S
C613   O845    1.383   .     S
C613   C641    1.392   .     A
C613   C54     1.422   1_565 S
C614   C714    1.416   .     A
C614   C685    1.416   .     A
C614   C678    1.453   .     S
C615   C684    1.416   .     A
C615   C679    1.453   .     S
C615   C717    1.416   .     A
C616   C680    1.456   .     S
C616   C716    1.406   .     A
C616   C683    1.415   .     A
C617   C630    1.397   .     A
C617   C664    1.460   .     S
C618   C631    1.397   .     A
C618   C663    1.460   .     S
C619   C632    1.397   .     A
C619   C962    1.460   .     S
C619   C937    1.397   .     S
C620   C961    1.460   .     S
C620   C634    1.397   .     A
C620   C938    1.397   .     S
C621   C660    1.460   .     S
C621   C643    1.397   .     A
C621   C939    1.397   1_455 S
C622   C645    1.397   .     A
C622   C659    1.460   .     S
C622   C940    1.397   .     S
C623   C658    1.460   .     S
C623   C646    1.397   .     A
C624   C642    1.392   .     A
C624   O846    1.383   .     S
C624   C656    1.422   .     S
C625   C657    1.460   .     S
C625   C647    1.397   .     A
C625   C42     1.397   1_565 S
C626   O847    1.383   .     S
C626   C643    1.392   .     A
C626   C652    1.422   .     A
C627   C953    1.422   .     A
C627   C645    1.392   .     A
C627   O848    1.383   .     S
C628   O849    1.383   .     S
C628   C654    1.422   .     A
C628   C646    1.392   .     A
C629   C647    1.392   .     A
C629   C56     1.422   1_565 A
C629   O850    1.383   .     S
C630   H721    1.084   .     S
C631   C633    1.392   .     A
C631   H732    1.084   .     S
C632   H743    1.084   .     S
C632   C644    1.392   .     A
C633   C649    1.422   .     A
C633   O835    1.383   .     S
C634   C655    1.392   .     A
C634   H754    1.084   .     S
C635   C666    1.392   .     A
C635   H765    1.084   .     S
C635   C17     1.397   1_565 S
C636   C677    1.392   .     A
C636   H776    1.084   .     S
C636   C18     1.397   1_565 S
C637   C688    1.392   .     A
C637   H782    1.084   .     S
C637   C919    1.397   1_455 S
C638   C699    1.393   .     A
C638   H783    1.084   .     S
C638   C920    1.397   1_455 S
C639   H784    1.084   .     S
C639   C710    1.392   .     A
C639   C921    1.397   .     S
C640   H722    1.084   .     S
C640   C922    1.397   1_455 S
C641   H723    1.084   .     S
C641   C23     1.397   1_565 S
C642   H724    1.084   .     S
C643   H725    1.084   .     S
C644   O836    1.383   .     S
C644   C650    1.422   .     A
C645   H726    1.084   .     S
C646   H727    1.084   .     S
C647   H728    1.084   .     S
C648   C649    1.475   1_554 S
C649   C648    1.475   1_556 S
C650   C651    1.475   1_554 S
C650   C988    1.422   .     S
C651   C655    1.422   .     A
C651   C650    1.475   1_556 S
C651   C999    1.422   .     S
C652   C653    1.475   .     S
C652   C1010   1.422   1_455 S
C653   C927    1.422   1_455 A
C654   C656    1.475   .     S
C655   O837    1.383   .     S
C657   O830    1.280   .     A
C657   O274    1.280   1_565 S
C658   O841    1.280   .     A
C659   O788    1.280   .     A
C659   O1152   1.280   .     S
C660   O789    1.280   .     A
C660   O1163   1.280   1_455 S
C661   C920    1.460   1_455 S
C661   O790    1.280   .     A
C661   O794    1.280   .     A
C662   O791    1.280   .     A
C662   O795    1.280   .     A
C662   C919    1.460   1_455 S
C663   O792    1.280   .     S
C663   O796    1.280   .     S
C664   O793    1.280   .     S
C664   O798    1.280   .     S
C665   O799    1.277   .     A
C665   C720    1.453   .     S
C665   O827    1.277   .     A
C666   O838    1.383   .     S
C666   C48     1.422   1_565 S
C667   O800    1.277   .     A
C667   O828    1.277   .     A
C668   O825    1.276   .     A
C668   O801    1.276   .     A
C669   O826    1.279   .     A
C669   O802    1.276   .     A
C670   O803    1.276   .     A
C670   O832    1.276   .     A
C671   O804    1.276   .     A
C671   O833    1.276   .     A
C672   C718    1.455   .     S
C672   O805    1.279   .     A
C672   O829    1.276   .     A
C673   O806    1.276   .     A
C673   C719    1.453   .     S
C673   O831    1.276   .     A
C674   O807    1.279   .     A
C674   O818    1.276   .     A
C675   O809    1.276   .     A
C675   O820    1.276   .     A
C676   O810    1.277   .     A
C676   O816    1.277   .     A
C677   O839    1.383   .     S
C677   C49     1.422   1_565 S
C678   O817    1.277   .     A
C678   O811    1.277   .     A
C679   O812    1.276   .     A
C679   O823    1.276   .     A
C680   O824    1.279   .     A
C680   O813    1.276   .     A
C681   O821    1.276   .     A
C681   O814    1.276   .     A
C682   O822    1.276   .     A
C682   O815    1.276   .     A
C683   C700    1.404   .     A
C683   O851    1.384   .     S
C684   O853    1.385   .     S
C684   C698    1.392   .     A
C685   C697    1.392   .     A
C685   O854    1.385   .     S
C686   C696    1.392   .     A
C686   O855    1.385   .     S
C687   O856    1.385   .     S
C687   C695    1.392   .     A
C688   O840    1.383   .     S
C688   C950    1.422   1_455 S
C689   C694    1.404   .     A
C689   O857    1.386   .     S
C690   O858    1.385   .     S
C690   C693    1.392   .     A
C691   C692    1.392   .     A
C691   O859    1.385   .     S
C692   O860    1.385   .     S
C693   O861    1.385   .     S
C694   O862    1.384   .     S
C695   O864    1.385   .     S
C696   O865    1.385   .     S
C697   O866    1.385   .     S
C697   C720    1.416   .     A
C698   O867    1.385   .     S
C698   C719    1.416   .     A
C699   O842    1.383   .     S
C699   C951    1.422   1_455 S
C700   O868    1.386   .     S
C700   C718    1.406   .     A
C701   O869    1.385   .     S
C701   C717    1.392   .     A
C701   C719    1.416   .     A
C702   O870    1.384   .     S
C702   C718    1.415   .     A
C702   C716    1.404   .     A
C703   O871    1.385   .     S
C703   C715    1.392   .     A
C704   O872    1.385   .     S
C704   C720    1.416   .     A
C704   C714    1.392   .     A
C705   O873    1.386   .     S
C705   C713    1.404   .     A
C706   O875    1.385   .     S
C706   C712    1.392   .     A
C707   C711    1.392   .     A
C707   O876    1.385   .     S
C708   C709    1.392   .     A
C708   O877    1.385   .     S
C709   O878    1.385   .     S
C710   O843    1.383   .     S
C710   C952    1.422   .     S
C711   O879    1.385   .     S
C712   O880    1.385   .     S
C713   O881    1.384   .     S
C714   O882    1.385   .     S
C715   O883    1.385   .     S
C716   O884    1.386   .     S
C717   O787    1.385   .     S
H729   O834    0.988   1_556 S
H730   O835    0.988   1_554 S
H731   O836    0.988   1_556 S
H733   O837    0.988   1_554 S
H734   O838    0.988   1_556 S
H735   O839    0.988   1_554 S
H736   O840    0.988   1_556 S
H737   O842    0.988   1_554 S
H738   O843    0.988   .     S
H739   O844    0.988   .     S
H740   O845    0.988   .     S
H741   O846    0.988   .     S
H742   O847    0.988   .     S
H744   O848    0.988   .     S
H745   O849    0.988   .     S
H746   O850    0.988   .     S
H747   O851    0.989   .     S
H748   O853    0.988   .     S
H749   O854    0.988   .     S
H750   O855    0.988   .     S
H751   O856    0.989   .     S
H752   O857    0.989   .     S
H753   O858    0.988   .     S
H755   O859    0.988   .     S
H756   O860    0.988   .     S
H757   O861    0.988   .     S
H758   O862    0.989   .     S
H759   O864    0.989   .     S
H760   O865    0.988   .     S
H761   O866    0.988   .     S
H762   O867    0.988   .     S
H763   O868    0.989   .     S
H764   O869    0.988   .     S
H766   O870    0.989   .     S
H767   O871    0.988   .     S
H768   O872    0.988   .     S
H769   O873    0.989   .     S
H770   O875    0.989   .     S
H771   O876    0.988   .     S
H772   O877    0.988   .     S
H773   O878    0.988   .     S
H774   O879    0.988   .     S
H775   O880    0.989   .     S
H777   O881    0.989   .     S
H778   O882    0.988   .     S
H779   O883    0.988   .     S
H780   O884    0.989   .     S
H781   O787    0.988   .     S
O785   Zn896   1.943   .     S
O785   Zn885   1.945   .     S
O785   Zn888   1.945   .     S
O786   Zn887   1.939   .     S
O786   C58     1.280   1_565 S
O788   Zn890   1.939   .     S
O789   Zn889   1.939   .     S
O790   Zn899   1.939   .     S
O791   Zn898   1.939   .     S
O792   Zn893   1.939   .     S
O793   Zn885   1.939   .     S
O794   Zn895   1.939   .     S
O795   Zn894   1.939   .     S
O796   Zn897   1.939   .     S
O797   Zn897   1.943   .     S
O797   Zn893   1.945   .     S
O797   Zn891   1.943   .     S
O798   Zn896   1.939   .     S
O799   Zn888   1.934   .     S
O800   Zn887   1.934   .     S
O801   Zn890   1.935   .     S
O802   Zn889   1.935   .     S
O803   Zn892   1.934   .     S
O804   Zn891   1.934   .     S
O805   Zn886   1.934   .     S
O806   Zn900   1.934   .     S
O807   Zn887   1.934   .     S
O808   Zn898   1.943   .     S
O808   Zn886   1.945   .     S
O808   Zn1190  1.943   1_455 S
O808   Zn894   1.945   .     S
O809   Zn888   1.934   .     S
O810   Zn900   1.934   .     S
O811   Zn886   1.934   .     S
O812   Zn891   1.935   .     S
O813   Zn892   1.935   .     S
O814   Zn889   1.934   .     S
O815   Zn890   1.934   .     S
O816   Zn1195  1.934   .     S
O817   Zn894   1.934   .     S
O818   Zn297   1.935   1_565 S
O819   Zn889   1.943   .     S
O819   Zn895   1.945   .     S
O819   Zn899   1.943   .     S
O819   Zn1200  1.945   1_455 S
O820   Zn896   1.935   .     S
O821   Zn899   1.934   .     S
O822   Zn1198  1.934   .     S
O823   Zn893   1.934   .     S
O824   Zn285   1.934   1_565 S
O825   Zn1194  1.934   .     S
O826   Zn895   1.934   .     S
O827   Zn885   1.934   .     S
O828   Zn293   1.934   1_565 S
O829   Zn898   1.935   .     S
O830   Zn892   1.939   .     S
O831   Zn1199  1.935   .     S
O832   Zn296   1.934   1_565 S
O833   Zn897   1.934   .     S
O834   H729    0.988   1_554 S
O835   H730    0.988   1_556 S
O836   H731    0.988   1_554 S
O837   H733    0.988   1_556 S
O838   H734    0.988   1_554 S
O839   H735    0.988   1_556 S
O840   H736    0.988   1_554 S
O841   Zn891   1.939   .     S
O842   H737    0.988   1_556 S
O852   Zn886   1.939   .     S
O852   C959    1.280   1_455 S
O863   Zn900   1.939   .     S
O863   C960    1.280   .     S
O874   Zn888   1.939   .     S
Zn887  O197    1.945   1_565 S
Zn890  O1108   1.943   .     S
Zn892  O185    1.943   1_565 S
Zn894  O1125   1.934   1_455 S
Zn895  O1116   1.934   1_455 S
Zn898  O1122   1.934   1_455 S
Zn899  O1131   1.935   1_455 S
Zn900  O1119   1.945   .     S
C901   C948    1.422   .     A
C901   O1134   1.383   .     S
C901   C930    1.392   .     A
C902   C940    1.392   .     A
C902   O1144   1.383   .     S
C902   C953    1.422   .     S
C903   C1003   1.416   .     A
C903   C996    1.416   .     A
C903   C967    1.453   .     S
C904   C1006   1.416   .     A
C904   C968    1.453   .     S
C904   C995    1.416   .     A
C905   C1005   1.406   .     A
C905   C994    1.415   .     A
C905   C969    1.456   .     S
C906   C993    1.416   .     A
C906   C970    1.452   .     S
C906   C1008   1.416   .     A
C907   C992    1.416   .     A
C907   C1007   1.416   .     A
C907   C971    1.452   .     S
C908   C981    1.452   .     S
C908   C1011   1.416   .     A
C908   C991    1.416   .     A
C909   C990    1.416   .     A
C909   C982    1.452   .     S
C909   C1009   1.416   .     A
C910   C1013   1.415   .     A
C910   C989    1.406   .     A
C910   C974    1.455   .     S
C911   C1012   1.416   .     A
C911   C987    1.416   .     A
C911   C975    1.453   .     S
C912   C1015   1.416   .     A
C912   C986    1.416   .     A
C912   C976    1.453   .     S
C913   O1145   1.383   .     S
C913   C941    1.392   .     A
C913   C354    1.422   1_565 S
C914   C1014   1.416   .     A
C914   C985    1.416   .     A
C914   C978    1.453   .     S
C915   C984    1.416   .     A
C915   C979    1.453   .     S
C915   C1017   1.416   .     A
C916   C980    1.456   .     S
C916   C1016   1.406   .     A
C916   C983    1.415   .     A
C917   C930    1.397   .     A
C917   C964    1.460   .     S
C918   C931    1.397   .     A
C918   C963    1.460   .     S
C919   C932    1.397   .     A
C919   C662    1.460   1_655 S
C919   C637    1.397   1_655 S
C920   C661    1.460   1_655 S
C920   C934    1.397   .     A
C920   C638    1.397   1_655 S
C921   C960    1.460   .     S
C921   C943    1.397   .     A
C922   C945    1.397   .     A
C922   C959    1.460   .     S
C922   C640    1.397   1_655 S
C923   C958    1.460   .     S
C923   C946    1.397   .     A
C924   C942    1.392   .     A
C924   O1146   1.383   .     S
C924   C956    1.422   .     S
C925   C957    1.460   .     S
C925   C947    1.397   .     A
C925   C342    1.397   1_565 S
C926   O1147   1.383   .     S
C926   C943    1.392   .     A
C926   C952    1.422   .     A
C927   C653    1.422   1_655 A
C927   C945    1.392   .     A
C927   O1148   1.383   .     S
C928   O1149   1.383   .     S
C928   C954    1.422   .     A
C928   C946    1.392   .     A
C929   C947    1.392   .     A
C929   C356    1.422   1_565 A
C929   O1150   1.383   .     S
C930   H1021   1.084   .     S
C931   C933    1.392   .     A
C931   H1032   1.084   .     S
C932   H1043   1.084   .     S
C932   C944    1.392   .     A
C933   C949    1.422   .     A
C933   O1135   1.383   .     S
C934   C955    1.392   .     A
C934   H1054   1.084   .     S
C935   C966    1.392   .     A
C935   H1065   1.084   .     S
C935   C317    1.397   1_565 S
C936   C977    1.392   .     A
C936   H1076   1.084   .     S
C936   C318    1.397   1_565 S
C937   C988    1.392   .     A
C937   H1082   1.084   .     S
C938   C999    1.393   .     A
C938   H1083   1.084   .     S
C939   H1084   1.084   .     S
C939   C1010   1.392   .     A
C939   C621    1.397   1_655 S
C940   H1022   1.084   .     S
C941   H1023   1.084   .     S
C941   C323    1.397   1_565 S
C942   H1024   1.084   .     S
C943   H1025   1.084   .     S
C944   O1136   1.383   .     S
C944   C950    1.422   .     A
C945   H1026   1.084   .     S
C946   H1027   1.084   .     S
C947   H1028   1.084   .     S
C948   C949    1.475   1_554 S
C949   C948    1.475   1_556 S
C950   C951    1.475   1_554 S
C950   C688    1.422   1_655 S
C951   C955    1.422   .     A
C951   C950    1.475   1_556 S
C951   C699    1.422   1_655 S
C952   C953    1.475   .     S
C954   C956    1.475   .     S
C955   O1137   1.383   .     S
C957   O1130   1.280   .     A
C957   O574    1.280   1_565 S
C958   O1141   1.280   .     A
C959   O1088   1.280   .     A
C959   O852    1.280   1_655 S
C960   O1089   1.280   .     A
C961   O1090   1.280   .     A
C961   O1094   1.280   .     A
C962   O1091   1.280   .     A
C962   O1095   1.280   .     A
C963   O1092   1.280   .     S
C963   O1096   1.280   .     S
C964   O1093   1.280   .     S
C964   O1098   1.280   .     S
C965   O1099   1.277   .     A
C965   C1020   1.453   .     S
C965   O1127   1.277   .     A
C966   O1138   1.383   .     S
C966   C348    1.422   1_565 S
C967   O1100   1.277   .     A
C967   O1128   1.277   .     A
C968   O1125   1.276   .     A
C968   O1101   1.276   .     A
C969   O1126   1.279   .     A
C969   O1102   1.276   .     A
C970   O1103   1.276   .     A
C970   O1132   1.276   .     A
C971   O1104   1.276   .     A
C971   O1133   1.276   .     A
C972   C1018   1.455   .     S
C972   O1105   1.279   .     A
C972   O1129   1.276   .     A
C973   O1106   1.276   .     A
C973   C1019   1.453   .     S
C973   O1131   1.276   .     A
C974   O1107   1.279   .     A
C974   O1118   1.276   .     A
C975   O1109   1.276   .     A
C975   O1120   1.276   .     A
C976   O1110   1.277   .     A
C976   O1116   1.277   .     A
C977   O1139   1.383   .     S
C977   C349    1.422   1_565 S
C978   O1117   1.277   .     A
C978   O1111   1.277   .     A
C979   O1112   1.276   .     A
C979   O1123   1.276   .     A
C980   O1124   1.279   .     A
C980   O1113   1.276   .     A
C981   O1121   1.276   .     A
C981   O1114   1.276   .     A
C982   O1122   1.276   .     A
C982   O1115   1.276   .     A
C983   C1000   1.404   .     A
C983   O1151   1.384   .     S
C984   O1153   1.385   .     S
C984   C998    1.392   .     A
C985   C997    1.392   .     A
C985   O1154   1.385   .     S
C986   C996    1.392   .     A
C986   O1155   1.385   .     S
C987   O1156   1.385   .     S
C987   C995    1.392   .     A
C988   O1140   1.383   .     S
C989   C994    1.404   .     A
C989   O1157   1.386   .     S
C990   O1158   1.385   .     S
C990   C993    1.392   .     A
C991   C992    1.392   .     A
C991   O1159   1.385   .     S
C992   O1160   1.385   .     S
C993   O1161   1.385   .     S
C994   O1162   1.384   .     S
C995   O1164   1.385   .     S
C996   O1165   1.385   .     S
C997   O1166   1.385   .     S
C997   C1020   1.416   .     A
C998   O1167   1.385   .     S
C998   C1019   1.416   .     A
C999   O1142   1.383   .     S
C1000  O1168   1.386   .     S
C1000  C1018   1.406   .     A
C1001  O1169   1.385   .     S
C1001  C1017   1.392   .     A
C1001  C1019   1.416   .     A
C1002  O1170   1.384   .     S
C1002  C1018   1.415   .     A
C1002  C1016   1.404   .     A
C1003  O1171   1.385   .     S
C1003  C1015   1.392   .     A
C1004  O1172   1.385   .     S
C1004  C1020   1.416   .     A
C1004  C1014   1.392   .     A
C1005  O1173   1.386   .     S
C1005  C1013   1.404   .     A
C1006  O1175   1.385   .     S
C1006  C1012   1.392   .     A
C1007  C1011   1.392   .     A
C1007  O1176   1.385   .     S
C1008  C1009   1.392   .     A
C1008  O1177   1.385   .     S
C1009  O1178   1.385   .     S
C1010  O1143   1.383   .     S
C1010  C652    1.422   1_655 S
C1011  O1179   1.385   .     S
C1012  O1180   1.385   .     S
C1013  O1181   1.384   .     S
C1014  O1182   1.385   .     S
C1015  O1183   1.385   .     S
C1016  O1184   1.386   .     S
C1017  O1087   1.385   .     S
H1029  O1134   0.988   1_556 S
H1030  O1135   0.988   1_554 S
H1031  O1136   0.988   1_556 S
H1033  O1137   0.988   1_554 S
H1034  O1138   0.988   1_556 S
H1035  O1139   0.988   1_554 S
H1036  O1140   0.988   1_556 S
H1037  O1142   0.988   1_554 S
H1038  O1143   0.988   .     S
H1039  O1144   0.988   .     S
H1040  O1145   0.988   .     S
H1041  O1146   0.988   .     S
H1042  O1147   0.988   .     S
H1044  O1148   0.988   .     S
H1045  O1149   0.988   .     S
H1046  O1150   0.988   .     S
H1047  O1151   0.989   .     S
H1048  O1153   0.988   .     S
H1049  O1154   0.988   .     S
H1050  O1155   0.988   .     S
H1051  O1156   0.989   .     S
H1052  O1157   0.989   .     S
H1053  O1158   0.988   .     S
H1055  O1159   0.988   .     S
H1056  O1160   0.988   .     S
H1057  O1161   0.988   .     S
H1058  O1162   0.989   .     S
H1059  O1164   0.989   .     S
H1060  O1165   0.988   .     S
H1061  O1166   0.988   .     S
H1062  O1167   0.988   .     S
H1063  O1168   0.989   .     S
H1064  O1169   0.988   .     S
H1066  O1170   0.989   .     S
H1067  O1171   0.988   .     S
H1068  O1172   0.988   .     S
H1069  O1173   0.989   .     S
H1070  O1175   0.989   .     S
H1071  O1176   0.988   .     S
H1072  O1177   0.988   .     S
H1073  O1178   0.988   .     S
H1074  O1179   0.988   .     S
H1075  O1180   0.989   .     S
H1077  O1181   0.989   .     S
H1078  O1182   0.988   .     S
H1079  O1183   0.988   .     S
H1080  O1184   0.989   .     S
H1081  O1087   0.988   .     S
O1085  Zn1196  1.943   .     S
O1085  Zn1185  1.945   .     S
O1085  Zn1188  1.945   .     S
O1086  Zn1187  1.939   .     S
O1086  C358    1.280   1_565 S
O1088  Zn1190  1.939   .     S
O1089  Zn1189  1.939   .     S
O1090  Zn1199  1.939   .     S
O1091  Zn1198  1.939   .     S
O1092  Zn1193  1.939   .     S
O1093  Zn1185  1.939   .     S
O1094  Zn1195  1.939   .     S
O1095  Zn1194  1.939   .     S
O1096  Zn1197  1.939   .     S
O1097  Zn1197  1.943   .     S
O1097  Zn1193  1.945   .     S
O1097  Zn1191  1.943   .     S
O1098  Zn1196  1.939   .     S
O1099  Zn1188  1.934   .     S
O1100  Zn1187  1.934   .     S
O1101  Zn1190  1.935   .     S
O1102  Zn1189  1.935   .     S
O1103  Zn1192  1.934   .     S
O1104  Zn1191  1.934   .     S
O1105  Zn1186  1.934   .     S
O1106  Zn1200  1.934   .     S
O1107  Zn1187  1.934   .     S
O1108  Zn1198  1.943   .     S
O1108  Zn1186  1.945   .     S
O1108  Zn1194  1.945   .     S
O1109  Zn1188  1.934   .     S
O1110  Zn1200  1.934   .     S
O1111  Zn1186  1.934   .     S
O1112  Zn1191  1.935   .     S
O1113  Zn1192  1.935   .     S
O1114  Zn1189  1.934   .     S
O1115  Zn1190  1.934   .     S
O1116  Zn895   1.934   1_655 S
O1117  Zn1194  1.934   .     S
O1118  Zn597   1.935   1_565 S
O1119  Zn1189  1.943   .     S
O1119  Zn1195  1.945   .     S
O1119  Zn1199  1.943   .     S
O1120  Zn1196  1.935   .     S
O1121  Zn1199  1.934   .     S
O1122  Zn898   1.934   1_655 S
O1123  Zn1193  1.934   .     S
O1124  Zn585   1.934   1_565 S
O1125  Zn894   1.934   1_655 S
O1126  Zn1195  1.934   .     S
O1127  Zn1185  1.934   .     S
O1128  Zn593   1.934   1_565 S
O1129  Zn1198  1.935   .     S
O1130  Zn1192  1.939   .     S
O1131  Zn899   1.935   1_655 S
O1132  Zn596   1.934   1_565 S
O1133  Zn1197  1.934   .     S
O1134  H1029   0.988   1_554 S
O1135  H1030   0.988   1_556 S
O1136  H1031   0.988   1_554 S
O1137  H1033   0.988   1_556 S
O1138  H1034   0.988   1_554 S
O1139  H1035   0.988   1_556 S
O1140  H1036   0.988   1_554 S
O1141  Zn1191  1.939   .     S
O1142  H1037   0.988   1_556 S
O1152  Zn1186  1.939   .     S
O1163  Zn1200  1.939   .     S
O1163  C660    1.280   1_655 S
O1174  Zn1188  1.939   .     S
Zn1187 O497    1.945   1_565 S
Zn1190 O808    1.943   1_655 S
Zn1192 O485    1.943   1_565 S
Zn1200 O819    1.945   1_655 S
