data_str_m3_o1_o10_pcu_sym.72
_audit_creation_date              2020-01-03
_audit_creation_method            'Materials Studio'
_symmetry_space_group_name_H-M    'P1'
_symmetry_Int_Tables_number       1
_symmetry_cell_setting            triclinic
loop_
_symmetry_equiv_pos_as_xyz
  x,y,z
_cell_length_a                    25.9320
_cell_length_b                    32.0725
_cell_length_c                    29.5204
_cell_angle_alpha                 90.0358
_cell_angle_beta                  98.3906
_cell_angle_gamma                 90.1970
loop_
_atom_site_label
_atom_site_type_symbol
_atom_site_fract_x
_atom_site_fract_y
_atom_site_fract_z
_atom_site_U_iso_or_equiv
_atom_site_adp_type
_atom_site_occupancy
C1     C     0.16662   0.08664   0.16663   0.00000  Uiso   1.00
C2     C     0.14936   0.02133   0.20296   0.00000  Uiso   1.00
C3     C     0.16672   0.29083   0.16670   0.00000  Uiso   1.00
C4     C     0.16661   0.04251   0.16663   0.00000  Uiso   1.00
C5     C     0.19932   0.19242   0.02827   0.00000  Uiso   1.00
C6     C     0.13401   0.14091   0.30507   0.00000  Uiso   1.00
C7     C     0.19895   0.19308   0.31319   0.00000  Uiso   1.00
C8     C     0.13439   0.14025   0.02015   0.00000  Uiso   1.00
C9     C     0.32534   0.10167   0.10866   0.00000  Uiso   1.00
C10    C     0.00799   0.23167   0.22468   0.00000  Uiso   1.00
C11    C     0.23022   0.25985   0.30709   0.00000  Uiso   1.00
C12    C     0.16672   0.24669   0.16670   0.00000  Uiso   1.00
C13    C     0.10311   0.07349   0.02624   0.00000  Uiso   1.00
C14    C     0.06728   0.16627   0.15493   0.00000  Uiso   1.00
C15    C     0.26605   0.16707   0.17840   0.00000  Uiso   1.00
C16    C     0.01286   0.16125   0.14921   0.00000  Uiso   1.00
C17    C     0.32048   0.17208   0.18412   0.00000  Uiso   1.00
C18    C     0.18395   0.02139   0.13036   0.00000  Uiso   1.00
C19    C     0.14938   0.31194   0.20298   0.00000  Uiso   1.00
C20    C     0.18397   0.31200   0.13037   0.00000  Uiso   1.00
H21    H     0.19795   0.03781   0.10245   0.00000  Uiso   1.00
H22    H     0.02830   0.24418   0.25758   0.00000  Uiso   1.00
H23    H     0.30003   0.24209   0.22105   0.00000  Uiso   1.00
H24    H     0.02749   0.24504   0.19675   0.00000  Uiso   1.00
H25    H     0.25476   0.26492   0.00741   0.00000  Uiso   1.00
H26    H     0.18939   0.27008   0.30824   0.00000  Uiso   1.00
H27    H     0.24609   0.27998   0.28183   0.00000  Uiso   1.00
H28    H     0.08725   0.05335   0.05150   0.00000  Uiso   1.00
H29    H     0.14395   0.06326   0.02510   0.00000  Uiso   1.00
H30    H     0.07857   0.06841   0.32592   0.00000  Uiso   1.00
H31    H     0.13538   0.29553   0.23089   0.00000  Uiso   1.00
H32    H     0.19788   0.29563   0.10240   0.00000  Uiso   1.00
H33    H     0.13545   0.03770   0.23093   0.00000  Uiso   1.00
H34    H     0.22588   0.21213   0.05047   0.00000  Uiso   1.00
H35    H     0.10745   0.12120   0.28287   0.00000  Uiso   1.00
H36    H     0.03330   0.09124   0.11228   0.00000  Uiso   1.00
H37    H     0.30503   0.08916   0.07576   0.00000  Uiso   1.00
H38    H     0.30584   0.08830   0.13659   0.00000  Uiso   1.00
N39    N     0.16665   0.16666   0.28573   0.00000  Uiso   1.00
N40    N     0.16668   0.16668   0.04760   0.00000  Uiso   1.00
O41    O     0.16666   0.10558   0.20487   0.00000  Uiso   1.00
O42    O     0.01166   0.18778   0.22570   0.00000  Uiso   1.00
O43    O     0.23306   0.21794   0.29303   0.00000  Uiso   1.00
O44    O     0.10027   0.11539   0.04030   0.00000  Uiso   1.00
O45    O     0.16667   0.22775   0.12846   0.00000  Uiso   1.00
O46    O     0.16666   0.10559   0.12843   0.00000  Uiso   1.00
O47    O     0.16667   0.22774   0.20490   0.00000  Uiso   1.00
O48    O     0.09058   0.16666   0.19595   0.00000  Uiso   1.00
O49    O     0.24275   0.16667   0.13739   0.00000  Uiso   1.00
O50    O     0.09058   0.16667   0.11950   0.00000  Uiso   1.00
O51    O     0.24275   0.16666   0.21383   0.00000  Uiso   1.00
O52    O     0.32168   0.14555   0.10763   0.00000  Uiso   1.00
Zn53   Zn    0.16667   0.16666   0.21771   0.00000  Uiso   1.00
Zn54   Zn    0.16667   0.16667   0.11563   0.00000  Uiso   1.00
C55    C     0.49995   0.08664   0.16663   0.00000  Uiso   1.00
C56    C     0.48270   0.02133   0.20296   0.00000  Uiso   1.00
C57    C     0.50005   0.29083   0.16670   0.00000  Uiso   1.00
C58    C     0.49995   0.04251   0.16663   0.00000  Uiso   1.00
C59    C     0.53265   0.19242   0.02827   0.00000  Uiso   1.00
C60    C     0.46735   0.14091   0.30507   0.00000  Uiso   1.00
C61    C     0.53228   0.19308   0.31319   0.00000  Uiso   1.00
C62    C     0.46772   0.14025   0.02015   0.00000  Uiso   1.00
C63    C     0.65867   0.10167   0.10866   0.00000  Uiso   1.00
C64    C     0.34133   0.23167   0.22468   0.00000  Uiso   1.00
C65    C     0.56355   0.25985   0.30709   0.00000  Uiso   1.00
C66    C     0.50005   0.24669   0.16670   0.00000  Uiso   1.00
C67    C     0.43645   0.07349   0.02624   0.00000  Uiso   1.00
C68    C     0.40062   0.16627   0.15493   0.00000  Uiso   1.00
C69    C     0.59938   0.16707   0.17840   0.00000  Uiso   1.00
C70    C     0.34619   0.16125   0.14921   0.00000  Uiso   1.00
C71    C     0.65381   0.17208   0.18412   0.00000  Uiso   1.00
C72    C     0.51729   0.02139   0.13036   0.00000  Uiso   1.00
C73    C     0.48271   0.31194   0.20298   0.00000  Uiso   1.00
C74    C     0.51730   0.31200   0.13037   0.00000  Uiso   1.00
H75    H     0.53129   0.03781   0.10245   0.00000  Uiso   1.00
H76    H     0.36163   0.24418   0.25758   0.00000  Uiso   1.00
H77    H     0.63337   0.24209   0.22105   0.00000  Uiso   1.00
H78    H     0.36083   0.24504   0.19675   0.00000  Uiso   1.00
H79    H     0.58810   0.26492   0.00741   0.00000  Uiso   1.00
H80    H     0.52272   0.27008   0.30824   0.00000  Uiso   1.00
H81    H     0.57942   0.27998   0.28183   0.00000  Uiso   1.00
H82    H     0.42058   0.05335   0.05150   0.00000  Uiso   1.00
H83    H     0.47728   0.06326   0.02510   0.00000  Uiso   1.00
H84    H     0.41190   0.06841   0.32592   0.00000  Uiso   1.00
H85    H     0.46871   0.29553   0.23089   0.00000  Uiso   1.00
H86    H     0.53122   0.29563   0.10240   0.00000  Uiso   1.00
H87    H     0.46878   0.03770   0.23093   0.00000  Uiso   1.00
H88    H     0.55921   0.21213   0.05047   0.00000  Uiso   1.00
H89    H     0.44079   0.12120   0.28287   0.00000  Uiso   1.00
H90    H     0.36663   0.09124   0.11228   0.00000  Uiso   1.00
H91    H     0.63836   0.08916   0.07576   0.00000  Uiso   1.00
H92    H     0.63918   0.08830   0.13659   0.00000  Uiso   1.00
N93    N     0.49999   0.16666   0.28573   0.00000  Uiso   1.00
N94    N     0.50001   0.16668   0.04760   0.00000  Uiso   1.00
O95    O     0.50000   0.10558   0.20487   0.00000  Uiso   1.00
O96    O     0.34499   0.18778   0.22570   0.00000  Uiso   1.00
O97    O     0.56639   0.21794   0.29303   0.00000  Uiso   1.00
O98    O     0.43361   0.11539   0.04030   0.00000  Uiso   1.00
O99    O     0.50000   0.22775   0.12846   0.00000  Uiso   1.00
O100   O     0.50000   0.10559   0.12843   0.00000  Uiso   1.00
O101   O     0.50000   0.22774   0.20490   0.00000  Uiso   1.00
O102   O     0.42392   0.16666   0.19595   0.00000  Uiso   1.00
O103   O     0.57608   0.16667   0.13739   0.00000  Uiso   1.00
O104   O     0.42392   0.16667   0.11950   0.00000  Uiso   1.00
O105   O     0.57608   0.16666   0.21383   0.00000  Uiso   1.00
O106   O     0.65501   0.14555   0.10763   0.00000  Uiso   1.00
Zn107  Zn    0.50000   0.16666   0.21771   0.00000  Uiso   1.00
Zn108  Zn    0.50000   0.16667   0.11563   0.00000  Uiso   1.00
C109   C     0.83328   0.08664   0.16663   0.00000  Uiso   1.00
C110   C     0.81603   0.02133   0.20296   0.00000  Uiso   1.00
C111   C     0.83339   0.29083   0.16670   0.00000  Uiso   1.00
C112   C     0.83328   0.04251   0.16663   0.00000  Uiso   1.00
C113   C     0.86599   0.19242   0.02827   0.00000  Uiso   1.00
C114   C     0.80068   0.14091   0.30507   0.00000  Uiso   1.00
C115   C     0.86561   0.19308   0.31319   0.00000  Uiso   1.00
C116   C     0.80105   0.14025   0.02015   0.00000  Uiso   1.00
C117   C     0.99201   0.10167   0.10866   0.00000  Uiso   1.00
C118   C     0.67466   0.23167   0.22468   0.00000  Uiso   1.00
C119   C     0.89689   0.25985   0.30709   0.00000  Uiso   1.00
C120   C     0.83338   0.24669   0.16670   0.00000  Uiso   1.00
C121   C     0.76978   0.07349   0.02624   0.00000  Uiso   1.00
C122   C     0.73395   0.16627   0.15493   0.00000  Uiso   1.00
C123   C     0.93272   0.16707   0.17840   0.00000  Uiso   1.00
C124   C     0.67952   0.16125   0.14921   0.00000  Uiso   1.00
C125   C     0.98714   0.17208   0.18412   0.00000  Uiso   1.00
C126   C     0.85062   0.02139   0.13036   0.00000  Uiso   1.00
C127   C     0.81605   0.31194   0.20298   0.00000  Uiso   1.00
C128   C     0.85064   0.31200   0.13037   0.00000  Uiso   1.00
H129   H     0.86462   0.03781   0.10245   0.00000  Uiso   1.00
H130   H     0.69497   0.24418   0.25758   0.00000  Uiso   1.00
H131   H     0.96670   0.24209   0.22105   0.00000  Uiso   1.00
H132   H     0.69416   0.24504   0.19675   0.00000  Uiso   1.00
H133   H     0.92143   0.26492   0.00741   0.00000  Uiso   1.00
H134   H     0.85605   0.27008   0.30824   0.00000  Uiso   1.00
H135   H     0.91275   0.27998   0.28183   0.00000  Uiso   1.00
H136   H     0.75391   0.05335   0.05150   0.00000  Uiso   1.00
H137   H     0.81061   0.06326   0.02510   0.00000  Uiso   1.00
H138   H     0.74524   0.06841   0.32592   0.00000  Uiso   1.00
H139   H     0.80205   0.29553   0.23089   0.00000  Uiso   1.00
H140   H     0.86455   0.29563   0.10240   0.00000  Uiso   1.00
H141   H     0.80212   0.03770   0.23093   0.00000  Uiso   1.00
H142   H     0.89255   0.21213   0.05047   0.00000  Uiso   1.00
H143   H     0.77412   0.12120   0.28287   0.00000  Uiso   1.00
H144   H     0.69997   0.09124   0.11228   0.00000  Uiso   1.00
H145   H     0.97170   0.08916   0.07576   0.00000  Uiso   1.00
H146   H     0.97251   0.08830   0.13659   0.00000  Uiso   1.00
N147   N     0.83332   0.16666   0.28573   0.00000  Uiso   1.00
N148   N     0.83335   0.16668   0.04760   0.00000  Uiso   1.00
O149   O     0.83333   0.10558   0.20487   0.00000  Uiso   1.00
O150   O     0.67832   0.18778   0.22570   0.00000  Uiso   1.00
O151   O     0.89973   0.21794   0.29303   0.00000  Uiso   1.00
O152   O     0.76694   0.11539   0.04030   0.00000  Uiso   1.00
O153   O     0.83334   0.22775   0.12846   0.00000  Uiso   1.00
O154   O     0.83333   0.10559   0.12843   0.00000  Uiso   1.00
O155   O     0.83334   0.22774   0.20490   0.00000  Uiso   1.00
O156   O     0.75725   0.16666   0.19595   0.00000  Uiso   1.00
O157   O     0.90942   0.16667   0.13739   0.00000  Uiso   1.00
O158   O     0.75725   0.16667   0.11950   0.00000  Uiso   1.00
O159   O     0.90942   0.16666   0.21383   0.00000  Uiso   1.00
O160   O     0.98834   0.14555   0.10763   0.00000  Uiso   1.00
Zn161  Zn    0.83333   0.16666   0.21771   0.00000  Uiso   1.00
Zn162  Zn    0.83333   0.16667   0.11563   0.00000  Uiso   1.00
C163   C     0.16662   0.41998   0.16663   0.00000  Uiso   1.00
C164   C     0.14936   0.35467   0.20296   0.00000  Uiso   1.00
C165   C     0.16672   0.62416   0.16670   0.00000  Uiso   1.00
C166   C     0.16661   0.37584   0.16663   0.00000  Uiso   1.00
C167   C     0.19932   0.52575   0.02827   0.00000  Uiso   1.00
C168   C     0.13401   0.47425   0.30507   0.00000  Uiso   1.00
C169   C     0.19895   0.52642   0.31319   0.00000  Uiso   1.00
C170   C     0.13439   0.47358   0.02015   0.00000  Uiso   1.00
C171   C     0.32534   0.43500   0.10866   0.00000  Uiso   1.00
C172   C     0.00799   0.56500   0.22468   0.00000  Uiso   1.00
C173   C     0.23022   0.59318   0.30709   0.00000  Uiso   1.00
C174   C     0.16672   0.58002   0.16670   0.00000  Uiso   1.00
C175   C     0.10311   0.40682   0.02624   0.00000  Uiso   1.00
C176   C     0.06728   0.49960   0.15493   0.00000  Uiso   1.00
C177   C     0.26605   0.50040   0.17840   0.00000  Uiso   1.00
C178   C     0.01286   0.49458   0.14921   0.00000  Uiso   1.00
C179   C     0.32048   0.50542   0.18412   0.00000  Uiso   1.00
C180   C     0.18395   0.35472   0.13036   0.00000  Uiso   1.00
C181   C     0.14938   0.64528   0.20298   0.00000  Uiso   1.00
C182   C     0.18397   0.64533   0.13037   0.00000  Uiso   1.00
H183   H     0.19795   0.37114   0.10245   0.00000  Uiso   1.00
H184   H     0.02830   0.57751   0.25758   0.00000  Uiso   1.00
H185   H     0.30003   0.57543   0.22105   0.00000  Uiso   1.00
H186   H     0.02749   0.57837   0.19675   0.00000  Uiso   1.00
H187   H     0.25476   0.59825   0.00741   0.00000  Uiso   1.00
H188   H     0.18939   0.60341   0.30824   0.00000  Uiso   1.00
H189   H     0.24609   0.61332   0.28183   0.00000  Uiso   1.00
H190   H     0.08725   0.38669   0.05150   0.00000  Uiso   1.00
H191   H     0.14395   0.39659   0.02510   0.00000  Uiso   1.00
H192   H     0.07857   0.40175   0.32592   0.00000  Uiso   1.00
H193   H     0.13538   0.62886   0.23089   0.00000  Uiso   1.00
H194   H     0.19788   0.62896   0.10240   0.00000  Uiso   1.00
H195   H     0.13545   0.37104   0.23093   0.00000  Uiso   1.00
H196   H     0.22588   0.54547   0.05047   0.00000  Uiso   1.00
H197   H     0.10745   0.45453   0.28287   0.00000  Uiso   1.00
H198   H     0.03330   0.42458   0.11228   0.00000  Uiso   1.00
H199   H     0.30503   0.42249   0.07576   0.00000  Uiso   1.00
H200   H     0.30584   0.42163   0.13659   0.00000  Uiso   1.00
N201   N     0.16665   0.49999   0.28573   0.00000  Uiso   1.00
N202   N     0.16668   0.50001   0.04760   0.00000  Uiso   1.00
O203   O     0.16666   0.43892   0.20487   0.00000  Uiso   1.00
O204   O     0.01166   0.52112   0.22570   0.00000  Uiso   1.00
O205   O     0.23306   0.55127   0.29303   0.00000  Uiso   1.00
O206   O     0.10027   0.44873   0.04030   0.00000  Uiso   1.00
O207   O     0.16667   0.56108   0.12846   0.00000  Uiso   1.00
O208   O     0.16666   0.43893   0.12843   0.00000  Uiso   1.00
O209   O     0.16667   0.56107   0.20490   0.00000  Uiso   1.00
O210   O     0.09058   0.50000   0.19595   0.00000  Uiso   1.00
O211   O     0.24275   0.50000   0.13739   0.00000  Uiso   1.00
O212   O     0.09058   0.50000   0.11950   0.00000  Uiso   1.00
O213   O     0.24275   0.50000   0.21383   0.00000  Uiso   1.00
O214   O     0.32168   0.47888   0.10763   0.00000  Uiso   1.00
Zn215  Zn    0.16667   0.49999   0.21771   0.00000  Uiso   1.00
Zn216  Zn    0.16667   0.50001   0.11563   0.00000  Uiso   1.00
C217   C     0.49995   0.41998   0.16663   0.00000  Uiso   1.00
C218   C     0.48270   0.35467   0.20296   0.00000  Uiso   1.00
C219   C     0.50005   0.62416   0.16670   0.00000  Uiso   1.00
C220   C     0.49995   0.37584   0.16663   0.00000  Uiso   1.00
C221   C     0.53265   0.52575   0.02827   0.00000  Uiso   1.00
C222   C     0.46735   0.47425   0.30507   0.00000  Uiso   1.00
C223   C     0.53228   0.52642   0.31319   0.00000  Uiso   1.00
C224   C     0.46772   0.47358   0.02015   0.00000  Uiso   1.00
C225   C     0.65867   0.43500   0.10866   0.00000  Uiso   1.00
C226   C     0.34133   0.56500   0.22468   0.00000  Uiso   1.00
C227   C     0.56355   0.59318   0.30709   0.00000  Uiso   1.00
C228   C     0.50005   0.58002   0.16670   0.00000  Uiso   1.00
C229   C     0.43645   0.40682   0.02624   0.00000  Uiso   1.00
C230   C     0.40062   0.49960   0.15493   0.00000  Uiso   1.00
C231   C     0.59938   0.50040   0.17840   0.00000  Uiso   1.00
C232   C     0.34619   0.49458   0.14921   0.00000  Uiso   1.00
C233   C     0.65381   0.50542   0.18412   0.00000  Uiso   1.00
C234   C     0.51729   0.35472   0.13036   0.00000  Uiso   1.00
C235   C     0.48271   0.64528   0.20298   0.00000  Uiso   1.00
C236   C     0.51730   0.64533   0.13037   0.00000  Uiso   1.00
H237   H     0.53129   0.37114   0.10245   0.00000  Uiso   1.00
H238   H     0.36163   0.57751   0.25758   0.00000  Uiso   1.00
H239   H     0.63337   0.57543   0.22105   0.00000  Uiso   1.00
H240   H     0.36083   0.57837   0.19675   0.00000  Uiso   1.00
H241   H     0.58810   0.59825   0.00741   0.00000  Uiso   1.00
H242   H     0.52272   0.60341   0.30824   0.00000  Uiso   1.00
H243   H     0.57942   0.61332   0.28183   0.00000  Uiso   1.00
H244   H     0.42058   0.38669   0.05150   0.00000  Uiso   1.00
H245   H     0.47728   0.39659   0.02510   0.00000  Uiso   1.00
H246   H     0.41190   0.40175   0.32592   0.00000  Uiso   1.00
H247   H     0.46871   0.62886   0.23089   0.00000  Uiso   1.00
H248   H     0.53122   0.62896   0.10240   0.00000  Uiso   1.00
H249   H     0.46878   0.37104   0.23093   0.00000  Uiso   1.00
H250   H     0.55921   0.54547   0.05047   0.00000  Uiso   1.00
H251   H     0.44079   0.45453   0.28287   0.00000  Uiso   1.00
H252   H     0.36663   0.42458   0.11228   0.00000  Uiso   1.00
H253   H     0.63836   0.42249   0.07576   0.00000  Uiso   1.00
H254   H     0.63918   0.42163   0.13659   0.00000  Uiso   1.00
N255   N     0.49999   0.49999   0.28573   0.00000  Uiso   1.00
N256   N     0.50001   0.50001   0.04760   0.00000  Uiso   1.00
O257   O     0.50000   0.43892   0.20487   0.00000  Uiso   1.00
O258   O     0.34499   0.52112   0.22570   0.00000  Uiso   1.00
O259   O     0.56639   0.55127   0.29303   0.00000  Uiso   1.00
O260   O     0.43361   0.44873   0.04030   0.00000  Uiso   1.00
O261   O     0.50000   0.56108   0.12846   0.00000  Uiso   1.00
O262   O     0.50000   0.43893   0.12843   0.00000  Uiso   1.00
O263   O     0.50000   0.56107   0.20490   0.00000  Uiso   1.00
O264   O     0.42392   0.50000   0.19595   0.00000  Uiso   1.00
O265   O     0.57608   0.50000   0.13739   0.00000  Uiso   1.00
O266   O     0.42392   0.50000   0.11950   0.00000  Uiso   1.00
O267   O     0.57608   0.50000   0.21383   0.00000  Uiso   1.00
O268   O     0.65501   0.47888   0.10763   0.00000  Uiso   1.00
Zn269  Zn    0.50000   0.49999   0.21771   0.00000  Uiso   1.00
Zn270  Zn    0.50000   0.50001   0.11563   0.00000  Uiso   1.00
C271   C     0.83328   0.41998   0.16663   0.00000  Uiso   1.00
C272   C     0.81603   0.35467   0.20296   0.00000  Uiso   1.00
C273   C     0.83339   0.62416   0.16670   0.00000  Uiso   1.00
C274   C     0.83328   0.37584   0.16663   0.00000  Uiso   1.00
C275   C     0.86599   0.52575   0.02827   0.00000  Uiso   1.00
C276   C     0.80068   0.47425   0.30507   0.00000  Uiso   1.00
C277   C     0.86561   0.52642   0.31319   0.00000  Uiso   1.00
C278   C     0.80105   0.47358   0.02015   0.00000  Uiso   1.00
C279   C     0.99201   0.43500   0.10866   0.00000  Uiso   1.00
C280   C     0.67466   0.56500   0.22468   0.00000  Uiso   1.00
C281   C     0.89689   0.59318   0.30709   0.00000  Uiso   1.00
C282   C     0.83338   0.58002   0.16670   0.00000  Uiso   1.00
C283   C     0.76978   0.40682   0.02624   0.00000  Uiso   1.00
C284   C     0.73395   0.49960   0.15493   0.00000  Uiso   1.00
C285   C     0.93272   0.50040   0.17840   0.00000  Uiso   1.00
C286   C     0.67952   0.49458   0.14921   0.00000  Uiso   1.00
C287   C     0.98714   0.50542   0.18412   0.00000  Uiso   1.00
C288   C     0.85062   0.35472   0.13036   0.00000  Uiso   1.00
C289   C     0.81605   0.64528   0.20298   0.00000  Uiso   1.00
C290   C     0.85064   0.64533   0.13037   0.00000  Uiso   1.00
H291   H     0.86462   0.37114   0.10245   0.00000  Uiso   1.00
H292   H     0.69497   0.57751   0.25758   0.00000  Uiso   1.00
H293   H     0.96670   0.57543   0.22105   0.00000  Uiso   1.00
H294   H     0.69416   0.57837   0.19675   0.00000  Uiso   1.00
H295   H     0.92143   0.59825   0.00741   0.00000  Uiso   1.00
H296   H     0.85605   0.60341   0.30824   0.00000  Uiso   1.00
H297   H     0.91275   0.61332   0.28183   0.00000  Uiso   1.00
H298   H     0.75391   0.38669   0.05150   0.00000  Uiso   1.00
H299   H     0.81061   0.39659   0.02510   0.00000  Uiso   1.00
H300   H     0.74524   0.40175   0.32592   0.00000  Uiso   1.00
H301   H     0.80205   0.62886   0.23089   0.00000  Uiso   1.00
H302   H     0.86455   0.62896   0.10240   0.00000  Uiso   1.00
H303   H     0.80212   0.37104   0.23093   0.00000  Uiso   1.00
H304   H     0.89255   0.54547   0.05047   0.00000  Uiso   1.00
H305   H     0.77412   0.45453   0.28287   0.00000  Uiso   1.00
H306   H     0.69997   0.42458   0.11228   0.00000  Uiso   1.00
H307   H     0.97170   0.42249   0.07576   0.00000  Uiso   1.00
H308   H     0.97251   0.42163   0.13659   0.00000  Uiso   1.00
N309   N     0.83332   0.49999   0.28573   0.00000  Uiso   1.00
N310   N     0.83335   0.50001   0.04760   0.00000  Uiso   1.00
O311   O     0.83333   0.43892   0.20487   0.00000  Uiso   1.00
O312   O     0.67832   0.52112   0.22570   0.00000  Uiso   1.00
O313   O     0.89973   0.55127   0.29303   0.00000  Uiso   1.00
O314   O     0.76694   0.44873   0.04030   0.00000  Uiso   1.00
O315   O     0.83334   0.56108   0.12846   0.00000  Uiso   1.00
O316   O     0.83333   0.43893   0.12843   0.00000  Uiso   1.00
O317   O     0.83334   0.56107   0.20490   0.00000  Uiso   1.00
O318   O     0.75725   0.50000   0.19595   0.00000  Uiso   1.00
O319   O     0.90942   0.50000   0.13739   0.00000  Uiso   1.00
O320   O     0.75725   0.50000   0.11950   0.00000  Uiso   1.00
O321   O     0.90942   0.50000   0.21383   0.00000  Uiso   1.00
O322   O     0.98834   0.47888   0.10763   0.00000  Uiso   1.00
Zn323  Zn    0.83333   0.49999   0.21771   0.00000  Uiso   1.00
Zn324  Zn    0.83333   0.50001   0.11563   0.00000  Uiso   1.00
C325   C     0.16662   0.75331   0.16663   0.00000  Uiso   1.00
C326   C     0.14936   0.68800   0.20296   0.00000  Uiso   1.00
C327   C     0.16672   0.95749   0.16670   0.00000  Uiso   1.00
C328   C     0.16661   0.70917   0.16663   0.00000  Uiso   1.00
C329   C     0.19932   0.85909   0.02827   0.00000  Uiso   1.00
C330   C     0.13401   0.80758   0.30507   0.00000  Uiso   1.00
C331   C     0.19895   0.85975   0.31319   0.00000  Uiso   1.00
C332   C     0.13439   0.80692   0.02015   0.00000  Uiso   1.00
C333   C     0.32534   0.76833   0.10866   0.00000  Uiso   1.00
C334   C     0.00799   0.89833   0.22468   0.00000  Uiso   1.00
C335   C     0.23022   0.92651   0.30709   0.00000  Uiso   1.00
C336   C     0.16672   0.91336   0.16670   0.00000  Uiso   1.00
C337   C     0.10311   0.74015   0.02624   0.00000  Uiso   1.00
C338   C     0.06728   0.83293   0.15493   0.00000  Uiso   1.00
C339   C     0.26605   0.83373   0.17840   0.00000  Uiso   1.00
C340   C     0.01286   0.82792   0.14921   0.00000  Uiso   1.00
C341   C     0.32048   0.83875   0.18412   0.00000  Uiso   1.00
C342   C     0.18395   0.68806   0.13036   0.00000  Uiso   1.00
C343   C     0.14938   0.97861   0.20298   0.00000  Uiso   1.00
C344   C     0.18397   0.97867   0.13037   0.00000  Uiso   1.00
H345   H     0.19795   0.70448   0.10245   0.00000  Uiso   1.00
H346   H     0.02830   0.91084   0.25758   0.00000  Uiso   1.00
H347   H     0.30003   0.90876   0.22105   0.00000  Uiso   1.00
H348   H     0.02749   0.91170   0.19675   0.00000  Uiso   1.00
H349   H     0.25476   0.93159   0.00741   0.00000  Uiso   1.00
H350   H     0.18939   0.93674   0.30824   0.00000  Uiso   1.00
H351   H     0.24609   0.94665   0.28183   0.00000  Uiso   1.00
H352   H     0.08725   0.72002   0.05150   0.00000  Uiso   1.00
H353   H     0.14395   0.72992   0.02510   0.00000  Uiso   1.00
H354   H     0.07857   0.73508   0.32592   0.00000  Uiso   1.00
H355   H     0.13538   0.96219   0.23089   0.00000  Uiso   1.00
H356   H     0.19788   0.96230   0.10240   0.00000  Uiso   1.00
H357   H     0.13545   0.70437   0.23093   0.00000  Uiso   1.00
H358   H     0.22588   0.87880   0.05047   0.00000  Uiso   1.00
H359   H     0.10745   0.78787   0.28287   0.00000  Uiso   1.00
H360   H     0.03330   0.75791   0.11228   0.00000  Uiso   1.00
H361   H     0.30503   0.75582   0.07576   0.00000  Uiso   1.00
H362   H     0.30584   0.75496   0.13659   0.00000  Uiso   1.00
N363   N     0.16665   0.83332   0.28573   0.00000  Uiso   1.00
N364   N     0.16668   0.83334   0.04760   0.00000  Uiso   1.00
O365   O     0.16666   0.77225   0.20487   0.00000  Uiso   1.00
O366   O     0.01166   0.85445   0.22570   0.00000  Uiso   1.00
O367   O     0.23306   0.88461   0.29303   0.00000  Uiso   1.00
O368   O     0.10027   0.78206   0.04030   0.00000  Uiso   1.00
O369   O     0.16667   0.89442   0.12846   0.00000  Uiso   1.00
O370   O     0.16666   0.77226   0.12843   0.00000  Uiso   1.00
O371   O     0.16667   0.89441   0.20490   0.00000  Uiso   1.00
O372   O     0.09058   0.83333   0.19595   0.00000  Uiso   1.00
O373   O     0.24275   0.83334   0.13739   0.00000  Uiso   1.00
O374   O     0.09058   0.83334   0.11950   0.00000  Uiso   1.00
O375   O     0.24275   0.83333   0.21383   0.00000  Uiso   1.00
O376   O     0.32168   0.81222   0.10763   0.00000  Uiso   1.00
Zn377  Zn    0.16667   0.83333   0.21771   0.00000  Uiso   1.00
Zn378  Zn    0.16667   0.83334   0.11563   0.00000  Uiso   1.00
C379   C     0.49995   0.75331   0.16663   0.00000  Uiso   1.00
C380   C     0.48270   0.68800   0.20296   0.00000  Uiso   1.00
C381   C     0.50005   0.95749   0.16670   0.00000  Uiso   1.00
C382   C     0.49995   0.70917   0.16663   0.00000  Uiso   1.00
C383   C     0.53265   0.85909   0.02827   0.00000  Uiso   1.00
C384   C     0.46735   0.80758   0.30507   0.00000  Uiso   1.00
C385   C     0.53228   0.85975   0.31319   0.00000  Uiso   1.00
C386   C     0.46772   0.80692   0.02015   0.00000  Uiso   1.00
C387   C     0.65867   0.76833   0.10866   0.00000  Uiso   1.00
C388   C     0.34133   0.89833   0.22468   0.00000  Uiso   1.00
C389   C     0.56355   0.92651   0.30709   0.00000  Uiso   1.00
C390   C     0.50005   0.91336   0.16670   0.00000  Uiso   1.00
C391   C     0.43645   0.74015   0.02624   0.00000  Uiso   1.00
C392   C     0.40062   0.83293   0.15493   0.00000  Uiso   1.00
C393   C     0.59938   0.83373   0.17840   0.00000  Uiso   1.00
C394   C     0.34619   0.82792   0.14921   0.00000  Uiso   1.00
C395   C     0.65381   0.83875   0.18412   0.00000  Uiso   1.00
C396   C     0.51729   0.68806   0.13036   0.00000  Uiso   1.00
C397   C     0.48271   0.97861   0.20298   0.00000  Uiso   1.00
C398   C     0.51730   0.97867   0.13037   0.00000  Uiso   1.00
H399   H     0.53129   0.70448   0.10245   0.00000  Uiso   1.00
H400   H     0.36163   0.91084   0.25758   0.00000  Uiso   1.00
H401   H     0.63337   0.90876   0.22105   0.00000  Uiso   1.00
H402   H     0.36083   0.91170   0.19675   0.00000  Uiso   1.00
H403   H     0.58810   0.93159   0.00741   0.00000  Uiso   1.00
H404   H     0.52272   0.93674   0.30824   0.00000  Uiso   1.00
H405   H     0.57942   0.94665   0.28183   0.00000  Uiso   1.00
H406   H     0.42058   0.72002   0.05150   0.00000  Uiso   1.00
H407   H     0.47728   0.72992   0.02510   0.00000  Uiso   1.00
H408   H     0.41190   0.73508   0.32592   0.00000  Uiso   1.00
H409   H     0.46871   0.96219   0.23089   0.00000  Uiso   1.00
H410   H     0.53122   0.96230   0.10240   0.00000  Uiso   1.00
H411   H     0.46878   0.70437   0.23093   0.00000  Uiso   1.00
H412   H     0.55921   0.87880   0.05047   0.00000  Uiso   1.00
H413   H     0.44079   0.78787   0.28287   0.00000  Uiso   1.00
H414   H     0.36663   0.75791   0.11228   0.00000  Uiso   1.00
H415   H     0.63836   0.75582   0.07576   0.00000  Uiso   1.00
H416   H     0.63918   0.75496   0.13659   0.00000  Uiso   1.00
N417   N     0.49999   0.83332   0.28573   0.00000  Uiso   1.00
N418   N     0.50001   0.83334   0.04760   0.00000  Uiso   1.00
O419   O     0.50000   0.77225   0.20487   0.00000  Uiso   1.00
O420   O     0.34499   0.85445   0.22570   0.00000  Uiso   1.00
O421   O     0.56639   0.88461   0.29303   0.00000  Uiso   1.00
O422   O     0.43361   0.78206   0.04030   0.00000  Uiso   1.00
O423   O     0.50000   0.89442   0.12846   0.00000  Uiso   1.00
O424   O     0.50000   0.77226   0.12843   0.00000  Uiso   1.00
O425   O     0.50000   0.89441   0.20490   0.00000  Uiso   1.00
O426   O     0.42392   0.83333   0.19595   0.00000  Uiso   1.00
O427   O     0.57608   0.83334   0.13739   0.00000  Uiso   1.00
O428   O     0.42392   0.83334   0.11950   0.00000  Uiso   1.00
O429   O     0.57608   0.83333   0.21383   0.00000  Uiso   1.00
O430   O     0.65501   0.81222   0.10763   0.00000  Uiso   1.00
Zn431  Zn    0.50000   0.83333   0.21771   0.00000  Uiso   1.00
Zn432  Zn    0.50000   0.83334   0.11563   0.00000  Uiso   1.00
C433   C     0.83328   0.75331   0.16663   0.00000  Uiso   1.00
C434   C     0.81603   0.68800   0.20296   0.00000  Uiso   1.00
C435   C     0.83339   0.95749   0.16670   0.00000  Uiso   1.00
C436   C     0.83328   0.70917   0.16663   0.00000  Uiso   1.00
C437   C     0.86599   0.85909   0.02827   0.00000  Uiso   1.00
C438   C     0.80068   0.80758   0.30507   0.00000  Uiso   1.00
C439   C     0.86561   0.85975   0.31319   0.00000  Uiso   1.00
C440   C     0.80105   0.80692   0.02015   0.00000  Uiso   1.00
C441   C     0.99201   0.76833   0.10866   0.00000  Uiso   1.00
C442   C     0.67466   0.89833   0.22468   0.00000  Uiso   1.00
C443   C     0.89689   0.92651   0.30709   0.00000  Uiso   1.00
C444   C     0.83338   0.91336   0.16670   0.00000  Uiso   1.00
C445   C     0.76978   0.74015   0.02624   0.00000  Uiso   1.00
C446   C     0.73395   0.83293   0.15493   0.00000  Uiso   1.00
C447   C     0.93272   0.83373   0.17840   0.00000  Uiso   1.00
C448   C     0.67952   0.82792   0.14921   0.00000  Uiso   1.00
C449   C     0.98714   0.83875   0.18412   0.00000  Uiso   1.00
C450   C     0.85062   0.68806   0.13036   0.00000  Uiso   1.00
C451   C     0.81605   0.97861   0.20298   0.00000  Uiso   1.00
C452   C     0.85064   0.97867   0.13037   0.00000  Uiso   1.00
H453   H     0.86462   0.70448   0.10245   0.00000  Uiso   1.00
H454   H     0.69497   0.91084   0.25758   0.00000  Uiso   1.00
H455   H     0.96670   0.90876   0.22105   0.00000  Uiso   1.00
H456   H     0.69416   0.91170   0.19675   0.00000  Uiso   1.00
H457   H     0.92143   0.93159   0.00741   0.00000  Uiso   1.00
H458   H     0.85605   0.93674   0.30824   0.00000  Uiso   1.00
H459   H     0.91275   0.94665   0.28183   0.00000  Uiso   1.00
H460   H     0.75391   0.72002   0.05150   0.00000  Uiso   1.00
H461   H     0.81061   0.72992   0.02510   0.00000  Uiso   1.00
H462   H     0.74524   0.73508   0.32592   0.00000  Uiso   1.00
H463   H     0.80205   0.96219   0.23089   0.00000  Uiso   1.00
H464   H     0.86455   0.96230   0.10240   0.00000  Uiso   1.00
H465   H     0.80212   0.70437   0.23093   0.00000  Uiso   1.00
H466   H     0.89255   0.87880   0.05047   0.00000  Uiso   1.00
H467   H     0.77412   0.78787   0.28287   0.00000  Uiso   1.00
H468   H     0.69997   0.75791   0.11228   0.00000  Uiso   1.00
H469   H     0.97170   0.75582   0.07576   0.00000  Uiso   1.00
H470   H     0.97251   0.75496   0.13659   0.00000  Uiso   1.00
N471   N     0.83332   0.83332   0.28573   0.00000  Uiso   1.00
N472   N     0.83335   0.83334   0.04760   0.00000  Uiso   1.00
O473   O     0.83333   0.77225   0.20487   0.00000  Uiso   1.00
O474   O     0.67832   0.85445   0.22570   0.00000  Uiso   1.00
O475   O     0.89973   0.88461   0.29303   0.00000  Uiso   1.00
O476   O     0.76694   0.78206   0.04030   0.00000  Uiso   1.00
O477   O     0.83334   0.89442   0.12846   0.00000  Uiso   1.00
O478   O     0.83333   0.77226   0.12843   0.00000  Uiso   1.00
O479   O     0.83334   0.89441   0.20490   0.00000  Uiso   1.00
O480   O     0.75725   0.83333   0.19595   0.00000  Uiso   1.00
O481   O     0.90942   0.83334   0.13739   0.00000  Uiso   1.00
O482   O     0.75725   0.83334   0.11950   0.00000  Uiso   1.00
O483   O     0.90942   0.83333   0.21383   0.00000  Uiso   1.00
O484   O     0.98834   0.81222   0.10763   0.00000  Uiso   1.00
Zn485  Zn    0.83333   0.83333   0.21771   0.00000  Uiso   1.00
Zn486  Zn    0.83333   0.83334   0.11563   0.00000  Uiso   1.00
C487   C     0.16662   0.08664   0.49997   0.00000  Uiso   1.00
C488   C     0.14936   0.02133   0.53630   0.00000  Uiso   1.00
C489   C     0.16672   0.29083   0.50004   0.00000  Uiso   1.00
C490   C     0.16661   0.04251   0.49996   0.00000  Uiso   1.00
C491   C     0.19932   0.19242   0.36160   0.00000  Uiso   1.00
C492   C     0.13401   0.14091   0.63840   0.00000  Uiso   1.00
C493   C     0.19895   0.19308   0.64652   0.00000  Uiso   1.00
C494   C     0.13439   0.14025   0.35348   0.00000  Uiso   1.00
C495   C     0.32534   0.10167   0.44199   0.00000  Uiso   1.00
C496   C     0.00799   0.23167   0.55801   0.00000  Uiso   1.00
C497   C     0.23022   0.25985   0.64043   0.00000  Uiso   1.00
C498   C     0.16672   0.24669   0.50003   0.00000  Uiso   1.00
C499   C     0.10311   0.07349   0.35957   0.00000  Uiso   1.00
C500   C     0.06728   0.16627   0.48827   0.00000  Uiso   1.00
C501   C     0.26605   0.16707   0.51173   0.00000  Uiso   1.00
C502   C     0.01286   0.16125   0.48255   0.00000  Uiso   1.00
C503   C     0.32048   0.17208   0.51745   0.00000  Uiso   1.00
C504   C     0.18395   0.02139   0.46369   0.00000  Uiso   1.00
C505   C     0.14938   0.31194   0.53631   0.00000  Uiso   1.00
C506   C     0.18397   0.31200   0.46370   0.00000  Uiso   1.00
H507   H     0.19795   0.03781   0.43578   0.00000  Uiso   1.00
H508   H     0.02830   0.24418   0.59091   0.00000  Uiso   1.00
H509   H     0.30003   0.24209   0.55439   0.00000  Uiso   1.00
H510   H     0.02749   0.24504   0.53008   0.00000  Uiso   1.00
H511   H     0.25476   0.26492   0.34075   0.00000  Uiso   1.00
H512   H     0.18939   0.27008   0.64157   0.00000  Uiso   1.00
H513   H     0.24609   0.27998   0.61517   0.00000  Uiso   1.00
H514   H     0.08725   0.05335   0.38483   0.00000  Uiso   1.00
H515   H     0.14395   0.06326   0.35843   0.00000  Uiso   1.00
H516   H     0.07857   0.06841   0.65925   0.00000  Uiso   1.00
H517   H     0.13538   0.29553   0.56422   0.00000  Uiso   1.00
H518   H     0.19788   0.29563   0.43574   0.00000  Uiso   1.00
H519   H     0.13545   0.03770   0.56426   0.00000  Uiso   1.00
H520   H     0.22588   0.21213   0.38380   0.00000  Uiso   1.00
H521   H     0.10745   0.12120   0.61620   0.00000  Uiso   1.00
H522   H     0.03330   0.09124   0.44561   0.00000  Uiso   1.00
H523   H     0.30503   0.08916   0.40909   0.00000  Uiso   1.00
H524   H     0.30584   0.08830   0.46992   0.00000  Uiso   1.00
N525   N     0.16665   0.16666   0.61907   0.00000  Uiso   1.00
N526   N     0.16668   0.16668   0.38093   0.00000  Uiso   1.00
O527   O     0.16666   0.10558   0.53821   0.00000  Uiso   1.00
O528   O     0.01166   0.18778   0.55904   0.00000  Uiso   1.00
O529   O     0.23306   0.21794   0.62636   0.00000  Uiso   1.00
O530   O     0.10027   0.11539   0.37364   0.00000  Uiso   1.00
O531   O     0.16667   0.22775   0.46179   0.00000  Uiso   1.00
O532   O     0.16666   0.10559   0.46176   0.00000  Uiso   1.00
O533   O     0.16667   0.22774   0.53824   0.00000  Uiso   1.00
O534   O     0.09058   0.16666   0.52928   0.00000  Uiso   1.00
O535   O     0.24275   0.16667   0.47072   0.00000  Uiso   1.00
O536   O     0.09058   0.16667   0.45284   0.00000  Uiso   1.00
O537   O     0.24275   0.16666   0.54716   0.00000  Uiso   1.00
O538   O     0.32168   0.14555   0.44096   0.00000  Uiso   1.00
Zn539  Zn    0.16667   0.16666   0.55104   0.00000  Uiso   1.00
Zn540  Zn    0.16667   0.16667   0.44896   0.00000  Uiso   1.00
C541   C     0.49995   0.08664   0.49997   0.00000  Uiso   1.00
C542   C     0.48270   0.02133   0.53630   0.00000  Uiso   1.00
C543   C     0.50005   0.29083   0.50004   0.00000  Uiso   1.00
C544   C     0.49995   0.04251   0.49996   0.00000  Uiso   1.00
C545   C     0.53265   0.19242   0.36160   0.00000  Uiso   1.00
C546   C     0.46735   0.14091   0.63840   0.00000  Uiso   1.00
C547   C     0.53228   0.19308   0.64652   0.00000  Uiso   1.00
C548   C     0.46772   0.14025   0.35348   0.00000  Uiso   1.00
C549   C     0.65867   0.10167   0.44199   0.00000  Uiso   1.00
C550   C     0.34133   0.23167   0.55801   0.00000  Uiso   1.00
C551   C     0.56355   0.25985   0.64043   0.00000  Uiso   1.00
C552   C     0.50005   0.24669   0.50003   0.00000  Uiso   1.00
C553   C     0.43645   0.07349   0.35957   0.00000  Uiso   1.00
C554   C     0.40062   0.16627   0.48827   0.00000  Uiso   1.00
C555   C     0.59938   0.16707   0.51173   0.00000  Uiso   1.00
C556   C     0.34619   0.16125   0.48255   0.00000  Uiso   1.00
C557   C     0.65381   0.17208   0.51745   0.00000  Uiso   1.00
C558   C     0.51729   0.02139   0.46369   0.00000  Uiso   1.00
C559   C     0.48271   0.31194   0.53631   0.00000  Uiso   1.00
C560   C     0.51730   0.31200   0.46370   0.00000  Uiso   1.00
H561   H     0.53129   0.03781   0.43578   0.00000  Uiso   1.00
H562   H     0.36163   0.24418   0.59091   0.00000  Uiso   1.00
H563   H     0.63337   0.24209   0.55439   0.00000  Uiso   1.00
H564   H     0.36083   0.24504   0.53008   0.00000  Uiso   1.00
H565   H     0.58810   0.26492   0.34075   0.00000  Uiso   1.00
H566   H     0.52272   0.27008   0.64157   0.00000  Uiso   1.00
H567   H     0.57942   0.27998   0.61517   0.00000  Uiso   1.00
H568   H     0.42058   0.05335   0.38483   0.00000  Uiso   1.00
H569   H     0.47728   0.06326   0.35843   0.00000  Uiso   1.00
H570   H     0.41190   0.06841   0.65925   0.00000  Uiso   1.00
H571   H     0.46871   0.29553   0.56422   0.00000  Uiso   1.00
H572   H     0.53122   0.29563   0.43574   0.00000  Uiso   1.00
H573   H     0.46878   0.03770   0.56426   0.00000  Uiso   1.00
H574   H     0.55921   0.21213   0.38380   0.00000  Uiso   1.00
H575   H     0.44079   0.12120   0.61620   0.00000  Uiso   1.00
H576   H     0.36663   0.09124   0.44561   0.00000  Uiso   1.00
H577   H     0.63836   0.08916   0.40909   0.00000  Uiso   1.00
H578   H     0.63918   0.08830   0.46992   0.00000  Uiso   1.00
N579   N     0.49999   0.16666   0.61907   0.00000  Uiso   1.00
N580   N     0.50001   0.16668   0.38093   0.00000  Uiso   1.00
O581   O     0.50000   0.10558   0.53821   0.00000  Uiso   1.00
O582   O     0.34499   0.18778   0.55904   0.00000  Uiso   1.00
O583   O     0.56639   0.21794   0.62636   0.00000  Uiso   1.00
O584   O     0.43361   0.11539   0.37364   0.00000  Uiso   1.00
O585   O     0.50000   0.22775   0.46179   0.00000  Uiso   1.00
O586   O     0.50000   0.10559   0.46176   0.00000  Uiso   1.00
O587   O     0.50000   0.22774   0.53824   0.00000  Uiso   1.00
O588   O     0.42392   0.16666   0.52928   0.00000  Uiso   1.00
O589   O     0.57608   0.16667   0.47072   0.00000  Uiso   1.00
O590   O     0.42392   0.16667   0.45284   0.00000  Uiso   1.00
O591   O     0.57608   0.16666   0.54716   0.00000  Uiso   1.00
O592   O     0.65501   0.14555   0.44096   0.00000  Uiso   1.00
Zn593  Zn    0.50000   0.16666   0.55104   0.00000  Uiso   1.00
Zn594  Zn    0.50000   0.16667   0.44896   0.00000  Uiso   1.00
C595   C     0.83328   0.08664   0.49997   0.00000  Uiso   1.00
C596   C     0.81603   0.02133   0.53630   0.00000  Uiso   1.00
C597   C     0.83339   0.29083   0.50004   0.00000  Uiso   1.00
C598   C     0.83328   0.04251   0.49996   0.00000  Uiso   1.00
C599   C     0.86599   0.19242   0.36160   0.00000  Uiso   1.00
C600   C     0.80068   0.14091   0.63840   0.00000  Uiso   1.00
C601   C     0.86561   0.19308   0.64652   0.00000  Uiso   1.00
C602   C     0.80105   0.14025   0.35348   0.00000  Uiso   1.00
C603   C     0.99201   0.10167   0.44199   0.00000  Uiso   1.00
C604   C     0.67466   0.23167   0.55801   0.00000  Uiso   1.00
C605   C     0.89689   0.25985   0.64043   0.00000  Uiso   1.00
C606   C     0.83338   0.24669   0.50003   0.00000  Uiso   1.00
C607   C     0.76978   0.07349   0.35957   0.00000  Uiso   1.00
C608   C     0.73395   0.16627   0.48827   0.00000  Uiso   1.00
C609   C     0.93272   0.16707   0.51173   0.00000  Uiso   1.00
C610   C     0.67952   0.16125   0.48255   0.00000  Uiso   1.00
C611   C     0.98714   0.17208   0.51745   0.00000  Uiso   1.00
C612   C     0.85062   0.02139   0.46369   0.00000  Uiso   1.00
C613   C     0.81605   0.31194   0.53631   0.00000  Uiso   1.00
C614   C     0.85064   0.31200   0.46370   0.00000  Uiso   1.00
H615   H     0.86462   0.03781   0.43578   0.00000  Uiso   1.00
H616   H     0.69497   0.24418   0.59091   0.00000  Uiso   1.00
H617   H     0.96670   0.24209   0.55439   0.00000  Uiso   1.00
H618   H     0.69416   0.24504   0.53008   0.00000  Uiso   1.00
H619   H     0.92143   0.26492   0.34075   0.00000  Uiso   1.00
H620   H     0.85605   0.27008   0.64157   0.00000  Uiso   1.00
H621   H     0.91275   0.27998   0.61517   0.00000  Uiso   1.00
H622   H     0.75391   0.05335   0.38483   0.00000  Uiso   1.00
H623   H     0.81061   0.06326   0.35843   0.00000  Uiso   1.00
H624   H     0.74524   0.06841   0.65925   0.00000  Uiso   1.00
H625   H     0.80205   0.29553   0.56422   0.00000  Uiso   1.00
H626   H     0.86455   0.29563   0.43574   0.00000  Uiso   1.00
H627   H     0.80212   0.03770   0.56426   0.00000  Uiso   1.00
H628   H     0.89255   0.21213   0.38380   0.00000  Uiso   1.00
H629   H     0.77412   0.12120   0.61620   0.00000  Uiso   1.00
H630   H     0.69997   0.09124   0.44561   0.00000  Uiso   1.00
H631   H     0.97170   0.08916   0.40909   0.00000  Uiso   1.00
H632   H     0.97251   0.08830   0.46992   0.00000  Uiso   1.00
N633   N     0.83332   0.16666   0.61907   0.00000  Uiso   1.00
N634   N     0.83335   0.16668   0.38093   0.00000  Uiso   1.00
O635   O     0.83333   0.10558   0.53821   0.00000  Uiso   1.00
O636   O     0.67832   0.18778   0.55904   0.00000  Uiso   1.00
O637   O     0.89973   0.21794   0.62636   0.00000  Uiso   1.00
O638   O     0.76694   0.11539   0.37364   0.00000  Uiso   1.00
O639   O     0.83334   0.22775   0.46179   0.00000  Uiso   1.00
O640   O     0.83333   0.10559   0.46176   0.00000  Uiso   1.00
O641   O     0.83334   0.22774   0.53824   0.00000  Uiso   1.00
O642   O     0.75725   0.16666   0.52928   0.00000  Uiso   1.00
O643   O     0.90942   0.16667   0.47072   0.00000  Uiso   1.00
O644   O     0.75725   0.16667   0.45284   0.00000  Uiso   1.00
O645   O     0.90942   0.16666   0.54716   0.00000  Uiso   1.00
O646   O     0.98834   0.14555   0.44096   0.00000  Uiso   1.00
Zn647  Zn    0.83333   0.16666   0.55104   0.00000  Uiso   1.00
Zn648  Zn    0.83333   0.16667   0.44896   0.00000  Uiso   1.00
C649   C     0.16662   0.41998   0.49997   0.00000  Uiso   1.00
C650   C     0.14936   0.35467   0.53630   0.00000  Uiso   1.00
C651   C     0.16672   0.62416   0.50004   0.00000  Uiso   1.00
C652   C     0.16661   0.37584   0.49996   0.00000  Uiso   1.00
C653   C     0.19932   0.52575   0.36160   0.00000  Uiso   1.00
C654   C     0.13401   0.47425   0.63840   0.00000  Uiso   1.00
C655   C     0.19895   0.52642   0.64652   0.00000  Uiso   1.00
C656   C     0.13439   0.47358   0.35348   0.00000  Uiso   1.00
C657   C     0.32534   0.43500   0.44199   0.00000  Uiso   1.00
C658   C     0.00799   0.56500   0.55801   0.00000  Uiso   1.00
C659   C     0.23022   0.59318   0.64043   0.00000  Uiso   1.00
C660   C     0.16672   0.58002   0.50003   0.00000  Uiso   1.00
C661   C     0.10311   0.40682   0.35957   0.00000  Uiso   1.00
C662   C     0.06728   0.49960   0.48827   0.00000  Uiso   1.00
C663   C     0.26605   0.50040   0.51173   0.00000  Uiso   1.00
C664   C     0.01286   0.49458   0.48255   0.00000  Uiso   1.00
C665   C     0.32048   0.50542   0.51745   0.00000  Uiso   1.00
C666   C     0.18395   0.35472   0.46369   0.00000  Uiso   1.00
C667   C     0.14938   0.64528   0.53631   0.00000  Uiso   1.00
C668   C     0.18397   0.64533   0.46370   0.00000  Uiso   1.00
H669   H     0.19795   0.37114   0.43578   0.00000  Uiso   1.00
H670   H     0.02830   0.57751   0.59091   0.00000  Uiso   1.00
H671   H     0.30003   0.57543   0.55439   0.00000  Uiso   1.00
H672   H     0.02749   0.57837   0.53008   0.00000  Uiso   1.00
H673   H     0.25476   0.59825   0.34075   0.00000  Uiso   1.00
H674   H     0.18939   0.60341   0.64157   0.00000  Uiso   1.00
H675   H     0.24609   0.61332   0.61517   0.00000  Uiso   1.00
H676   H     0.08725   0.38669   0.38483   0.00000  Uiso   1.00
H677   H     0.14395   0.39659   0.35843   0.00000  Uiso   1.00
H678   H     0.07857   0.40175   0.65925   0.00000  Uiso   1.00
H679   H     0.13538   0.62886   0.56422   0.00000  Uiso   1.00
H680   H     0.19788   0.62896   0.43574   0.00000  Uiso   1.00
H681   H     0.13545   0.37104   0.56426   0.00000  Uiso   1.00
H682   H     0.22588   0.54547   0.38380   0.00000  Uiso   1.00
H683   H     0.10745   0.45453   0.61620   0.00000  Uiso   1.00
H684   H     0.03330   0.42458   0.44561   0.00000  Uiso   1.00
H685   H     0.30503   0.42249   0.40909   0.00000  Uiso   1.00
H686   H     0.30584   0.42163   0.46992   0.00000  Uiso   1.00
N687   N     0.16665   0.49999   0.61907   0.00000  Uiso   1.00
N688   N     0.16668   0.50001   0.38093   0.00000  Uiso   1.00
O689   O     0.16666   0.43892   0.53821   0.00000  Uiso   1.00
O690   O     0.01166   0.52112   0.55904   0.00000  Uiso   1.00
O691   O     0.23306   0.55127   0.62636   0.00000  Uiso   1.00
O692   O     0.10027   0.44873   0.37364   0.00000  Uiso   1.00
O693   O     0.16667   0.56108   0.46179   0.00000  Uiso   1.00
O694   O     0.16666   0.43893   0.46176   0.00000  Uiso   1.00
O695   O     0.16667   0.56107   0.53824   0.00000  Uiso   1.00
O696   O     0.09058   0.50000   0.52928   0.00000  Uiso   1.00
O697   O     0.24275   0.50000   0.47072   0.00000  Uiso   1.00
O698   O     0.09058   0.50000   0.45284   0.00000  Uiso   1.00
O699   O     0.24275   0.50000   0.54716   0.00000  Uiso   1.00
O700   O     0.32168   0.47888   0.44096   0.00000  Uiso   1.00
Zn701  Zn    0.16667   0.49999   0.55104   0.00000  Uiso   1.00
Zn702  Zn    0.16667   0.50001   0.44896   0.00000  Uiso   1.00
C703   C     0.49995   0.41998   0.49997   0.00000  Uiso   1.00
C704   C     0.48270   0.35467   0.53630   0.00000  Uiso   1.00
C705   C     0.50005   0.62416   0.50004   0.00000  Uiso   1.00
C706   C     0.49995   0.37584   0.49996   0.00000  Uiso   1.00
C707   C     0.53265   0.52575   0.36160   0.00000  Uiso   1.00
C708   C     0.46735   0.47425   0.63840   0.00000  Uiso   1.00
C709   C     0.53228   0.52642   0.64652   0.00000  Uiso   1.00
C710   C     0.46772   0.47358   0.35348   0.00000  Uiso   1.00
C711   C     0.65867   0.43500   0.44199   0.00000  Uiso   1.00
C712   C     0.34133   0.56500   0.55801   0.00000  Uiso   1.00
C713   C     0.56355   0.59318   0.64043   0.00000  Uiso   1.00
C714   C     0.50005   0.58002   0.50003   0.00000  Uiso   1.00
C715   C     0.43645   0.40682   0.35957   0.00000  Uiso   1.00
C716   C     0.40062   0.49960   0.48827   0.00000  Uiso   1.00
C717   C     0.59938   0.50040   0.51173   0.00000  Uiso   1.00
C718   C     0.34619   0.49458   0.48255   0.00000  Uiso   1.00
C719   C     0.65381   0.50542   0.51745   0.00000  Uiso   1.00
C720   C     0.51729   0.35472   0.46369   0.00000  Uiso   1.00
C721   C     0.48271   0.64528   0.53631   0.00000  Uiso   1.00
C722   C     0.51730   0.64533   0.46370   0.00000  Uiso   1.00
H723   H     0.53129   0.37114   0.43578   0.00000  Uiso   1.00
H724   H     0.36163   0.57751   0.59091   0.00000  Uiso   1.00
H725   H     0.63337   0.57543   0.55439   0.00000  Uiso   1.00
H726   H     0.36083   0.57837   0.53008   0.00000  Uiso   1.00
H727   H     0.58810   0.59825   0.34075   0.00000  Uiso   1.00
H728   H     0.52272   0.60341   0.64157   0.00000  Uiso   1.00
H729   H     0.57942   0.61332   0.61517   0.00000  Uiso   1.00
H730   H     0.42058   0.38669   0.38483   0.00000  Uiso   1.00
H731   H     0.47728   0.39659   0.35843   0.00000  Uiso   1.00
H732   H     0.41190   0.40175   0.65925   0.00000  Uiso   1.00
H733   H     0.46871   0.62886   0.56422   0.00000  Uiso   1.00
H734   H     0.53122   0.62896   0.43574   0.00000  Uiso   1.00
H735   H     0.46878   0.37104   0.56426   0.00000  Uiso   1.00
H736   H     0.55921   0.54547   0.38380   0.00000  Uiso   1.00
H737   H     0.44079   0.45453   0.61620   0.00000  Uiso   1.00
H738   H     0.36663   0.42458   0.44561   0.00000  Uiso   1.00
H739   H     0.63836   0.42249   0.40909   0.00000  Uiso   1.00
H740   H     0.63918   0.42163   0.46992   0.00000  Uiso   1.00
N741   N     0.49999   0.49999   0.61907   0.00000  Uiso   1.00
N742   N     0.50001   0.50001   0.38093   0.00000  Uiso   1.00
O743   O     0.50000   0.43892   0.53821   0.00000  Uiso   1.00
O744   O     0.34499   0.52112   0.55904   0.00000  Uiso   1.00
O745   O     0.56639   0.55127   0.62636   0.00000  Uiso   1.00
O746   O     0.43361   0.44873   0.37364   0.00000  Uiso   1.00
O747   O     0.50000   0.56108   0.46179   0.00000  Uiso   1.00
O748   O     0.50000   0.43893   0.46176   0.00000  Uiso   1.00
O749   O     0.50000   0.56107   0.53824   0.00000  Uiso   1.00
O750   O     0.42392   0.50000   0.52928   0.00000  Uiso   1.00
O751   O     0.57608   0.50000   0.47072   0.00000  Uiso   1.00
O752   O     0.42392   0.50000   0.45284   0.00000  Uiso   1.00
O753   O     0.57608   0.50000   0.54716   0.00000  Uiso   1.00
O754   O     0.65501   0.47888   0.44096   0.00000  Uiso   1.00
Zn755  Zn    0.50000   0.49999   0.55104   0.00000  Uiso   1.00
Zn756  Zn    0.50000   0.50001   0.44896   0.00000  Uiso   1.00
C757   C     0.83328   0.41998   0.49997   0.00000  Uiso   1.00
C758   C     0.81603   0.35467   0.53630   0.00000  Uiso   1.00
C759   C     0.83339   0.62416   0.50004   0.00000  Uiso   1.00
C760   C     0.83328   0.37584   0.49996   0.00000  Uiso   1.00
C761   C     0.86599   0.52575   0.36160   0.00000  Uiso   1.00
C762   C     0.80068   0.47425   0.63840   0.00000  Uiso   1.00
C763   C     0.86561   0.52642   0.64652   0.00000  Uiso   1.00
C764   C     0.80105   0.47358   0.35348   0.00000  Uiso   1.00
C765   C     0.99201   0.43500   0.44199   0.00000  Uiso   1.00
C766   C     0.67466   0.56500   0.55801   0.00000  Uiso   1.00
C767   C     0.89689   0.59318   0.64043   0.00000  Uiso   1.00
C768   C     0.83338   0.58002   0.50003   0.00000  Uiso   1.00
C769   C     0.76978   0.40682   0.35957   0.00000  Uiso   1.00
C770   C     0.73395   0.49960   0.48827   0.00000  Uiso   1.00
C771   C     0.93272   0.50040   0.51173   0.00000  Uiso   1.00
C772   C     0.67952   0.49458   0.48255   0.00000  Uiso   1.00
C773   C     0.98714   0.50542   0.51745   0.00000  Uiso   1.00
C774   C     0.85062   0.35472   0.46369   0.00000  Uiso   1.00
C775   C     0.81605   0.64528   0.53631   0.00000  Uiso   1.00
C776   C     0.85064   0.64533   0.46370   0.00000  Uiso   1.00
H777   H     0.86462   0.37114   0.43578   0.00000  Uiso   1.00
H778   H     0.69497   0.57751   0.59091   0.00000  Uiso   1.00
H779   H     0.96670   0.57543   0.55439   0.00000  Uiso   1.00
H780   H     0.69416   0.57837   0.53008   0.00000  Uiso   1.00
H781   H     0.92143   0.59825   0.34075   0.00000  Uiso   1.00
H782   H     0.85605   0.60341   0.64157   0.00000  Uiso   1.00
H783   H     0.91275   0.61332   0.61517   0.00000  Uiso   1.00
H784   H     0.75391   0.38669   0.38483   0.00000  Uiso   1.00
H785   H     0.81061   0.39659   0.35843   0.00000  Uiso   1.00
H786   H     0.74524   0.40175   0.65925   0.00000  Uiso   1.00
H787   H     0.80205   0.62886   0.56422   0.00000  Uiso   1.00
H788   H     0.86455   0.62896   0.43574   0.00000  Uiso   1.00
H789   H     0.80212   0.37104   0.56426   0.00000  Uiso   1.00
H790   H     0.89255   0.54547   0.38380   0.00000  Uiso   1.00
H791   H     0.77412   0.45453   0.61620   0.00000  Uiso   1.00
H792   H     0.69997   0.42458   0.44561   0.00000  Uiso   1.00
H793   H     0.97170   0.42249   0.40909   0.00000  Uiso   1.00
H794   H     0.97251   0.42163   0.46992   0.00000  Uiso   1.00
N795   N     0.83332   0.49999   0.61907   0.00000  Uiso   1.00
N796   N     0.83335   0.50001   0.38093   0.00000  Uiso   1.00
O797   O     0.83333   0.43892   0.53821   0.00000  Uiso   1.00
O798   O     0.67832   0.52112   0.55904   0.00000  Uiso   1.00
O799   O     0.89973   0.55127   0.62636   0.00000  Uiso   1.00
O800   O     0.76694   0.44873   0.37364   0.00000  Uiso   1.00
O801   O     0.83334   0.56108   0.46179   0.00000  Uiso   1.00
O802   O     0.83333   0.43893   0.46176   0.00000  Uiso   1.00
O803   O     0.83334   0.56107   0.53824   0.00000  Uiso   1.00
O804   O     0.75725   0.50000   0.52928   0.00000  Uiso   1.00
O805   O     0.90942   0.50000   0.47072   0.00000  Uiso   1.00
O806   O     0.75725   0.50000   0.45284   0.00000  Uiso   1.00
O807   O     0.90942   0.50000   0.54716   0.00000  Uiso   1.00
O808   O     0.98834   0.47888   0.44096   0.00000  Uiso   1.00
Zn809  Zn    0.83333   0.49999   0.55104   0.00000  Uiso   1.00
Zn810  Zn    0.83333   0.50001   0.44896   0.00000  Uiso   1.00
C811   C     0.16662   0.75331   0.49997   0.00000  Uiso   1.00
C812   C     0.14936   0.68800   0.53630   0.00000  Uiso   1.00
C813   C     0.16672   0.95749   0.50004   0.00000  Uiso   1.00
C814   C     0.16661   0.70917   0.49996   0.00000  Uiso   1.00
C815   C     0.19932   0.85909   0.36160   0.00000  Uiso   1.00
C816   C     0.13401   0.80758   0.63840   0.00000  Uiso   1.00
C817   C     0.19895   0.85975   0.64652   0.00000  Uiso   1.00
C818   C     0.13439   0.80692   0.35348   0.00000  Uiso   1.00
C819   C     0.32534   0.76833   0.44199   0.00000  Uiso   1.00
C820   C     0.00799   0.89833   0.55801   0.00000  Uiso   1.00
C821   C     0.23022   0.92651   0.64043   0.00000  Uiso   1.00
C822   C     0.16672   0.91336   0.50003   0.00000  Uiso   1.00
C823   C     0.10311   0.74015   0.35957   0.00000  Uiso   1.00
C824   C     0.06728   0.83293   0.48827   0.00000  Uiso   1.00
C825   C     0.26605   0.83373   0.51173   0.00000  Uiso   1.00
C826   C     0.01286   0.82792   0.48255   0.00000  Uiso   1.00
C827   C     0.32048   0.83875   0.51745   0.00000  Uiso   1.00
C828   C     0.18395   0.68806   0.46369   0.00000  Uiso   1.00
C829   C     0.14938   0.97861   0.53631   0.00000  Uiso   1.00
C830   C     0.18397   0.97867   0.46370   0.00000  Uiso   1.00
H831   H     0.19795   0.70448   0.43578   0.00000  Uiso   1.00
H832   H     0.02830   0.91084   0.59091   0.00000  Uiso   1.00
H833   H     0.30003   0.90876   0.55439   0.00000  Uiso   1.00
H834   H     0.02749   0.91170   0.53008   0.00000  Uiso   1.00
H835   H     0.25476   0.93159   0.34075   0.00000  Uiso   1.00
H836   H     0.18939   0.93674   0.64157   0.00000  Uiso   1.00
H837   H     0.24609   0.94665   0.61517   0.00000  Uiso   1.00
H838   H     0.08725   0.72002   0.38483   0.00000  Uiso   1.00
H839   H     0.14395   0.72992   0.35843   0.00000  Uiso   1.00
H840   H     0.07857   0.73508   0.65925   0.00000  Uiso   1.00
H841   H     0.13538   0.96219   0.56422   0.00000  Uiso   1.00
H842   H     0.19788   0.96230   0.43574   0.00000  Uiso   1.00
H843   H     0.13545   0.70437   0.56426   0.00000  Uiso   1.00
H844   H     0.22588   0.87880   0.38380   0.00000  Uiso   1.00
H845   H     0.10745   0.78787   0.61620   0.00000  Uiso   1.00
H846   H     0.03330   0.75791   0.44561   0.00000  Uiso   1.00
H847   H     0.30503   0.75582   0.40909   0.00000  Uiso   1.00
H848   H     0.30584   0.75496   0.46992   0.00000  Uiso   1.00
N849   N     0.16665   0.83332   0.61907   0.00000  Uiso   1.00
N850   N     0.16668   0.83334   0.38093   0.00000  Uiso   1.00
O851   O     0.16666   0.77225   0.53821   0.00000  Uiso   1.00
O852   O     0.01166   0.85445   0.55904   0.00000  Uiso   1.00
O853   O     0.23306   0.88461   0.62636   0.00000  Uiso   1.00
O854   O     0.10027   0.78206   0.37364   0.00000  Uiso   1.00
O855   O     0.16667   0.89442   0.46179   0.00000  Uiso   1.00
O856   O     0.16666   0.77226   0.46176   0.00000  Uiso   1.00
O857   O     0.16667   0.89441   0.53824   0.00000  Uiso   1.00
O858   O     0.09058   0.83333   0.52928   0.00000  Uiso   1.00
O859   O     0.24275   0.83334   0.47072   0.00000  Uiso   1.00
O860   O     0.09058   0.83334   0.45284   0.00000  Uiso   1.00
O861   O     0.24275   0.83333   0.54716   0.00000  Uiso   1.00
O862   O     0.32168   0.81222   0.44096   0.00000  Uiso   1.00
Zn863  Zn    0.16667   0.83333   0.55104   0.00000  Uiso   1.00
Zn864  Zn    0.16667   0.83334   0.44896   0.00000  Uiso   1.00
C865   C     0.49995   0.75331   0.49997   0.00000  Uiso   1.00
C866   C     0.48270   0.68800   0.53630   0.00000  Uiso   1.00
C867   C     0.50005   0.95749   0.50004   0.00000  Uiso   1.00
C868   C     0.49995   0.70917   0.49996   0.00000  Uiso   1.00
C869   C     0.53265   0.85909   0.36160   0.00000  Uiso   1.00
C870   C     0.46735   0.80758   0.63840   0.00000  Uiso   1.00
C871   C     0.53228   0.85975   0.64652   0.00000  Uiso   1.00
C872   C     0.46772   0.80692   0.35348   0.00000  Uiso   1.00
C873   C     0.65867   0.76833   0.44199   0.00000  Uiso   1.00
C874   C     0.34133   0.89833   0.55801   0.00000  Uiso   1.00
C875   C     0.56355   0.92651   0.64043   0.00000  Uiso   1.00
C876   C     0.50005   0.91336   0.50003   0.00000  Uiso   1.00
C877   C     0.43645   0.74015   0.35957   0.00000  Uiso   1.00
C878   C     0.40062   0.83293   0.48827   0.00000  Uiso   1.00
C879   C     0.59938   0.83373   0.51173   0.00000  Uiso   1.00
C880   C     0.34619   0.82792   0.48255   0.00000  Uiso   1.00
C881   C     0.65381   0.83875   0.51745   0.00000  Uiso   1.00
C882   C     0.51729   0.68806   0.46369   0.00000  Uiso   1.00
C883   C     0.48271   0.97861   0.53631   0.00000  Uiso   1.00
C884   C     0.51730   0.97867   0.46370   0.00000  Uiso   1.00
H885   H     0.53129   0.70448   0.43578   0.00000  Uiso   1.00
H886   H     0.36163   0.91084   0.59091   0.00000  Uiso   1.00
H887   H     0.63337   0.90876   0.55439   0.00000  Uiso   1.00
H888   H     0.36083   0.91170   0.53008   0.00000  Uiso   1.00
H889   H     0.58810   0.93159   0.34075   0.00000  Uiso   1.00
H890   H     0.52272   0.93674   0.64157   0.00000  Uiso   1.00
H891   H     0.57942   0.94665   0.61517   0.00000  Uiso   1.00
H892   H     0.42058   0.72002   0.38483   0.00000  Uiso   1.00
H893   H     0.47728   0.72992   0.35843   0.00000  Uiso   1.00
H894   H     0.41190   0.73508   0.65925   0.00000  Uiso   1.00
H895   H     0.46871   0.96219   0.56422   0.00000  Uiso   1.00
H896   H     0.53122   0.96230   0.43574   0.00000  Uiso   1.00
H897   H     0.46878   0.70437   0.56426   0.00000  Uiso   1.00
H898   H     0.55921   0.87880   0.38380   0.00000  Uiso   1.00
H899   H     0.44079   0.78787   0.61620   0.00000  Uiso   1.00
H900   H     0.36663   0.75791   0.44561   0.00000  Uiso   1.00
H901   H     0.63836   0.75582   0.40909   0.00000  Uiso   1.00
H902   H     0.63918   0.75496   0.46992   0.00000  Uiso   1.00
N903   N     0.49999   0.83332   0.61907   0.00000  Uiso   1.00
N904   N     0.50001   0.83334   0.38093   0.00000  Uiso   1.00
O905   O     0.50000   0.77225   0.53821   0.00000  Uiso   1.00
O906   O     0.34499   0.85445   0.55904   0.00000  Uiso   1.00
O907   O     0.56639   0.88461   0.62636   0.00000  Uiso   1.00
O908   O     0.43361   0.78206   0.37364   0.00000  Uiso   1.00
O909   O     0.50000   0.89442   0.46179   0.00000  Uiso   1.00
O910   O     0.50000   0.77226   0.46176   0.00000  Uiso   1.00
O911   O     0.50000   0.89441   0.53824   0.00000  Uiso   1.00
O912   O     0.42392   0.83333   0.52928   0.00000  Uiso   1.00
O913   O     0.57608   0.83334   0.47072   0.00000  Uiso   1.00
O914   O     0.42392   0.83334   0.45284   0.00000  Uiso   1.00
O915   O     0.57608   0.83333   0.54716   0.00000  Uiso   1.00
O916   O     0.65501   0.81222   0.44096   0.00000  Uiso   1.00
Zn917  Zn    0.50000   0.83333   0.55104   0.00000  Uiso   1.00
Zn918  Zn    0.50000   0.83334   0.44896   0.00000  Uiso   1.00
C919   C     0.83328   0.75331   0.49997   0.00000  Uiso   1.00
C920   C     0.81603   0.68800   0.53630   0.00000  Uiso   1.00
C921   C     0.83339   0.95749   0.50004   0.00000  Uiso   1.00
C922   C     0.83328   0.70917   0.49996   0.00000  Uiso   1.00
C923   C     0.86599   0.85909   0.36160   0.00000  Uiso   1.00
C924   C     0.80068   0.80758   0.63840   0.00000  Uiso   1.00
C925   C     0.86561   0.85975   0.64652   0.00000  Uiso   1.00
C926   C     0.80105   0.80692   0.35348   0.00000  Uiso   1.00
C927   C     0.99201   0.76833   0.44199   0.00000  Uiso   1.00
C928   C     0.67466   0.89833   0.55801   0.00000  Uiso   1.00
C929   C     0.89689   0.92651   0.64043   0.00000  Uiso   1.00
C930   C     0.83338   0.91336   0.50003   0.00000  Uiso   1.00
C931   C     0.76978   0.74015   0.35957   0.00000  Uiso   1.00
C932   C     0.73395   0.83293   0.48827   0.00000  Uiso   1.00
C933   C     0.93272   0.83373   0.51173   0.00000  Uiso   1.00
C934   C     0.67952   0.82792   0.48255   0.00000  Uiso   1.00
C935   C     0.98714   0.83875   0.51745   0.00000  Uiso   1.00
C936   C     0.85062   0.68806   0.46369   0.00000  Uiso   1.00
C937   C     0.81605   0.97861   0.53631   0.00000  Uiso   1.00
C938   C     0.85064   0.97867   0.46370   0.00000  Uiso   1.00
H939   H     0.86462   0.70448   0.43578   0.00000  Uiso   1.00
H940   H     0.69497   0.91084   0.59091   0.00000  Uiso   1.00
H941   H     0.96670   0.90876   0.55439   0.00000  Uiso   1.00
H942   H     0.69416   0.91170   0.53008   0.00000  Uiso   1.00
H943   H     0.92143   0.93159   0.34075   0.00000  Uiso   1.00
H944   H     0.85605   0.93674   0.64157   0.00000  Uiso   1.00
H945   H     0.91275   0.94665   0.61517   0.00000  Uiso   1.00
H946   H     0.75391   0.72002   0.38483   0.00000  Uiso   1.00
H947   H     0.81061   0.72992   0.35843   0.00000  Uiso   1.00
H948   H     0.74524   0.73508   0.65925   0.00000  Uiso   1.00
H949   H     0.80205   0.96219   0.56422   0.00000  Uiso   1.00
H950   H     0.86455   0.96230   0.43574   0.00000  Uiso   1.00
H951   H     0.80212   0.70437   0.56426   0.00000  Uiso   1.00
H952   H     0.89255   0.87880   0.38380   0.00000  Uiso   1.00
H953   H     0.77412   0.78787   0.61620   0.00000  Uiso   1.00
H954   H     0.69997   0.75791   0.44561   0.00000  Uiso   1.00
H955   H     0.97170   0.75582   0.40909   0.00000  Uiso   1.00
H956   H     0.97251   0.75496   0.46992   0.00000  Uiso   1.00
N957   N     0.83332   0.83332   0.61907   0.00000  Uiso   1.00
N958   N     0.83335   0.83334   0.38093   0.00000  Uiso   1.00
O959   O     0.83333   0.77225   0.53821   0.00000  Uiso   1.00
O960   O     0.67832   0.85445   0.55904   0.00000  Uiso   1.00
O961   O     0.89973   0.88461   0.62636   0.00000  Uiso   1.00
O962   O     0.76694   0.78206   0.37364   0.00000  Uiso   1.00
O963   O     0.83334   0.89442   0.46179   0.00000  Uiso   1.00
O964   O     0.83333   0.77226   0.46176   0.00000  Uiso   1.00
O965   O     0.83334   0.89441   0.53824   0.00000  Uiso   1.00
O966   O     0.75725   0.83333   0.52928   0.00000  Uiso   1.00
O967   O     0.90942   0.83334   0.47072   0.00000  Uiso   1.00
O968   O     0.75725   0.83334   0.45284   0.00000  Uiso   1.00
O969   O     0.90942   0.83333   0.54716   0.00000  Uiso   1.00
O970   O     0.98834   0.81222   0.44096   0.00000  Uiso   1.00
Zn971  Zn    0.83333   0.83333   0.55104   0.00000  Uiso   1.00
Zn972  Zn    0.83333   0.83334   0.44896   0.00000  Uiso   1.00
C973   C     0.16662   0.08664   0.83330   0.00000  Uiso   1.00
C974   C     0.14936   0.02133   0.86963   0.00000  Uiso   1.00
C975   C     0.16672   0.29083   0.83337   0.00000  Uiso   1.00
C976   C     0.16661   0.04251   0.83330   0.00000  Uiso   1.00
C977   C     0.19932   0.19242   0.69493   0.00000  Uiso   1.00
C978   C     0.13401   0.14091   0.97173   0.00000  Uiso   1.00
C979   C     0.19895   0.19308   0.97985   0.00000  Uiso   1.00
C980   C     0.13439   0.14025   0.68681   0.00000  Uiso   1.00
C981   C     0.32534   0.10167   0.77532   0.00000  Uiso   1.00
C982   C     0.00799   0.23167   0.89134   0.00000  Uiso   1.00
C983   C     0.23022   0.25985   0.97376   0.00000  Uiso   1.00
C984   C     0.16672   0.24669   0.83337   0.00000  Uiso   1.00
C985   C     0.10311   0.07349   0.69291   0.00000  Uiso   1.00
C986   C     0.06728   0.16627   0.82160   0.00000  Uiso   1.00
C987   C     0.26605   0.16707   0.84507   0.00000  Uiso   1.00
C988   C     0.01286   0.16125   0.81588   0.00000  Uiso   1.00
C989   C     0.32048   0.17208   0.85079   0.00000  Uiso   1.00
C990   C     0.18395   0.02139   0.79702   0.00000  Uiso   1.00
C991   C     0.14938   0.31194   0.86964   0.00000  Uiso   1.00
C992   C     0.18397   0.31200   0.79704   0.00000  Uiso   1.00
H993   H     0.19795   0.03781   0.76911   0.00000  Uiso   1.00
H994   H     0.02830   0.24418   0.92425   0.00000  Uiso   1.00
H995   H     0.30003   0.24209   0.88772   0.00000  Uiso   1.00
H996   H     0.02749   0.24504   0.86341   0.00000  Uiso   1.00
H997   H     0.25476   0.26492   0.67408   0.00000  Uiso   1.00
H998   H     0.18939   0.27008   0.97490   0.00000  Uiso   1.00
H999   H     0.24609   0.27998   0.94850   0.00000  Uiso   1.00
H1000  H     0.08725   0.05335   0.71817   0.00000  Uiso   1.00
H1001  H     0.14395   0.06326   0.69176   0.00000  Uiso   1.00
H1002  H     0.07857   0.06841   0.99259   0.00000  Uiso   1.00
H1003  H     0.13538   0.29553   0.89755   0.00000  Uiso   1.00
H1004  H     0.19788   0.29563   0.76907   0.00000  Uiso   1.00
H1005  H     0.13545   0.03770   0.89760   0.00000  Uiso   1.00
H1006  H     0.22588   0.21213   0.71713   0.00000  Uiso   1.00
H1007  H     0.10745   0.12120   0.94953   0.00000  Uiso   1.00
H1008  H     0.03330   0.09124   0.77894   0.00000  Uiso   1.00
H1009  H     0.30503   0.08916   0.74242   0.00000  Uiso   1.00
H1010  H     0.30584   0.08830   0.80325   0.00000  Uiso   1.00
N1011  N     0.16665   0.16666   0.95240   0.00000  Uiso   1.00
N1012  N     0.16668   0.16668   0.71427   0.00000  Uiso   1.00
O1013  O     0.16666   0.10558   0.87154   0.00000  Uiso   1.00
O1014  O     0.01166   0.18778   0.89237   0.00000  Uiso   1.00
O1015  O     0.23306   0.21794   0.95970   0.00000  Uiso   1.00
O1016  O     0.10027   0.11539   0.70697   0.00000  Uiso   1.00
O1017  O     0.16667   0.22775   0.79513   0.00000  Uiso   1.00
O1018  O     0.16666   0.10559   0.79510   0.00000  Uiso   1.00
O1019  O     0.16667   0.22774   0.87157   0.00000  Uiso   1.00
O1020  O     0.09058   0.16666   0.86261   0.00000  Uiso   1.00
O1021  O     0.24275   0.16667   0.80405   0.00000  Uiso   1.00
O1022  O     0.09058   0.16667   0.78617   0.00000  Uiso   1.00
O1023  O     0.24275   0.16666   0.88050   0.00000  Uiso   1.00
O1024  O     0.32168   0.14555   0.77430   0.00000  Uiso   1.00
Zn1025 Zn    0.16667   0.16666   0.88437   0.00000  Uiso   1.00
Zn1026 Zn    0.16667   0.16667   0.78229   0.00000  Uiso   1.00
C1027  C     0.49995   0.08664   0.83330   0.00000  Uiso   1.00
C1028  C     0.48270   0.02133   0.86963   0.00000  Uiso   1.00
C1029  C     0.50005   0.29083   0.83337   0.00000  Uiso   1.00
C1030  C     0.49995   0.04251   0.83330   0.00000  Uiso   1.00
C1031  C     0.53265   0.19242   0.69493   0.00000  Uiso   1.00
C1032  C     0.46735   0.14091   0.97173   0.00000  Uiso   1.00
C1033  C     0.53228   0.19308   0.97985   0.00000  Uiso   1.00
C1034  C     0.46772   0.14025   0.68681   0.00000  Uiso   1.00
C1035  C     0.65867   0.10167   0.77532   0.00000  Uiso   1.00
C1036  C     0.34133   0.23167   0.89134   0.00000  Uiso   1.00
C1037  C     0.56355   0.25985   0.97376   0.00000  Uiso   1.00
C1038  C     0.50005   0.24669   0.83337   0.00000  Uiso   1.00
C1039  C     0.43645   0.07349   0.69291   0.00000  Uiso   1.00
C1040  C     0.40062   0.16627   0.82160   0.00000  Uiso   1.00
C1041  C     0.59938   0.16707   0.84507   0.00000  Uiso   1.00
C1042  C     0.34619   0.16125   0.81588   0.00000  Uiso   1.00
C1043  C     0.65381   0.17208   0.85079   0.00000  Uiso   1.00
C1044  C     0.51729   0.02139   0.79702   0.00000  Uiso   1.00
C1045  C     0.48271   0.31194   0.86964   0.00000  Uiso   1.00
C1046  C     0.51730   0.31200   0.79704   0.00000  Uiso   1.00
H1047  H     0.53129   0.03781   0.76911   0.00000  Uiso   1.00
H1048  H     0.36163   0.24418   0.92425   0.00000  Uiso   1.00
H1049  H     0.63337   0.24209   0.88772   0.00000  Uiso   1.00
H1050  H     0.36083   0.24504   0.86341   0.00000  Uiso   1.00
H1051  H     0.58810   0.26492   0.67408   0.00000  Uiso   1.00
H1052  H     0.52272   0.27008   0.97490   0.00000  Uiso   1.00
H1053  H     0.57942   0.27998   0.94850   0.00000  Uiso   1.00
H1054  H     0.42058   0.05335   0.71817   0.00000  Uiso   1.00
H1055  H     0.47728   0.06326   0.69176   0.00000  Uiso   1.00
H1056  H     0.41190   0.06841   0.99259   0.00000  Uiso   1.00
H1057  H     0.46871   0.29553   0.89755   0.00000  Uiso   1.00
H1058  H     0.53122   0.29563   0.76907   0.00000  Uiso   1.00
H1059  H     0.46878   0.03770   0.89760   0.00000  Uiso   1.00
H1060  H     0.55921   0.21213   0.71713   0.00000  Uiso   1.00
H1061  H     0.44079   0.12120   0.94953   0.00000  Uiso   1.00
H1062  H     0.36663   0.09124   0.77894   0.00000  Uiso   1.00
H1063  H     0.63836   0.08916   0.74242   0.00000  Uiso   1.00
H1064  H     0.63918   0.08830   0.80325   0.00000  Uiso   1.00
N1065  N     0.49999   0.16666   0.95240   0.00000  Uiso   1.00
N1066  N     0.50001   0.16668   0.71427   0.00000  Uiso   1.00
O1067  O     0.50000   0.10558   0.87154   0.00000  Uiso   1.00
O1068  O     0.34499   0.18778   0.89237   0.00000  Uiso   1.00
O1069  O     0.56639   0.21794   0.95970   0.00000  Uiso   1.00
O1070  O     0.43361   0.11539   0.70697   0.00000  Uiso   1.00
O1071  O     0.50000   0.22775   0.79513   0.00000  Uiso   1.00
O1072  O     0.50000   0.10559   0.79510   0.00000  Uiso   1.00
O1073  O     0.50000   0.22774   0.87157   0.00000  Uiso   1.00
O1074  O     0.42392   0.16666   0.86261   0.00000  Uiso   1.00
O1075  O     0.57608   0.16667   0.80405   0.00000  Uiso   1.00
O1076  O     0.42392   0.16667   0.78617   0.00000  Uiso   1.00
O1077  O     0.57608   0.16666   0.88050   0.00000  Uiso   1.00
O1078  O     0.65501   0.14555   0.77430   0.00000  Uiso   1.00
Zn1079 Zn    0.50000   0.16666   0.88437   0.00000  Uiso   1.00
Zn1080 Zn    0.50000   0.16667   0.78229   0.00000  Uiso   1.00
C1081  C     0.83328   0.08664   0.83330   0.00000  Uiso   1.00
C1082  C     0.81603   0.02133   0.86963   0.00000  Uiso   1.00
C1083  C     0.83339   0.29083   0.83337   0.00000  Uiso   1.00
C1084  C     0.83328   0.04251   0.83330   0.00000  Uiso   1.00
C1085  C     0.86599   0.19242   0.69493   0.00000  Uiso   1.00
C1086  C     0.80068   0.14091   0.97173   0.00000  Uiso   1.00
C1087  C     0.86561   0.19308   0.97985   0.00000  Uiso   1.00
C1088  C     0.80105   0.14025   0.68681   0.00000  Uiso   1.00
C1089  C     0.99201   0.10167   0.77532   0.00000  Uiso   1.00
C1090  C     0.67466   0.23167   0.89134   0.00000  Uiso   1.00
C1091  C     0.89689   0.25985   0.97376   0.00000  Uiso   1.00
C1092  C     0.83338   0.24669   0.83337   0.00000  Uiso   1.00
C1093  C     0.76978   0.07349   0.69291   0.00000  Uiso   1.00
C1094  C     0.73395   0.16627   0.82160   0.00000  Uiso   1.00
C1095  C     0.93272   0.16707   0.84507   0.00000  Uiso   1.00
C1096  C     0.67952   0.16125   0.81588   0.00000  Uiso   1.00
C1097  C     0.98714   0.17208   0.85079   0.00000  Uiso   1.00
C1098  C     0.85062   0.02139   0.79702   0.00000  Uiso   1.00
C1099  C     0.81605   0.31194   0.86964   0.00000  Uiso   1.00
C1100  C     0.85064   0.31200   0.79704   0.00000  Uiso   1.00
H1101  H     0.86462   0.03781   0.76911   0.00000  Uiso   1.00
H1102  H     0.69497   0.24418   0.92425   0.00000  Uiso   1.00
H1103  H     0.96670   0.24209   0.88772   0.00000  Uiso   1.00
H1104  H     0.69416   0.24504   0.86341   0.00000  Uiso   1.00
H1105  H     0.92143   0.26492   0.67408   0.00000  Uiso   1.00
H1106  H     0.85605   0.27008   0.97490   0.00000  Uiso   1.00
H1107  H     0.91275   0.27998   0.94850   0.00000  Uiso   1.00
H1108  H     0.75391   0.05335   0.71817   0.00000  Uiso   1.00
H1109  H     0.81061   0.06326   0.69176   0.00000  Uiso   1.00
H1110  H     0.74524   0.06841   0.99259   0.00000  Uiso   1.00
H1111  H     0.80205   0.29553   0.89755   0.00000  Uiso   1.00
H1112  H     0.86455   0.29563   0.76907   0.00000  Uiso   1.00
H1113  H     0.80212   0.03770   0.89760   0.00000  Uiso   1.00
H1114  H     0.89255   0.21213   0.71713   0.00000  Uiso   1.00
H1115  H     0.77412   0.12120   0.94953   0.00000  Uiso   1.00
H1116  H     0.69997   0.09124   0.77894   0.00000  Uiso   1.00
H1117  H     0.97170   0.08916   0.74242   0.00000  Uiso   1.00
H1118  H     0.97251   0.08830   0.80325   0.00000  Uiso   1.00
N1119  N     0.83332   0.16666   0.95240   0.00000  Uiso   1.00
N1120  N     0.83335   0.16668   0.71427   0.00000  Uiso   1.00
O1121  O     0.83333   0.10558   0.87154   0.00000  Uiso   1.00
O1122  O     0.67832   0.18778   0.89237   0.00000  Uiso   1.00
O1123  O     0.89973   0.21794   0.95970   0.00000  Uiso   1.00
O1124  O     0.76694   0.11539   0.70697   0.00000  Uiso   1.00
O1125  O     0.83334   0.22775   0.79513   0.00000  Uiso   1.00
O1126  O     0.83333   0.10559   0.79510   0.00000  Uiso   1.00
O1127  O     0.83334   0.22774   0.87157   0.00000  Uiso   1.00
O1128  O     0.75725   0.16666   0.86261   0.00000  Uiso   1.00
O1129  O     0.90942   0.16667   0.80405   0.00000  Uiso   1.00
O1130  O     0.75725   0.16667   0.78617   0.00000  Uiso   1.00
O1131  O     0.90942   0.16666   0.88050   0.00000  Uiso   1.00
O1132  O     0.98834   0.14555   0.77430   0.00000  Uiso   1.00
Zn1133 Zn    0.83333   0.16666   0.88437   0.00000  Uiso   1.00
Zn1134 Zn    0.83333   0.16667   0.78229   0.00000  Uiso   1.00
C1135  C     0.16662   0.41998   0.83330   0.00000  Uiso   1.00
C1136  C     0.14936   0.35467   0.86963   0.00000  Uiso   1.00
C1137  C     0.16672   0.62416   0.83337   0.00000  Uiso   1.00
C1138  C     0.16661   0.37584   0.83330   0.00000  Uiso   1.00
C1139  C     0.19932   0.52575   0.69493   0.00000  Uiso   1.00
C1140  C     0.13401   0.47425   0.97173   0.00000  Uiso   1.00
C1141  C     0.19895   0.52642   0.97985   0.00000  Uiso   1.00
C1142  C     0.13439   0.47358   0.68681   0.00000  Uiso   1.00
C1143  C     0.32534   0.43500   0.77532   0.00000  Uiso   1.00
C1144  C     0.00799   0.56500   0.89134   0.00000  Uiso   1.00
C1145  C     0.23022   0.59318   0.97376   0.00000  Uiso   1.00
C1146  C     0.16672   0.58002   0.83337   0.00000  Uiso   1.00
C1147  C     0.10311   0.40682   0.69291   0.00000  Uiso   1.00
C1148  C     0.06728   0.49960   0.82160   0.00000  Uiso   1.00
C1149  C     0.26605   0.50040   0.84507   0.00000  Uiso   1.00
C1150  C     0.01286   0.49458   0.81588   0.00000  Uiso   1.00
C1151  C     0.32048   0.50542   0.85079   0.00000  Uiso   1.00
C1152  C     0.18395   0.35472   0.79702   0.00000  Uiso   1.00
C1153  C     0.14938   0.64528   0.86964   0.00000  Uiso   1.00
C1154  C     0.18397   0.64533   0.79704   0.00000  Uiso   1.00
H1155  H     0.19795   0.37114   0.76911   0.00000  Uiso   1.00
H1156  H     0.02830   0.57751   0.92425   0.00000  Uiso   1.00
H1157  H     0.30003   0.57543   0.88772   0.00000  Uiso   1.00
H1158  H     0.02749   0.57837   0.86341   0.00000  Uiso   1.00
H1159  H     0.25476   0.59825   0.67408   0.00000  Uiso   1.00
H1160  H     0.18939   0.60341   0.97490   0.00000  Uiso   1.00
H1161  H     0.24609   0.61332   0.94850   0.00000  Uiso   1.00
H1162  H     0.08725   0.38669   0.71817   0.00000  Uiso   1.00
H1163  H     0.14395   0.39659   0.69176   0.00000  Uiso   1.00
H1164  H     0.07857   0.40175   0.99259   0.00000  Uiso   1.00
H1165  H     0.13538   0.62886   0.89755   0.00000  Uiso   1.00
H1166  H     0.19788   0.62896   0.76907   0.00000  Uiso   1.00
H1167  H     0.13545   0.37104   0.89760   0.00000  Uiso   1.00
H1168  H     0.22588   0.54547   0.71713   0.00000  Uiso   1.00
H1169  H     0.10745   0.45453   0.94953   0.00000  Uiso   1.00
H1170  H     0.03330   0.42458   0.77894   0.00000  Uiso   1.00
H1171  H     0.30503   0.42249   0.74242   0.00000  Uiso   1.00
H1172  H     0.30584   0.42163   0.80325   0.00000  Uiso   1.00
N1173  N     0.16665   0.49999   0.95240   0.00000  Uiso   1.00
N1174  N     0.16668   0.50001   0.71427   0.00000  Uiso   1.00
O1175  O     0.16666   0.43892   0.87154   0.00000  Uiso   1.00
O1176  O     0.01166   0.52112   0.89237   0.00000  Uiso   1.00
O1177  O     0.23306   0.55127   0.95970   0.00000  Uiso   1.00
O1178  O     0.10027   0.44873   0.70697   0.00000  Uiso   1.00
O1179  O     0.16667   0.56108   0.79513   0.00000  Uiso   1.00
O1180  O     0.16666   0.43893   0.79510   0.00000  Uiso   1.00
O1181  O     0.16667   0.56107   0.87157   0.00000  Uiso   1.00
O1182  O     0.09058   0.50000   0.86261   0.00000  Uiso   1.00
O1183  O     0.24275   0.50000   0.80405   0.00000  Uiso   1.00
O1184  O     0.09058   0.50000   0.78617   0.00000  Uiso   1.00
O1185  O     0.24275   0.50000   0.88050   0.00000  Uiso   1.00
O1186  O     0.32168   0.47888   0.77430   0.00000  Uiso   1.00
Zn1187 Zn    0.16667   0.49999   0.88437   0.00000  Uiso   1.00
Zn1188 Zn    0.16667   0.50001   0.78229   0.00000  Uiso   1.00
C1189  C     0.49995   0.41998   0.83330   0.00000  Uiso   1.00
C1190  C     0.48270   0.35467   0.86963   0.00000  Uiso   1.00
C1191  C     0.50005   0.62416   0.83337   0.00000  Uiso   1.00
C1192  C     0.49995   0.37584   0.83330   0.00000  Uiso   1.00
C1193  C     0.53265   0.52575   0.69493   0.00000  Uiso   1.00
C1194  C     0.46735   0.47425   0.97173   0.00000  Uiso   1.00
C1195  C     0.53228   0.52642   0.97985   0.00000  Uiso   1.00
C1196  C     0.46772   0.47358   0.68681   0.00000  Uiso   1.00
C1197  C     0.65867   0.43500   0.77532   0.00000  Uiso   1.00
C1198  C     0.34133   0.56500   0.89134   0.00000  Uiso   1.00
C1199  C     0.56355   0.59318   0.97376   0.00000  Uiso   1.00
C1200  C     0.50005   0.58002   0.83337   0.00000  Uiso   1.00
C1201  C     0.43645   0.40682   0.69291   0.00000  Uiso   1.00
C1202  C     0.40062   0.49960   0.82160   0.00000  Uiso   1.00
C1203  C     0.59938   0.50040   0.84507   0.00000  Uiso   1.00
C1204  C     0.34619   0.49458   0.81588   0.00000  Uiso   1.00
C1205  C     0.65381   0.50542   0.85079   0.00000  Uiso   1.00
C1206  C     0.51729   0.35472   0.79702   0.00000  Uiso   1.00
C1207  C     0.48271   0.64528   0.86964   0.00000  Uiso   1.00
C1208  C     0.51730   0.64533   0.79704   0.00000  Uiso   1.00
H1209  H     0.53129   0.37114   0.76911   0.00000  Uiso   1.00
H1210  H     0.36163   0.57751   0.92425   0.00000  Uiso   1.00
H1211  H     0.63337   0.57543   0.88772   0.00000  Uiso   1.00
H1212  H     0.36083   0.57837   0.86341   0.00000  Uiso   1.00
H1213  H     0.58810   0.59825   0.67408   0.00000  Uiso   1.00
H1214  H     0.52272   0.60341   0.97490   0.00000  Uiso   1.00
H1215  H     0.57942   0.61332   0.94850   0.00000  Uiso   1.00
H1216  H     0.42058   0.38669   0.71817   0.00000  Uiso   1.00
H1217  H     0.47728   0.39659   0.69176   0.00000  Uiso   1.00
H1218  H     0.41190   0.40175   0.99259   0.00000  Uiso   1.00
H1219  H     0.46871   0.62886   0.89755   0.00000  Uiso   1.00
H1220  H     0.53122   0.62896   0.76907   0.00000  Uiso   1.00
H1221  H     0.46878   0.37104   0.89760   0.00000  Uiso   1.00
H1222  H     0.55921   0.54547   0.71713   0.00000  Uiso   1.00
H1223  H     0.44079   0.45453   0.94953   0.00000  Uiso   1.00
H1224  H     0.36663   0.42458   0.77894   0.00000  Uiso   1.00
H1225  H     0.63836   0.42249   0.74242   0.00000  Uiso   1.00
H1226  H     0.63918   0.42163   0.80325   0.00000  Uiso   1.00
N1227  N     0.49999   0.49999   0.95240   0.00000  Uiso   1.00
N1228  N     0.50001   0.50001   0.71427   0.00000  Uiso   1.00
O1229  O     0.50000   0.43892   0.87154   0.00000  Uiso   1.00
O1230  O     0.34499   0.52112   0.89237   0.00000  Uiso   1.00
O1231  O     0.56639   0.55127   0.95970   0.00000  Uiso   1.00
O1232  O     0.43361   0.44873   0.70697   0.00000  Uiso   1.00
O1233  O     0.50000   0.56108   0.79513   0.00000  Uiso   1.00
O1234  O     0.50000   0.43893   0.79510   0.00000  Uiso   1.00
O1235  O     0.50000   0.56107   0.87157   0.00000  Uiso   1.00
O1236  O     0.42392   0.50000   0.86261   0.00000  Uiso   1.00
O1237  O     0.57608   0.50000   0.80405   0.00000  Uiso   1.00
O1238  O     0.42392   0.50000   0.78617   0.00000  Uiso   1.00
O1239  O     0.57608   0.50000   0.88050   0.00000  Uiso   1.00
O1240  O     0.65501   0.47888   0.77430   0.00000  Uiso   1.00
Zn1241 Zn    0.50000   0.49999   0.88437   0.00000  Uiso   1.00
Zn1242 Zn    0.50000   0.50001   0.78229   0.00000  Uiso   1.00
C1243  C     0.83328   0.41998   0.83330   0.00000  Uiso   1.00
C1244  C     0.81603   0.35467   0.86963   0.00000  Uiso   1.00
C1245  C     0.83339   0.62416   0.83337   0.00000  Uiso   1.00
C1246  C     0.83328   0.37584   0.83330   0.00000  Uiso   1.00
C1247  C     0.86599   0.52575   0.69493   0.00000  Uiso   1.00
C1248  C     0.80068   0.47425   0.97173   0.00000  Uiso   1.00
C1249  C     0.86561   0.52642   0.97985   0.00000  Uiso   1.00
C1250  C     0.80105   0.47358   0.68681   0.00000  Uiso   1.00
C1251  C     0.99201   0.43500   0.77532   0.00000  Uiso   1.00
C1252  C     0.67466   0.56500   0.89134   0.00000  Uiso   1.00
C1253  C     0.89689   0.59318   0.97376   0.00000  Uiso   1.00
C1254  C     0.83338   0.58002   0.83337   0.00000  Uiso   1.00
C1255  C     0.76978   0.40682   0.69291   0.00000  Uiso   1.00
C1256  C     0.73395   0.49960   0.82160   0.00000  Uiso   1.00
C1257  C     0.93272   0.50040   0.84507   0.00000  Uiso   1.00
C1258  C     0.67952   0.49458   0.81588   0.00000  Uiso   1.00
C1259  C     0.98714   0.50542   0.85079   0.00000  Uiso   1.00
C1260  C     0.85062   0.35472   0.79702   0.00000  Uiso   1.00
C1261  C     0.81605   0.64528   0.86964   0.00000  Uiso   1.00
C1262  C     0.85064   0.64533   0.79704   0.00000  Uiso   1.00
H1263  H     0.86462   0.37114   0.76911   0.00000  Uiso   1.00
H1264  H     0.69497   0.57751   0.92425   0.00000  Uiso   1.00
H1265  H     0.96670   0.57543   0.88772   0.00000  Uiso   1.00
H1266  H     0.69416   0.57837   0.86341   0.00000  Uiso   1.00
H1267  H     0.92143   0.59825   0.67408   0.00000  Uiso   1.00
H1268  H     0.85605   0.60341   0.97490   0.00000  Uiso   1.00
H1269  H     0.91275   0.61332   0.94850   0.00000  Uiso   1.00
H1270  H     0.75391   0.38669   0.71817   0.00000  Uiso   1.00
H1271  H     0.81061   0.39659   0.69176   0.00000  Uiso   1.00
H1272  H     0.74524   0.40175   0.99259   0.00000  Uiso   1.00
H1273  H     0.80205   0.62886   0.89755   0.00000  Uiso   1.00
H1274  H     0.86455   0.62896   0.76907   0.00000  Uiso   1.00
H1275  H     0.80212   0.37104   0.89760   0.00000  Uiso   1.00
H1276  H     0.89255   0.54547   0.71713   0.00000  Uiso   1.00
H1277  H     0.77412   0.45453   0.94953   0.00000  Uiso   1.00
H1278  H     0.69997   0.42458   0.77894   0.00000  Uiso   1.00
H1279  H     0.97170   0.42249   0.74242   0.00000  Uiso   1.00
H1280  H     0.97251   0.42163   0.80325   0.00000  Uiso   1.00
N1281  N     0.83332   0.49999   0.95240   0.00000  Uiso   1.00
N1282  N     0.83335   0.50001   0.71427   0.00000  Uiso   1.00
O1283  O     0.83333   0.43892   0.87154   0.00000  Uiso   1.00
O1284  O     0.67832   0.52112   0.89237   0.00000  Uiso   1.00
O1285  O     0.89973   0.55127   0.95970   0.00000  Uiso   1.00
O1286  O     0.76694   0.44873   0.70697   0.00000  Uiso   1.00
O1287  O     0.83334   0.56108   0.79513   0.00000  Uiso   1.00
O1288  O     0.83333   0.43893   0.79510   0.00000  Uiso   1.00
O1289  O     0.83334   0.56107   0.87157   0.00000  Uiso   1.00
O1290  O     0.75725   0.50000   0.86261   0.00000  Uiso   1.00
O1291  O     0.90942   0.50000   0.80405   0.00000  Uiso   1.00
O1292  O     0.75725   0.50000   0.78617   0.00000  Uiso   1.00
O1293  O     0.90942   0.50000   0.88050   0.00000  Uiso   1.00
O1294  O     0.98834   0.47888   0.77430   0.00000  Uiso   1.00
Zn1295 Zn    0.83333   0.49999   0.88437   0.00000  Uiso   1.00
Zn1296 Zn    0.83333   0.50001   0.78229   0.00000  Uiso   1.00
C1297  C     0.16662   0.75331   0.83330   0.00000  Uiso   1.00
C1298  C     0.14936   0.68800   0.86963   0.00000  Uiso   1.00
C1299  C     0.16672   0.95749   0.83337   0.00000  Uiso   1.00
C1300  C     0.16661   0.70917   0.83330   0.00000  Uiso   1.00
C1301  C     0.19932   0.85909   0.69493   0.00000  Uiso   1.00
C1302  C     0.13401   0.80758   0.97173   0.00000  Uiso   1.00
C1303  C     0.19895   0.85975   0.97985   0.00000  Uiso   1.00
C1304  C     0.13439   0.80692   0.68681   0.00000  Uiso   1.00
C1305  C     0.32534   0.76833   0.77532   0.00000  Uiso   1.00
C1306  C     0.00799   0.89833   0.89134   0.00000  Uiso   1.00
C1307  C     0.23022   0.92651   0.97376   0.00000  Uiso   1.00
C1308  C     0.16672   0.91336   0.83337   0.00000  Uiso   1.00
C1309  C     0.10311   0.74015   0.69291   0.00000  Uiso   1.00
C1310  C     0.06728   0.83293   0.82160   0.00000  Uiso   1.00
C1311  C     0.26605   0.83373   0.84507   0.00000  Uiso   1.00
C1312  C     0.01286   0.82792   0.81588   0.00000  Uiso   1.00
C1313  C     0.32048   0.83875   0.85079   0.00000  Uiso   1.00
C1314  C     0.18395   0.68806   0.79702   0.00000  Uiso   1.00
C1315  C     0.14938   0.97861   0.86964   0.00000  Uiso   1.00
C1316  C     0.18397   0.97867   0.79704   0.00000  Uiso   1.00
H1317  H     0.19795   0.70448   0.76911   0.00000  Uiso   1.00
H1318  H     0.02830   0.91084   0.92425   0.00000  Uiso   1.00
H1319  H     0.30003   0.90876   0.88772   0.00000  Uiso   1.00
H1320  H     0.02749   0.91170   0.86341   0.00000  Uiso   1.00
H1321  H     0.25476   0.93159   0.67408   0.00000  Uiso   1.00
H1322  H     0.18939   0.93674   0.97490   0.00000  Uiso   1.00
H1323  H     0.24609   0.94665   0.94850   0.00000  Uiso   1.00
H1324  H     0.08725   0.72002   0.71817   0.00000  Uiso   1.00
H1325  H     0.14395   0.72992   0.69176   0.00000  Uiso   1.00
H1326  H     0.07857   0.73508   0.99259   0.00000  Uiso   1.00
H1327  H     0.13538   0.96219   0.89755   0.00000  Uiso   1.00
H1328  H     0.19788   0.96230   0.76907   0.00000  Uiso   1.00
H1329  H     0.13545   0.70437   0.89760   0.00000  Uiso   1.00
H1330  H     0.22588   0.87880   0.71713   0.00000  Uiso   1.00
H1331  H     0.10745   0.78787   0.94953   0.00000  Uiso   1.00
H1332  H     0.03330   0.75791   0.77894   0.00000  Uiso   1.00
H1333  H     0.30503   0.75582   0.74242   0.00000  Uiso   1.00
H1334  H     0.30584   0.75496   0.80325   0.00000  Uiso   1.00
N1335  N     0.16665   0.83332   0.95240   0.00000  Uiso   1.00
N1336  N     0.16668   0.83334   0.71427   0.00000  Uiso   1.00
O1337  O     0.16666   0.77225   0.87154   0.00000  Uiso   1.00
O1338  O     0.01166   0.85445   0.89237   0.00000  Uiso   1.00
O1339  O     0.23306   0.88461   0.95970   0.00000  Uiso   1.00
O1340  O     0.10027   0.78206   0.70697   0.00000  Uiso   1.00
O1341  O     0.16667   0.89442   0.79513   0.00000  Uiso   1.00
O1342  O     0.16666   0.77226   0.79510   0.00000  Uiso   1.00
O1343  O     0.16667   0.89441   0.87157   0.00000  Uiso   1.00
O1344  O     0.09058   0.83333   0.86261   0.00000  Uiso   1.00
O1345  O     0.24275   0.83334   0.80405   0.00000  Uiso   1.00
O1346  O     0.09058   0.83334   0.78617   0.00000  Uiso   1.00
O1347  O     0.24275   0.83333   0.88050   0.00000  Uiso   1.00
O1348  O     0.32168   0.81222   0.77430   0.00000  Uiso   1.00
Zn1349 Zn    0.16667   0.83333   0.88437   0.00000  Uiso   1.00
Zn1350 Zn    0.16667   0.83334   0.78229   0.00000  Uiso   1.00
C1351  C     0.49995   0.75331   0.83330   0.00000  Uiso   1.00
C1352  C     0.48270   0.68800   0.86963   0.00000  Uiso   1.00
C1353  C     0.50005   0.95749   0.83337   0.00000  Uiso   1.00
C1354  C     0.49995   0.70917   0.83330   0.00000  Uiso   1.00
C1355  C     0.53265   0.85909   0.69493   0.00000  Uiso   1.00
C1356  C     0.46735   0.80758   0.97173   0.00000  Uiso   1.00
C1357  C     0.53228   0.85975   0.97985   0.00000  Uiso   1.00
C1358  C     0.46772   0.80692   0.68681   0.00000  Uiso   1.00
C1359  C     0.65867   0.76833   0.77532   0.00000  Uiso   1.00
C1360  C     0.34133   0.89833   0.89134   0.00000  Uiso   1.00
C1361  C     0.56355   0.92651   0.97376   0.00000  Uiso   1.00
C1362  C     0.50005   0.91336   0.83337   0.00000  Uiso   1.00
C1363  C     0.43645   0.74015   0.69291   0.00000  Uiso   1.00
C1364  C     0.40062   0.83293   0.82160   0.00000  Uiso   1.00
C1365  C     0.59938   0.83373   0.84507   0.00000  Uiso   1.00
C1366  C     0.34619   0.82792   0.81588   0.00000  Uiso   1.00
C1367  C     0.65381   0.83875   0.85079   0.00000  Uiso   1.00
C1368  C     0.51729   0.68806   0.79702   0.00000  Uiso   1.00
C1369  C     0.48271   0.97861   0.86964   0.00000  Uiso   1.00
C1370  C     0.51730   0.97867   0.79704   0.00000  Uiso   1.00
H1371  H     0.53129   0.70448   0.76911   0.00000  Uiso   1.00
H1372  H     0.36163   0.91084   0.92425   0.00000  Uiso   1.00
H1373  H     0.63337   0.90876   0.88772   0.00000  Uiso   1.00
H1374  H     0.36083   0.91170   0.86341   0.00000  Uiso   1.00
H1375  H     0.58810   0.93159   0.67408   0.00000  Uiso   1.00
H1376  H     0.52272   0.93674   0.97490   0.00000  Uiso   1.00
H1377  H     0.57942   0.94665   0.94850   0.00000  Uiso   1.00
H1378  H     0.42058   0.72002   0.71817   0.00000  Uiso   1.00
H1379  H     0.47728   0.72992   0.69176   0.00000  Uiso   1.00
H1380  H     0.41190   0.73508   0.99259   0.00000  Uiso   1.00
H1381  H     0.46871   0.96219   0.89755   0.00000  Uiso   1.00
H1382  H     0.53122   0.96230   0.76907   0.00000  Uiso   1.00
H1383  H     0.46878   0.70437   0.89760   0.00000  Uiso   1.00
H1384  H     0.55921   0.87880   0.71713   0.00000  Uiso   1.00
H1385  H     0.44079   0.78787   0.94953   0.00000  Uiso   1.00
H1386  H     0.36663   0.75791   0.77894   0.00000  Uiso   1.00
H1387  H     0.63836   0.75582   0.74242   0.00000  Uiso   1.00
H1388  H     0.63918   0.75496   0.80325   0.00000  Uiso   1.00
N1389  N     0.49999   0.83332   0.95240   0.00000  Uiso   1.00
N1390  N     0.50001   0.83334   0.71427   0.00000  Uiso   1.00
O1391  O     0.50000   0.77225   0.87154   0.00000  Uiso   1.00
O1392  O     0.34499   0.85445   0.89237   0.00000  Uiso   1.00
O1393  O     0.56639   0.88461   0.95970   0.00000  Uiso   1.00
O1394  O     0.43361   0.78206   0.70697   0.00000  Uiso   1.00
O1395  O     0.50000   0.89442   0.79513   0.00000  Uiso   1.00
O1396  O     0.50000   0.77226   0.79510   0.00000  Uiso   1.00
O1397  O     0.50000   0.89441   0.87157   0.00000  Uiso   1.00
O1398  O     0.42392   0.83333   0.86261   0.00000  Uiso   1.00
O1399  O     0.57608   0.83334   0.80405   0.00000  Uiso   1.00
O1400  O     0.42392   0.83334   0.78617   0.00000  Uiso   1.00
O1401  O     0.57608   0.83333   0.88050   0.00000  Uiso   1.00
O1402  O     0.65501   0.81222   0.77430   0.00000  Uiso   1.00
Zn1403 Zn    0.50000   0.83333   0.88437   0.00000  Uiso   1.00
Zn1404 Zn    0.50000   0.83334   0.78229   0.00000  Uiso   1.00
C1405  C     0.83328   0.75331   0.83330   0.00000  Uiso   1.00
C1406  C     0.81603   0.68800   0.86963   0.00000  Uiso   1.00
C1407  C     0.83339   0.95749   0.83337   0.00000  Uiso   1.00
C1408  C     0.83328   0.70917   0.83330   0.00000  Uiso   1.00
C1409  C     0.86599   0.85909   0.69493   0.00000  Uiso   1.00
C1410  C     0.80068   0.80758   0.97173   0.00000  Uiso   1.00
C1411  C     0.86561   0.85975   0.97985   0.00000  Uiso   1.00
C1412  C     0.80105   0.80692   0.68681   0.00000  Uiso   1.00
C1413  C     0.99201   0.76833   0.77532   0.00000  Uiso   1.00
C1414  C     0.67466   0.89833   0.89134   0.00000  Uiso   1.00
C1415  C     0.89689   0.92651   0.97376   0.00000  Uiso   1.00
C1416  C     0.83338   0.91336   0.83337   0.00000  Uiso   1.00
C1417  C     0.76978   0.74015   0.69291   0.00000  Uiso   1.00
C1418  C     0.73395   0.83293   0.82160   0.00000  Uiso   1.00
C1419  C     0.93272   0.83373   0.84507   0.00000  Uiso   1.00
C1420  C     0.67952   0.82792   0.81588   0.00000  Uiso   1.00
C1421  C     0.98714   0.83875   0.85079   0.00000  Uiso   1.00
C1422  C     0.85062   0.68806   0.79702   0.00000  Uiso   1.00
C1423  C     0.81605   0.97861   0.86964   0.00000  Uiso   1.00
C1424  C     0.85064   0.97867   0.79704   0.00000  Uiso   1.00
H1425  H     0.86462   0.70448   0.76911   0.00000  Uiso   1.00
H1426  H     0.69497   0.91084   0.92425   0.00000  Uiso   1.00
H1427  H     0.96670   0.90876   0.88772   0.00000  Uiso   1.00
H1428  H     0.69416   0.91170   0.86341   0.00000  Uiso   1.00
H1429  H     0.92143   0.93159   0.67408   0.00000  Uiso   1.00
H1430  H     0.85605   0.93674   0.97490   0.00000  Uiso   1.00
H1431  H     0.91275   0.94665   0.94850   0.00000  Uiso   1.00
H1432  H     0.75391   0.72002   0.71817   0.00000  Uiso   1.00
H1433  H     0.81061   0.72992   0.69176   0.00000  Uiso   1.00
H1434  H     0.74524   0.73508   0.99259   0.00000  Uiso   1.00
H1435  H     0.80205   0.96219   0.89755   0.00000  Uiso   1.00
H1436  H     0.86455   0.96230   0.76907   0.00000  Uiso   1.00
H1437  H     0.80212   0.70437   0.89760   0.00000  Uiso   1.00
H1438  H     0.89255   0.87880   0.71713   0.00000  Uiso   1.00
H1439  H     0.77412   0.78787   0.94953   0.00000  Uiso   1.00
H1440  H     0.69997   0.75791   0.77894   0.00000  Uiso   1.00
H1441  H     0.97170   0.75582   0.74242   0.00000  Uiso   1.00
H1442  H     0.97251   0.75496   0.80325   0.00000  Uiso   1.00
N1443  N     0.83332   0.83332   0.95240   0.00000  Uiso   1.00
N1444  N     0.83335   0.83334   0.71427   0.00000  Uiso   1.00
O1445  O     0.83333   0.77225   0.87154   0.00000  Uiso   1.00
O1446  O     0.67832   0.85445   0.89237   0.00000  Uiso   1.00
O1447  O     0.89973   0.88461   0.95970   0.00000  Uiso   1.00
O1448  O     0.76694   0.78206   0.70697   0.00000  Uiso   1.00
O1449  O     0.83334   0.89442   0.79513   0.00000  Uiso   1.00
O1450  O     0.83333   0.77226   0.79510   0.00000  Uiso   1.00
O1451  O     0.83334   0.89441   0.87157   0.00000  Uiso   1.00
O1452  O     0.75725   0.83333   0.86261   0.00000  Uiso   1.00
O1453  O     0.90942   0.83334   0.80405   0.00000  Uiso   1.00
O1454  O     0.75725   0.83334   0.78617   0.00000  Uiso   1.00
O1455  O     0.90942   0.83333   0.88050   0.00000  Uiso   1.00
O1456  O     0.98834   0.81222   0.77430   0.00000  Uiso   1.00
Zn1457 Zn    0.83333   0.83333   0.88437   0.00000  Uiso   1.00
Zn1458 Zn    0.83333   0.83334   0.78229   0.00000  Uiso   1.00
loop_
_geom_bond_atom_site_label_1
_geom_bond_atom_site_label_2
_geom_bond_distance
_geom_bond_site_symmetry_2
_ccdc_geom_bond_type
C1     C4      1.416   .     S
C1     O41     1.281   .     A
C1     O46     1.282   .     A
C2     C4      1.397   .     A
C2     H33     1.084   .     S
C2     C343    1.370   1_545 S
C3     C20     1.397   .     A
C3     C19     1.396   .     A
C3     C12     1.416   .     S
C4     C18     1.396   .     A
C5     H34     1.081   .     S
C5     N40     1.364   .     A
C5     C979    1.428   1_554 S
C6     H35     1.081   .     S
C6     N39     1.364   .     A
C6     C494    1.428   .     S
C7     N39     1.368   .     A
C7     O43     1.386   .     S
C7     C491    1.428   .     S
C8     N40     1.368   .     A
C8     O44     1.386   .     S
C8     C978    1.428   1_554 S
C9     H37     1.109   .     S
C9     O52     1.411   .     S
C9     H38     1.114   .     S
C9     H90     1.113   .     S
C10    O42     1.411   .     S
C10    H22     1.109   .     S
C10    H24     1.114   .     S
C10    H131    1.113   1_455 S
C11    O43     1.412   .     S
C11    H27     1.109   .     S
C11    H26     1.115   .     S
C11    H511    1.110   .     S
C12    O47     1.282   .     A
C12    O45     1.281   .     A
C13    H28     1.109   .     S
C13    H29     1.115   .     S
C13    O44     1.412   .     S
C13    H1002   1.110   1_554 S
C14    C16     1.405   .     S
C14    O50     1.282   .     A
C14    O48     1.272   .     A
C15    O51     1.282   .     A
C15    O49     1.272   .     A
C15    C17     1.405   .     S
C16    C125    1.352   1_455 S
C16    O160    1.391   1_455 S
C17    C70     1.352   .     S
C17    O96     1.391   .     S
C18    H21     1.084   .     S
C18    C344    1.370   1_545 S
C19    H31     1.084   .     S
C19    C164    1.370   .     S
C20    H32     1.084   .     S
C20    C180    1.370   .     S
H23    C64     1.113   .     S
H25    C983    1.110   1_554 S
H30    C499    1.110   .     S
H36    C117    1.113   1_455 S
N39    Zn53    2.008   .     S
N40    Zn54    2.008   .     S
O41    Zn53    1.995   .     S
O42    C125    1.391   1_455 S
O45    Zn54    1.995   .     S
O46    Zn54    1.995   .     S
O47    Zn53    1.995   .     S
O48    Zn53    1.984   .     S
O49    Zn54    1.984   .     S
O50    Zn54    1.993   .     S
O51    Zn53    1.993   .     S
O52    C70     1.391   .     S
C55    C58     1.416   .     S
C55    O95     1.281   .     A
C55    O100    1.282   .     A
C56    C58     1.397   .     A
C56    H87     1.084   .     S
C56    C397    1.370   1_545 S
C57    C74     1.397   .     A
C57    C73     1.396   .     A
C57    C66     1.416   .     S
C58    C72     1.396   .     A
C59    H88     1.081   .     S
C59    N94     1.364   .     A
C59    C1033   1.428   1_554 S
C60    H89     1.081   .     S
C60    N93     1.364   .     A
C60    C548    1.428   .     S
C61    N93     1.368   .     A
C61    O97     1.386   .     S
C61    C545    1.428   .     S
C62    N94     1.368   .     A
C62    O98     1.386   .     S
C62    C1032   1.428   1_554 S
C63    H91     1.109   .     S
C63    O106    1.411   .     S
C63    H92     1.114   .     S
C63    H144    1.113   .     S
C64    O96     1.411   .     S
C64    H76     1.109   .     S
C64    H78     1.114   .     S
C65    O97     1.412   .     S
C65    H81     1.109   .     S
C65    H80     1.115   .     S
C65    H565    1.110   .     S
C66    O101    1.282   .     A
C66    O99     1.281   .     A
C67    H82     1.109   .     S
C67    H83     1.115   .     S
C67    O98     1.412   .     S
C67    H1056   1.110   1_554 S
C68    C70     1.405   .     S
C68    O104    1.282   .     A
C68    O102    1.272   .     A
C69    O105    1.282   .     A
C69    O103    1.272   .     A
C69    C71     1.405   .     S
C71    C124    1.352   .     S
C71    O150    1.391   .     S
C72    H75     1.084   .     S
C72    C398    1.370   1_545 S
C73    H85     1.084   .     S
C73    C218    1.370   .     S
C74    H86     1.084   .     S
C74    C234    1.370   .     S
H77    C118    1.113   .     S
H79    C1037   1.110   1_554 S
H84    C553    1.110   .     S
N93    Zn107   2.008   .     S
N94    Zn108   2.008   .     S
O95    Zn107   1.995   .     S
O99    Zn108   1.995   .     S
O100   Zn108   1.995   .     S
O101   Zn107   1.995   .     S
O102   Zn107   1.984   .     S
O103   Zn108   1.984   .     S
O104   Zn108   1.993   .     S
O105   Zn107   1.993   .     S
O106   C124    1.391   .     S
C109   C112    1.416   .     S
C109   O149    1.281   .     A
C109   O154    1.282   .     A
C110   C112    1.397   .     A
C110   H141    1.084   .     S
C110   C451    1.370   1_545 S
C111   C128    1.397   .     A
C111   C127    1.396   .     A
C111   C120    1.416   .     S
C112   C126    1.396   .     A
C113   H142    1.081   .     S
C113   N148    1.364   .     A
C113   C1087   1.428   1_554 S
C114   H143    1.081   .     S
C114   N147    1.364   .     A
C114   C602    1.428   .     S
C115   N147    1.368   .     A
C115   O151    1.386   .     S
C115   C599    1.428   .     S
C116   N148    1.368   .     A
C116   O152    1.386   .     S
C116   C1086   1.428   1_554 S
C117   H145    1.109   .     S
C117   O160    1.411   .     S
C117   H146    1.114   .     S
C117   H36     1.113   1_655 S
C118   O150    1.411   .     S
C118   H130    1.109   .     S
C118   H132    1.114   .     S
C119   O151    1.412   .     S
C119   H135    1.109   .     S
C119   H134    1.115   .     S
C119   H619    1.110   .     S
C120   O155    1.282   .     A
C120   O153    1.281   .     A
C121   H136    1.109   .     S
C121   H137    1.115   .     S
C121   O152    1.412   .     S
C121   H1110   1.110   1_554 S
C122   C124    1.405   .     S
C122   O158    1.282   .     A
C122   O156    1.272   .     A
C123   O159    1.282   .     A
C123   O157    1.272   .     A
C123   C125    1.405   .     S
C125   C16     1.352   1_655 S
C125   O42     1.391   1_655 S
C126   H129    1.084   .     S
C126   C452    1.370   1_545 S
C127   H139    1.084   .     S
C127   C272    1.370   .     S
C128   H140    1.084   .     S
C128   C288    1.370   .     S
H131   C10     1.113   1_655 S
H133   C1091   1.110   1_554 S
H138   C607    1.110   .     S
N147   Zn161   2.008   .     S
N148   Zn162   2.008   .     S
O149   Zn161   1.995   .     S
O153   Zn162   1.995   .     S
O154   Zn162   1.995   .     S
O155   Zn161   1.995   .     S
O156   Zn161   1.984   .     S
O157   Zn162   1.984   .     S
O158   Zn162   1.993   .     S
O159   Zn161   1.993   .     S
O160   C16     1.391   1_655 S
C163   C166    1.416   .     S
C163   O203    1.281   .     A
C163   O208    1.282   .     A
C164   C166    1.397   .     A
C164   H195    1.084   .     S
C165   C182    1.397   .     A
C165   C181    1.396   .     A
C165   C174    1.416   .     S
C166   C180    1.396   .     A
C167   H196    1.081   .     S
C167   N202    1.364   .     A
C167   C1141   1.428   1_554 S
C168   H197    1.081   .     S
C168   N201    1.364   .     A
C168   C656    1.428   .     S
C169   N201    1.368   .     A
C169   O205    1.386   .     S
C169   C653    1.428   .     S
C170   N202    1.368   .     A
C170   O206    1.386   .     S
C170   C1140   1.428   1_554 S
C171   H199    1.109   .     S
C171   O214    1.411   .     S
C171   H200    1.114   .     S
C171   H252    1.113   .     S
C172   O204    1.411   .     S
C172   H184    1.109   .     S
C172   H186    1.114   .     S
C172   H293    1.113   1_455 S
C173   O205    1.412   .     S
C173   H189    1.109   .     S
C173   H188    1.115   .     S
C173   H673    1.110   .     S
C174   O209    1.282   .     A
C174   O207    1.281   .     A
C175   H190    1.109   .     S
C175   H191    1.115   .     S
C175   O206    1.412   .     S
C175   H1164   1.110   1_554 S
C176   C178    1.405   .     S
C176   O212    1.282   .     A
C176   O210    1.272   .     A
C177   O213    1.282   .     A
C177   O211    1.272   .     A
C177   C179    1.405   .     S
C178   C287    1.352   1_455 S
C178   O322    1.391   1_455 S
C179   C232    1.352   .     S
C179   O258    1.391   .     S
C180   H183    1.084   .     S
C181   H193    1.084   .     S
C181   C326    1.370   .     S
C182   H194    1.084   .     S
C182   C342    1.370   .     S
H185   C226    1.113   .     S
H187   C1145   1.110   1_554 S
H192   C661    1.110   .     S
H198   C279    1.113   1_455 S
N201   Zn215   2.008   .     S
N202   Zn216   2.008   .     S
O203   Zn215   1.995   .     S
O204   C287    1.391   1_455 S
O207   Zn216   1.995   .     S
O208   Zn216   1.995   .     S
O209   Zn215   1.995   .     S
O210   Zn215   1.984   .     S
O211   Zn216   1.984   .     S
O212   Zn216   1.993   .     S
O213   Zn215   1.993   .     S
O214   C232    1.391   .     S
C217   C220    1.416   .     S
C217   O257    1.281   .     A
C217   O262    1.282   .     A
C218   C220    1.397   .     A
C218   H249    1.084   .     S
C219   C236    1.397   .     A
C219   C235    1.396   .     A
C219   C228    1.416   .     S
C220   C234    1.396   .     A
C221   H250    1.081   .     S
C221   N256    1.364   .     A
C221   C1195   1.428   1_554 S
C222   H251    1.081   .     S
C222   N255    1.364   .     A
C222   C710    1.428   .     S
C223   N255    1.368   .     A
C223   O259    1.386   .     S
C223   C707    1.428   .     S
C224   N256    1.368   .     A
C224   O260    1.386   .     S
C224   C1194   1.428   1_554 S
C225   H253    1.109   .     S
C225   O268    1.411   .     S
C225   H254    1.114   .     S
C225   H306    1.113   .     S
C226   O258    1.411   .     S
C226   H238    1.109   .     S
C226   H240    1.114   .     S
C227   O259    1.412   .     S
C227   H243    1.109   .     S
C227   H242    1.115   .     S
C227   H727    1.110   .     S
C228   O263    1.282   .     A
C228   O261    1.281   .     A
C229   H244    1.109   .     S
C229   H245    1.115   .     S
C229   O260    1.412   .     S
C229   H1218   1.110   1_554 S
C230   C232    1.405   .     S
C230   O266    1.282   .     A
C230   O264    1.272   .     A
C231   O267    1.282   .     A
C231   O265    1.272   .     A
C231   C233    1.405   .     S
C233   C286    1.352   .     S
C233   O312    1.391   .     S
C234   H237    1.084   .     S
C235   H247    1.084   .     S
C235   C380    1.370   .     S
C236   H248    1.084   .     S
C236   C396    1.370   .     S
H239   C280    1.113   .     S
H241   C1199   1.110   1_554 S
H246   C715    1.110   .     S
N255   Zn269   2.008   .     S
N256   Zn270   2.008   .     S
O257   Zn269   1.995   .     S
O261   Zn270   1.995   .     S
O262   Zn270   1.995   .     S
O263   Zn269   1.995   .     S
O264   Zn269   1.984   .     S
O265   Zn270   1.984   .     S
O266   Zn270   1.993   .     S
O267   Zn269   1.993   .     S
O268   C286    1.391   .     S
C271   C274    1.416   .     S
C271   O311    1.281   .     A
C271   O316    1.282   .     A
C272   C274    1.397   .     A
C272   H303    1.084   .     S
C273   C290    1.397   .     A
C273   C289    1.396   .     A
C273   C282    1.416   .     S
C274   C288    1.396   .     A
C275   H304    1.081   .     S
C275   N310    1.364   .     A
C275   C1249   1.428   1_554 S
C276   H305    1.081   .     S
C276   N309    1.364   .     A
C276   C764    1.428   .     S
C277   N309    1.368   .     A
C277   O313    1.386   .     S
C277   C761    1.428   .     S
C278   N310    1.368   .     A
C278   O314    1.386   .     S
C278   C1248   1.428   1_554 S
C279   H307    1.109   .     S
C279   O322    1.411   .     S
C279   H308    1.114   .     S
C279   H198    1.113   1_655 S
C280   O312    1.411   .     S
C280   H292    1.109   .     S
C280   H294    1.114   .     S
C281   O313    1.412   .     S
C281   H297    1.109   .     S
C281   H296    1.115   .     S
C281   H781    1.110   .     S
C282   O317    1.282   .     A
C282   O315    1.281   .     A
C283   H298    1.109   .     S
C283   H299    1.115   .     S
C283   O314    1.412   .     S
C283   H1272   1.110   1_554 S
C284   C286    1.405   .     S
C284   O320    1.282   .     A
C284   O318    1.272   .     A
C285   O321    1.282   .     A
C285   O319    1.272   .     A
C285   C287    1.405   .     S
C287   C178    1.352   1_655 S
C287   O204    1.391   1_655 S
C288   H291    1.084   .     S
C289   H301    1.084   .     S
C289   C434    1.370   .     S
C290   H302    1.084   .     S
C290   C450    1.370   .     S
H293   C172    1.113   1_655 S
H295   C1253   1.110   1_554 S
H300   C769    1.110   .     S
N309   Zn323   2.008   .     S
N310   Zn324   2.008   .     S
O311   Zn323   1.995   .     S
O315   Zn324   1.995   .     S
O316   Zn324   1.995   .     S
O317   Zn323   1.995   .     S
O318   Zn323   1.984   .     S
O319   Zn324   1.984   .     S
O320   Zn324   1.993   .     S
O321   Zn323   1.993   .     S
O322   C178    1.391   1_655 S
C325   C328    1.416   .     S
C325   O365    1.281   .     A
C325   O370    1.282   .     A
C326   C328    1.397   .     A
C326   H357    1.084   .     S
C327   C344    1.397   .     A
C327   C343    1.396   .     A
C327   C336    1.416   .     S
C328   C342    1.396   .     A
C329   H358    1.081   .     S
C329   N364    1.364   .     A
C329   C1303   1.428   1_554 S
C330   H359    1.081   .     S
C330   N363    1.364   .     A
C330   C818    1.428   .     S
C331   N363    1.368   .     A
C331   O367    1.386   .     S
C331   C815    1.428   .     S
C332   N364    1.368   .     A
C332   O368    1.386   .     S
C332   C1302   1.428   1_554 S
C333   H361    1.109   .     S
C333   O376    1.411   .     S
C333   H362    1.114   .     S
C333   H414    1.113   .     S
C334   O366    1.411   .     S
C334   H346    1.109   .     S
C334   H348    1.114   .     S
C334   H455    1.113   1_455 S
C335   O367    1.412   .     S
C335   H351    1.109   .     S
C335   H350    1.115   .     S
C335   H835    1.110   .     S
C336   O371    1.282   .     A
C336   O369    1.281   .     A
C337   H352    1.109   .     S
C337   H353    1.115   .     S
C337   O368    1.412   .     S
C337   H1326   1.110   1_554 S
C338   C340    1.405   .     S
C338   O374    1.282   .     A
C338   O372    1.272   .     A
C339   O375    1.282   .     A
C339   O373    1.272   .     A
C339   C341    1.405   .     S
C340   C449    1.352   1_455 S
C340   O484    1.391   1_455 S
C341   C394    1.352   .     S
C341   O420    1.391   .     S
C342   H345    1.084   .     S
C343   H355    1.084   .     S
C343   C2      1.370   1_565 S
C344   H356    1.084   .     S
C344   C18     1.370   1_565 S
H347   C388    1.113   .     S
H349   C1307   1.110   1_554 S
H354   C823    1.110   .     S
H360   C441    1.113   1_455 S
N363   Zn377   2.008   .     S
N364   Zn378   2.008   .     S
O365   Zn377   1.995   .     S
O366   C449    1.391   1_455 S
O369   Zn378   1.995   .     S
O370   Zn378   1.995   .     S
O371   Zn377   1.995   .     S
O372   Zn377   1.984   .     S
O373   Zn378   1.984   .     S
O374   Zn378   1.993   .     S
O375   Zn377   1.993   .     S
O376   C394    1.391   .     S
C379   C382    1.416   .     S
C379   O419    1.281   .     A
C379   O424    1.282   .     A
C380   C382    1.397   .     A
C380   H411    1.084   .     S
C381   C398    1.397   .     A
C381   C397    1.396   .     A
C381   C390    1.416   .     S
C382   C396    1.396   .     A
C383   H412    1.081   .     S
C383   N418    1.364   .     A
C383   C1357   1.428   1_554 S
C384   H413    1.081   .     S
C384   N417    1.364   .     A
C384   C872    1.428   .     S
C385   N417    1.368   .     A
C385   O421    1.386   .     S
C385   C869    1.428   .     S
C386   N418    1.368   .     A
C386   O422    1.386   .     S
C386   C1356   1.428   1_554 S
C387   H415    1.109   .     S
C387   O430    1.411   .     S
C387   H416    1.114   .     S
C387   H468    1.113   .     S
C388   O420    1.411   .     S
C388   H400    1.109   .     S
C388   H402    1.114   .     S
C389   O421    1.412   .     S
C389   H405    1.109   .     S
C389   H404    1.115   .     S
C389   H889    1.110   .     S
C390   O425    1.282   .     A
C390   O423    1.281   .     A
C391   H406    1.109   .     S
C391   H407    1.115   .     S
C391   O422    1.412   .     S
C391   H1380   1.110   1_554 S
C392   C394    1.405   .     S
C392   O428    1.282   .     A
C392   O426    1.272   .     A
C393   O429    1.282   .     A
C393   O427    1.272   .     A
C393   C395    1.405   .     S
C395   C448    1.352   .     S
C395   O474    1.391   .     S
C396   H399    1.084   .     S
C397   H409    1.084   .     S
C397   C56     1.370   1_565 S
C398   H410    1.084   .     S
C398   C72     1.370   1_565 S
H401   C442    1.113   .     S
H403   C1361   1.110   1_554 S
H408   C877    1.110   .     S
N417   Zn431   2.008   .     S
N418   Zn432   2.008   .     S
O419   Zn431   1.995   .     S
O423   Zn432   1.995   .     S
O424   Zn432   1.995   .     S
O425   Zn431   1.995   .     S
O426   Zn431   1.984   .     S
O427   Zn432   1.984   .     S
O428   Zn432   1.993   .     S
O429   Zn431   1.993   .     S
O430   C448    1.391   .     S
C433   C436    1.416   .     S
C433   O473    1.281   .     A
C433   O478    1.282   .     A
C434   C436    1.397   .     A
C434   H465    1.084   .     S
C435   C452    1.397   .     A
C435   C451    1.396   .     A
C435   C444    1.416   .     S
C436   C450    1.396   .     A
C437   H466    1.081   .     S
C437   N472    1.364   .     A
C437   C1411   1.428   1_554 S
C438   H467    1.081   .     S
C438   N471    1.364   .     A
C438   C926    1.428   .     S
C439   N471    1.368   .     A
C439   O475    1.386   .     S
C439   C923    1.428   .     S
C440   N472    1.368   .     A
C440   O476    1.386   .     S
C440   C1410   1.428   1_554 S
C441   H469    1.109   .     S
C441   O484    1.411   .     S
C441   H470    1.114   .     S
C441   H360    1.113   1_655 S
C442   O474    1.411   .     S
C442   H454    1.109   .     S
C442   H456    1.114   .     S
C443   O475    1.412   .     S
C443   H459    1.109   .     S
C443   H458    1.115   .     S
C443   H943    1.110   .     S
C444   O479    1.282   .     A
C444   O477    1.281   .     A
C445   H460    1.109   .     S
C445   H461    1.115   .     S
C445   O476    1.412   .     S
C445   H1434   1.110   1_554 S
C446   C448    1.405   .     S
C446   O482    1.282   .     A
C446   O480    1.272   .     A
C447   O483    1.282   .     A
C447   O481    1.272   .     A
C447   C449    1.405   .     S
C449   C340    1.352   1_655 S
C449   O366    1.391   1_655 S
C450   H453    1.084   .     S
C451   H463    1.084   .     S
C451   C110    1.370   1_565 S
C452   H464    1.084   .     S
C452   C126    1.370   1_565 S
H455   C334    1.113   1_655 S
H457   C1415   1.110   1_554 S
H462   C931    1.110   .     S
N471   Zn485   2.008   .     S
N472   Zn486   2.008   .     S
O473   Zn485   1.995   .     S
O477   Zn486   1.995   .     S
O478   Zn486   1.995   .     S
O479   Zn485   1.995   .     S
O480   Zn485   1.984   .     S
O481   Zn486   1.984   .     S
O482   Zn486   1.993   .     S
O483   Zn485   1.993   .     S
O484   C340    1.391   1_655 S
C487   C490    1.416   .     S
C487   O527    1.281   .     A
C487   O532    1.282   .     A
C488   C490    1.397   .     A
C488   H519    1.084   .     S
C488   C829    1.370   1_545 S
C489   C506    1.397   .     A
C489   C505    1.396   .     A
C489   C498    1.416   .     S
C490   C504    1.396   .     A
C491   H520    1.081   .     S
C491   N526    1.364   .     A
C492   H521    1.081   .     S
C492   N525    1.364   .     A
C492   C980    1.428   .     S
C493   N525    1.368   .     A
C493   O529    1.386   .     S
C493   C977    1.428   .     S
C494   N526    1.368   .     A
C494   O530    1.386   .     S
C495   H523    1.109   .     S
C495   O538    1.411   .     S
C495   H524    1.114   .     S
C495   H576    1.113   .     S
C496   O528    1.411   .     S
C496   H508    1.109   .     S
C496   H510    1.114   .     S
C496   H617    1.113   1_455 S
C497   O529    1.412   .     S
C497   H513    1.109   .     S
C497   H512    1.115   .     S
C497   H997    1.110   .     S
C498   O533    1.282   .     A
C498   O531    1.281   .     A
C499   H514    1.109   .     S
C499   H515    1.115   .     S
C499   O530    1.412   .     S
C500   C502    1.405   .     S
C500   O536    1.282   .     A
C500   O534    1.272   .     A
C501   O537    1.282   .     A
C501   O535    1.272   .     A
C501   C503    1.405   .     S
C502   C611    1.352   1_455 S
C502   O646    1.391   1_455 S
C503   C556    1.352   .     S
C503   O582    1.391   .     S
C504   H507    1.084   .     S
C504   C830    1.370   1_545 S
C505   H517    1.084   .     S
C505   C650    1.370   .     S
C506   H518    1.084   .     S
C506   C666    1.370   .     S
H509   C550    1.113   .     S
H516   C985    1.110   .     S
H522   C603    1.113   1_455 S
N525   Zn539   2.008   .     S
N526   Zn540   2.008   .     S
O527   Zn539   1.995   .     S
O528   C611    1.391   1_455 S
O531   Zn540   1.995   .     S
O532   Zn540   1.995   .     S
O533   Zn539   1.995   .     S
O534   Zn539   1.984   .     S
O535   Zn540   1.984   .     S
O536   Zn540   1.993   .     S
O537   Zn539   1.993   .     S
O538   C556    1.391   .     S
C541   C544    1.416   .     S
C541   O581    1.281   .     A
C541   O586    1.282   .     A
C542   C544    1.397   .     A
C542   H573    1.084   .     S
C542   C883    1.370   1_545 S
C543   C560    1.397   .     A
C543   C559    1.396   .     A
C543   C552    1.416   .     S
C544   C558    1.396   .     A
C545   H574    1.081   .     S
C545   N580    1.364   .     A
C546   H575    1.081   .     S
C546   N579    1.364   .     A
C546   C1034   1.428   .     S
C547   N579    1.368   .     A
C547   O583    1.386   .     S
C547   C1031   1.428   .     S
C548   N580    1.368   .     A
C548   O584    1.386   .     S
C549   H577    1.109   .     S
C549   O592    1.411   .     S
C549   H578    1.114   .     S
C549   H630    1.113   .     S
C550   O582    1.411   .     S
C550   H562    1.109   .     S
C550   H564    1.114   .     S
C551   O583    1.412   .     S
C551   H567    1.109   .     S
C551   H566    1.115   .     S
C551   H1051   1.110   .     S
C552   O587    1.282   .     A
C552   O585    1.281   .     A
C553   H568    1.109   .     S
C553   H569    1.115   .     S
C553   O584    1.412   .     S
C554   C556    1.405   .     S
C554   O590    1.282   .     A
C554   O588    1.272   .     A
C555   O591    1.282   .     A
C555   O589    1.272   .     A
C555   C557    1.405   .     S
C557   C610    1.352   .     S
C557   O636    1.391   .     S
C558   H561    1.084   .     S
C558   C884    1.370   1_545 S
C559   H571    1.084   .     S
C559   C704    1.370   .     S
C560   H572    1.084   .     S
C560   C720    1.370   .     S
H563   C604    1.113   .     S
H570   C1039   1.110   .     S
N579   Zn593   2.008   .     S
N580   Zn594   2.008   .     S
O581   Zn593   1.995   .     S
O585   Zn594   1.995   .     S
O586   Zn594   1.995   .     S
O587   Zn593   1.995   .     S
O588   Zn593   1.984   .     S
O589   Zn594   1.984   .     S
O590   Zn594   1.993   .     S
O591   Zn593   1.993   .     S
O592   C610    1.391   .     S
C595   C598    1.416   .     S
C595   O635    1.281   .     A
C595   O640    1.282   .     A
C596   C598    1.397   .     A
C596   H627    1.084   .     S
C596   C937    1.370   1_545 S
C597   C614    1.397   .     A
C597   C613    1.396   .     A
C597   C606    1.416   .     S
C598   C612    1.396   .     A
C599   H628    1.081   .     S
C599   N634    1.364   .     A
C600   H629    1.081   .     S
C600   N633    1.364   .     A
C600   C1088   1.428   .     S
C601   N633    1.368   .     A
C601   O637    1.386   .     S
C601   C1085   1.428   .     S
C602   N634    1.368   .     A
C602   O638    1.386   .     S
C603   H631    1.109   .     S
C603   O646    1.411   .     S
C603   H632    1.114   .     S
C603   H522    1.113   1_655 S
C604   O636    1.411   .     S
C604   H616    1.109   .     S
C604   H618    1.114   .     S
C605   O637    1.412   .     S
C605   H621    1.109   .     S
C605   H620    1.115   .     S
C605   H1105   1.110   .     S
C606   O641    1.282   .     A
C606   O639    1.281   .     A
C607   H622    1.109   .     S
C607   H623    1.115   .     S
C607   O638    1.412   .     S
C608   C610    1.405   .     S
C608   O644    1.282   .     A
C608   O642    1.272   .     A
C609   O645    1.282   .     A
C609   O643    1.272   .     A
C609   C611    1.405   .     S
C611   C502    1.352   1_655 S
C611   O528    1.391   1_655 S
C612   H615    1.084   .     S
C612   C938    1.370   1_545 S
C613   H625    1.084   .     S
C613   C758    1.370   .     S
C614   H626    1.084   .     S
C614   C774    1.370   .     S
H617   C496    1.113   1_655 S
H624   C1093   1.110   .     S
N633   Zn647   2.008   .     S
N634   Zn648   2.008   .     S
O635   Zn647   1.995   .     S
O639   Zn648   1.995   .     S
O640   Zn648   1.995   .     S
O641   Zn647   1.995   .     S
O642   Zn647   1.984   .     S
O643   Zn648   1.984   .     S
O644   Zn648   1.993   .     S
O645   Zn647   1.993   .     S
O646   C502    1.391   1_655 S
C649   C652    1.416   .     S
C649   O689    1.281   .     A
C649   O694    1.282   .     A
C650   C652    1.397   .     A
C650   H681    1.084   .     S
C651   C668    1.397   .     A
C651   C667    1.396   .     A
C651   C660    1.416   .     S
C652   C666    1.396   .     A
C653   H682    1.081   .     S
C653   N688    1.364   .     A
C654   H683    1.081   .     S
C654   N687    1.364   .     A
C654   C1142   1.428   .     S
C655   N687    1.368   .     A
C655   O691    1.386   .     S
C655   C1139   1.428   .     S
C656   N688    1.368   .     A
C656   O692    1.386   .     S
C657   H685    1.109   .     S
C657   O700    1.411   .     S
C657   H686    1.114   .     S
C657   H738    1.113   .     S
C658   O690    1.411   .     S
C658   H670    1.109   .     S
C658   H672    1.114   .     S
C658   H779    1.113   1_455 S
C659   O691    1.412   .     S
C659   H675    1.109   .     S
C659   H674    1.115   .     S
C659   H1159   1.110   .     S
C660   O695    1.282   .     A
C660   O693    1.281   .     A
C661   H676    1.109   .     S
C661   H677    1.115   .     S
C661   O692    1.412   .     S
C662   C664    1.405   .     S
C662   O698    1.282   .     A
C662   O696    1.272   .     A
C663   O699    1.282   .     A
C663   O697    1.272   .     A
C663   C665    1.405   .     S
C664   C773    1.352   1_455 S
C664   O808    1.391   1_455 S
C665   C718    1.352   .     S
C665   O744    1.391   .     S
C666   H669    1.084   .     S
C667   H679    1.084   .     S
C667   C812    1.370   .     S
C668   H680    1.084   .     S
C668   C828    1.370   .     S
H671   C712    1.113   .     S
H678   C1147   1.110   .     S
H684   C765    1.113   1_455 S
N687   Zn701   2.008   .     S
N688   Zn702   2.008   .     S
O689   Zn701   1.995   .     S
O690   C773    1.391   1_455 S
O693   Zn702   1.995   .     S
O694   Zn702   1.995   .     S
O695   Zn701   1.995   .     S
O696   Zn701   1.984   .     S
O697   Zn702   1.984   .     S
O698   Zn702   1.993   .     S
O699   Zn701   1.993   .     S
O700   C718    1.391   .     S
C703   C706    1.416   .     S
C703   O743    1.281   .     A
C703   O748    1.282   .     A
C704   C706    1.397   .     A
C704   H735    1.084   .     S
C705   C722    1.397   .     A
C705   C721    1.396   .     A
C705   C714    1.416   .     S
C706   C720    1.396   .     A
C707   H736    1.081   .     S
C707   N742    1.364   .     A
C708   H737    1.081   .     S
C708   N741    1.364   .     A
C708   C1196   1.428   .     S
C709   N741    1.368   .     A
C709   O745    1.386   .     S
C709   C1193   1.428   .     S
C710   N742    1.368   .     A
C710   O746    1.386   .     S
C711   H739    1.109   .     S
C711   O754    1.411   .     S
C711   H740    1.114   .     S
C711   H792    1.113   .     S
C712   O744    1.411   .     S
C712   H724    1.109   .     S
C712   H726    1.114   .     S
C713   O745    1.412   .     S
C713   H729    1.109   .     S
C713   H728    1.115   .     S
C713   H1213   1.110   .     S
C714   O749    1.282   .     A
C714   O747    1.281   .     A
C715   H730    1.109   .     S
C715   H731    1.115   .     S
C715   O746    1.412   .     S
C716   C718    1.405   .     S
C716   O752    1.282   .     A
C716   O750    1.272   .     A
C717   O753    1.282   .     A
C717   O751    1.272   .     A
C717   C719    1.405   .     S
C719   C772    1.352   .     S
C719   O798    1.391   .     S
C720   H723    1.084   .     S
C721   H733    1.084   .     S
C721   C866    1.370   .     S
C722   H734    1.084   .     S
C722   C882    1.370   .     S
H725   C766    1.113   .     S
H732   C1201   1.110   .     S
N741   Zn755   2.008   .     S
N742   Zn756   2.008   .     S
O743   Zn755   1.995   .     S
O747   Zn756   1.995   .     S
O748   Zn756   1.995   .     S
O749   Zn755   1.995   .     S
O750   Zn755   1.984   .     S
O751   Zn756   1.984   .     S
O752   Zn756   1.993   .     S
O753   Zn755   1.993   .     S
O754   C772    1.391   .     S
C757   C760    1.416   .     S
C757   O797    1.281   .     A
C757   O802    1.282   .     A
C758   C760    1.397   .     A
C758   H789    1.084   .     S
C759   C776    1.397   .     A
C759   C775    1.396   .     A
C759   C768    1.416   .     S
C760   C774    1.396   .     A
C761   H790    1.081   .     S
C761   N796    1.364   .     A
C762   H791    1.081   .     S
C762   N795    1.364   .     A
C762   C1250   1.428   .     S
C763   N795    1.368   .     A
C763   O799    1.386   .     S
C763   C1247   1.428   .     S
C764   N796    1.368   .     A
C764   O800    1.386   .     S
C765   H793    1.109   .     S
C765   O808    1.411   .     S
C765   H794    1.114   .     S
C765   H684    1.113   1_655 S
C766   O798    1.411   .     S
C766   H778    1.109   .     S
C766   H780    1.114   .     S
C767   O799    1.412   .     S
C767   H783    1.109   .     S
C767   H782    1.115   .     S
C767   H1267   1.110   .     S
C768   O803    1.282   .     A
C768   O801    1.281   .     A
C769   H784    1.109   .     S
C769   H785    1.115   .     S
C769   O800    1.412   .     S
C770   C772    1.405   .     S
C770   O806    1.282   .     A
C770   O804    1.272   .     A
C771   O807    1.282   .     A
C771   O805    1.272   .     A
C771   C773    1.405   .     S
C773   C664    1.352   1_655 S
C773   O690    1.391   1_655 S
C774   H777    1.084   .     S
C775   H787    1.084   .     S
C775   C920    1.370   .     S
C776   H788    1.084   .     S
C776   C936    1.370   .     S
H779   C658    1.113   1_655 S
H786   C1255   1.110   .     S
N795   Zn809   2.008   .     S
N796   Zn810   2.008   .     S
O797   Zn809   1.995   .     S
O801   Zn810   1.995   .     S
O802   Zn810   1.995   .     S
O803   Zn809   1.995   .     S
O804   Zn809   1.984   .     S
O805   Zn810   1.984   .     S
O806   Zn810   1.993   .     S
O807   Zn809   1.993   .     S
O808   C664    1.391   1_655 S
C811   C814    1.416   .     S
C811   O851    1.281   .     A
C811   O856    1.282   .     A
C812   C814    1.397   .     A
C812   H843    1.084   .     S
C813   C830    1.397   .     A
C813   C829    1.396   .     A
C813   C822    1.416   .     S
C814   C828    1.396   .     A
C815   H844    1.081   .     S
C815   N850    1.364   .     A
C816   H845    1.081   .     S
C816   N849    1.364   .     A
C816   C1304   1.428   .     S
C817   N849    1.368   .     A
C817   O853    1.386   .     S
C817   C1301   1.428   .     S
C818   N850    1.368   .     A
C818   O854    1.386   .     S
C819   H847    1.109   .     S
C819   O862    1.411   .     S
C819   H848    1.114   .     S
C819   H900    1.113   .     S
C820   O852    1.411   .     S
C820   H832    1.109   .     S
C820   H834    1.114   .     S
C820   H941    1.113   1_455 S
C821   O853    1.412   .     S
C821   H837    1.109   .     S
C821   H836    1.115   .     S
C821   H1321   1.110   .     S
C822   O857    1.282   .     A
C822   O855    1.281   .     A
C823   H838    1.109   .     S
C823   H839    1.115   .     S
C823   O854    1.412   .     S
C824   C826    1.405   .     S
C824   O860    1.282   .     A
C824   O858    1.272   .     A
C825   O861    1.282   .     A
C825   O859    1.272   .     A
C825   C827    1.405   .     S
C826   C935    1.352   1_455 S
C826   O970    1.391   1_455 S
C827   C880    1.352   .     S
C827   O906    1.391   .     S
C828   H831    1.084   .     S
C829   H841    1.084   .     S
C829   C488    1.370   1_565 S
C830   H842    1.084   .     S
C830   C504    1.370   1_565 S
H833   C874    1.113   .     S
H840   C1309   1.110   .     S
H846   C927    1.113   1_455 S
N849   Zn863   2.008   .     S
N850   Zn864   2.008   .     S
O851   Zn863   1.995   .     S
O852   C935    1.391   1_455 S
O855   Zn864   1.995   .     S
O856   Zn864   1.995   .     S
O857   Zn863   1.995   .     S
O858   Zn863   1.984   .     S
O859   Zn864   1.984   .     S
O860   Zn864   1.993   .     S
O861   Zn863   1.993   .     S
O862   C880    1.391   .     S
C865   C868    1.416   .     S
C865   O905    1.281   .     A
C865   O910    1.282   .     A
C866   C868    1.397   .     A
C866   H897    1.084   .     S
C867   C884    1.397   .     A
C867   C883    1.396   .     A
C867   C876    1.416   .     S
C868   C882    1.396   .     A
C869   H898    1.081   .     S
C869   N904    1.364   .     A
C870   H899    1.081   .     S
C870   N903    1.364   .     A
C870   C1358   1.428   .     S
C871   N903    1.368   .     A
C871   O907    1.386   .     S
C871   C1355   1.428   .     S
C872   N904    1.368   .     A
C872   O908    1.386   .     S
C873   H901    1.109   .     S
C873   O916    1.411   .     S
C873   H902    1.114   .     S
C873   H954    1.113   .     S
C874   O906    1.411   .     S
C874   H886    1.109   .     S
C874   H888    1.114   .     S
C875   O907    1.412   .     S
C875   H891    1.109   .     S
C875   H890    1.115   .     S
C875   H1375   1.110   .     S
C876   O911    1.282   .     A
C876   O909    1.281   .     A
C877   H892    1.109   .     S
C877   H893    1.115   .     S
C877   O908    1.412   .     S
C878   C880    1.405   .     S
C878   O914    1.282   .     A
C878   O912    1.272   .     A
C879   O915    1.282   .     A
C879   O913    1.272   .     A
C879   C881    1.405   .     S
C881   C934    1.352   .     S
C881   O960    1.391   .     S
C882   H885    1.084   .     S
C883   H895    1.084   .     S
C883   C542    1.370   1_565 S
C884   H896    1.084   .     S
C884   C558    1.370   1_565 S
H887   C928    1.113   .     S
H894   C1363   1.110   .     S
N903   Zn917   2.008   .     S
N904   Zn918   2.008   .     S
O905   Zn917   1.995   .     S
O909   Zn918   1.995   .     S
O910   Zn918   1.995   .     S
O911   Zn917   1.995   .     S
O912   Zn917   1.984   .     S
O913   Zn918   1.984   .     S
O914   Zn918   1.993   .     S
O915   Zn917   1.993   .     S
O916   C934    1.391   .     S
C919   C922    1.416   .     S
C919   O959    1.281   .     A
C919   O964    1.282   .     A
C920   C922    1.397   .     A
C920   H951    1.084   .     S
C921   C938    1.397   .     A
C921   C937    1.396   .     A
C921   C930    1.416   .     S
C922   C936    1.396   .     A
C923   H952    1.081   .     S
C923   N958    1.364   .     A
C924   H953    1.081   .     S
C924   N957    1.364   .     A
C924   C1412   1.428   .     S
C925   N957    1.368   .     A
C925   O961    1.386   .     S
C925   C1409   1.428   .     S
C926   N958    1.368   .     A
C926   O962    1.386   .     S
C927   H955    1.109   .     S
C927   O970    1.411   .     S
C927   H956    1.114   .     S
C927   H846    1.113   1_655 S
C928   O960    1.411   .     S
C928   H940    1.109   .     S
C928   H942    1.114   .     S
C929   O961    1.412   .     S
C929   H945    1.109   .     S
C929   H944    1.115   .     S
C929   H1429   1.110   .     S
C930   O965    1.282   .     A
C930   O963    1.281   .     A
C931   H946    1.109   .     S
C931   H947    1.115   .     S
C931   O962    1.412   .     S
C932   C934    1.405   .     S
C932   O968    1.282   .     A
C932   O966    1.272   .     A
C933   O969    1.282   .     A
C933   O967    1.272   .     A
C933   C935    1.405   .     S
C935   C826    1.352   1_655 S
C935   O852    1.391   1_655 S
C936   H939    1.084   .     S
C937   H949    1.084   .     S
C937   C596    1.370   1_565 S
C938   H950    1.084   .     S
C938   C612    1.370   1_565 S
H941   C820    1.113   1_655 S
H948   C1417   1.110   .     S
N957   Zn971   2.008   .     S
N958   Zn972   2.008   .     S
O959   Zn971   1.995   .     S
O963   Zn972   1.995   .     S
O964   Zn972   1.995   .     S
O965   Zn971   1.995   .     S
O966   Zn971   1.984   .     S
O967   Zn972   1.984   .     S
O968   Zn972   1.993   .     S
O969   Zn971   1.993   .     S
O970   C826    1.391   1_655 S
C973   C976    1.416   .     S
C973   O1013   1.281   .     A
C973   O1018   1.282   .     A
C974   C976    1.397   .     A
C974   H1005   1.084   .     S
C974   C1315   1.370   1_545 S
C975   C992    1.397   .     A
C975   C991    1.396   .     A
C975   C984    1.416   .     S
C976   C990    1.396   .     A
C977   H1006   1.081   .     S
C977   N1012   1.364   .     A
C978   H1007   1.081   .     S
C978   N1011   1.364   .     A
C978   C8      1.428   1_556 S
C979   N1011   1.368   .     A
C979   O1015   1.386   .     S
C979   C5      1.428   1_556 S
C980   N1012   1.368   .     A
C980   O1016   1.386   .     S
C981   H1009   1.109   .     S
C981   O1024   1.411   .     S
C981   H1010   1.114   .     S
C981   H1062   1.113   .     S
C982   O1014   1.411   .     S
C982   H994    1.109   .     S
C982   H996    1.114   .     S
C982   H1103   1.113   1_455 S
C983   O1015   1.412   .     S
C983   H999    1.109   .     S
C983   H998    1.115   .     S
C983   H25     1.110   1_556 S
C984   O1019   1.282   .     A
C984   O1017   1.281   .     A
C985   H1000   1.109   .     S
C985   H1001   1.115   .     S
C985   O1016   1.412   .     S
C986   C988    1.405   .     S
C986   O1022   1.282   .     A
C986   O1020   1.272   .     A
C987   O1023   1.282   .     A
C987   O1021   1.272   .     A
C987   C989    1.405   .     S
C988   C1097   1.352   1_455 S
C988   O1132   1.391   1_455 S
C989   C1042   1.352   .     S
C989   O1068   1.391   .     S
C990   H993    1.084   .     S
C990   C1316   1.370   1_545 S
C991   H1003   1.084   .     S
C991   C1136   1.370   .     S
C992   H1004   1.084   .     S
C992   C1152   1.370   .     S
H995   C1036   1.113   .     S
H1002  C13     1.110   1_556 S
H1008  C1089   1.113   1_455 S
N1011  Zn1025  2.008   .     S
N1012  Zn1026  2.008   .     S
O1013  Zn1025  1.995   .     S
O1014  C1097   1.391   1_455 S
O1017  Zn1026  1.995   .     S
O1018  Zn1026  1.995   .     S
O1019  Zn1025  1.995   .     S
O1020  Zn1025  1.984   .     S
O1021  Zn1026  1.984   .     S
O1022  Zn1026  1.993   .     S
O1023  Zn1025  1.993   .     S
O1024  C1042   1.391   .     S
C1027  C1030   1.416   .     S
C1027  O1067   1.281   .     A
C1027  O1072   1.282   .     A
C1028  C1030   1.397   .     A
C1028  H1059   1.084   .     S
C1028  C1369   1.370   1_545 S
C1029  C1046   1.397   .     A
C1029  C1045   1.396   .     A
C1029  C1038   1.416   .     S
C1030  C1044   1.396   .     A
C1031  H1060   1.081   .     S
C1031  N1066   1.364   .     A
C1032  H1061   1.081   .     S
C1032  N1065   1.364   .     A
C1032  C62     1.428   1_556 S
C1033  N1065   1.368   .     A
C1033  O1069   1.386   .     S
C1033  C59     1.428   1_556 S
C1034  N1066   1.368   .     A
C1034  O1070   1.386   .     S
C1035  H1063   1.109   .     S
C1035  O1078   1.411   .     S
C1035  H1064   1.114   .     S
C1035  H1116   1.113   .     S
C1036  O1068   1.411   .     S
C1036  H1048   1.109   .     S
C1036  H1050   1.114   .     S
C1037  O1069   1.412   .     S
C1037  H1053   1.109   .     S
C1037  H1052   1.115   .     S
C1037  H79     1.110   1_556 S
C1038  O1073   1.282   .     A
C1038  O1071   1.281   .     A
C1039  H1054   1.109   .     S
C1039  H1055   1.115   .     S
C1039  O1070   1.412   .     S
C1040  C1042   1.405   .     S
C1040  O1076   1.282   .     A
C1040  O1074   1.272   .     A
C1041  O1077   1.282   .     A
C1041  O1075   1.272   .     A
C1041  C1043   1.405   .     S
C1043  C1096   1.352   .     S
C1043  O1122   1.391   .     S
C1044  H1047   1.084   .     S
C1044  C1370   1.370   1_545 S
C1045  H1057   1.084   .     S
C1045  C1190   1.370   .     S
C1046  H1058   1.084   .     S
C1046  C1206   1.370   .     S
H1049  C1090   1.113   .     S
H1056  C67     1.110   1_556 S
N1065  Zn1079  2.008   .     S
N1066  Zn1080  2.008   .     S
O1067  Zn1079  1.995   .     S
O1071  Zn1080  1.995   .     S
O1072  Zn1080  1.995   .     S
O1073  Zn1079  1.995   .     S
O1074  Zn1079  1.984   .     S
O1075  Zn1080  1.984   .     S
O1076  Zn1080  1.993   .     S
O1077  Zn1079  1.993   .     S
O1078  C1096   1.391   .     S
C1081  C1084   1.416   .     S
C1081  O1121   1.281   .     A
C1081  O1126   1.282   .     A
C1082  C1084   1.397   .     A
C1082  H1113   1.084   .     S
C1082  C1423   1.370   1_545 S
C1083  C1100   1.397   .     A
C1083  C1099   1.396   .     A
C1083  C1092   1.416   .     S
C1084  C1098   1.396   .     A
C1085  H1114   1.081   .     S
C1085  N1120   1.364   .     A
C1086  H1115   1.081   .     S
C1086  N1119   1.364   .     A
C1086  C116    1.428   1_556 S
C1087  N1119   1.368   .     A
C1087  O1123   1.386   .     S
C1087  C113    1.428   1_556 S
C1088  N1120   1.368   .     A
C1088  O1124   1.386   .     S
C1089  H1117   1.109   .     S
C1089  O1132   1.411   .     S
C1089  H1118   1.114   .     S
C1089  H1008   1.113   1_655 S
C1090  O1122   1.411   .     S
C1090  H1102   1.109   .     S
C1090  H1104   1.114   .     S
C1091  O1123   1.412   .     S
C1091  H1107   1.109   .     S
C1091  H1106   1.115   .     S
C1091  H133    1.110   1_556 S
C1092  O1127   1.282   .     A
C1092  O1125   1.281   .     A
C1093  H1108   1.109   .     S
C1093  H1109   1.115   .     S
C1093  O1124   1.412   .     S
C1094  C1096   1.405   .     S
C1094  O1130   1.282   .     A
C1094  O1128   1.272   .     A
C1095  O1131   1.282   .     A
C1095  O1129   1.272   .     A
C1095  C1097   1.405   .     S
C1097  C988    1.352   1_655 S
C1097  O1014   1.391   1_655 S
C1098  H1101   1.084   .     S
C1098  C1424   1.370   1_545 S
C1099  H1111   1.084   .     S
C1099  C1244   1.370   .     S
C1100  H1112   1.084   .     S
C1100  C1260   1.370   .     S
H1103  C982    1.113   1_655 S
H1110  C121    1.110   1_556 S
N1119  Zn1133  2.008   .     S
N1120  Zn1134  2.008   .     S
O1121  Zn1133  1.995   .     S
O1125  Zn1134  1.995   .     S
O1126  Zn1134  1.995   .     S
O1127  Zn1133  1.995   .     S
O1128  Zn1133  1.984   .     S
O1129  Zn1134  1.984   .     S
O1130  Zn1134  1.993   .     S
O1131  Zn1133  1.993   .     S
O1132  C988    1.391   1_655 S
C1135  C1138   1.416   .     S
C1135  O1175   1.281   .     A
C1135  O1180   1.282   .     A
C1136  C1138   1.397   .     A
C1136  H1167   1.084   .     S
C1137  C1154   1.397   .     A
C1137  C1153   1.396   .     A
C1137  C1146   1.416   .     S
C1138  C1152   1.396   .     A
C1139  H1168   1.081   .     S
C1139  N1174   1.364   .     A
C1140  H1169   1.081   .     S
C1140  N1173   1.364   .     A
C1140  C170    1.428   1_556 S
C1141  N1173   1.368   .     A
C1141  O1177   1.386   .     S
C1141  C167    1.428   1_556 S
C1142  N1174   1.368   .     A
C1142  O1178   1.386   .     S
C1143  H1171   1.109   .     S
C1143  O1186   1.411   .     S
C1143  H1172   1.114   .     S
C1143  H1224   1.113   .     S
C1144  O1176   1.411   .     S
C1144  H1156   1.109   .     S
C1144  H1158   1.114   .     S
C1144  H1265   1.113   1_455 S
C1145  O1177   1.412   .     S
C1145  H1161   1.109   .     S
C1145  H1160   1.115   .     S
C1145  H187    1.110   1_556 S
C1146  O1181   1.282   .     A
C1146  O1179   1.281   .     A
C1147  H1162   1.109   .     S
C1147  H1163   1.115   .     S
C1147  O1178   1.412   .     S
C1148  C1150   1.405   .     S
C1148  O1184   1.282   .     A
C1148  O1182   1.272   .     A
C1149  O1185   1.282   .     A
C1149  O1183   1.272   .     A
C1149  C1151   1.405   .     S
C1150  C1259   1.352   1_455 S
C1150  O1294   1.391   1_455 S
C1151  C1204   1.352   .     S
C1151  O1230   1.391   .     S
C1152  H1155   1.084   .     S
C1153  H1165   1.084   .     S
C1153  C1298   1.370   .     S
C1154  H1166   1.084   .     S
C1154  C1314   1.370   .     S
H1157  C1198   1.113   .     S
H1164  C175    1.110   1_556 S
H1170  C1251   1.113   1_455 S
N1173  Zn1187  2.008   .     S
N1174  Zn1188  2.008   .     S
O1175  Zn1187  1.995   .     S
O1176  C1259   1.391   1_455 S
O1179  Zn1188  1.995   .     S
O1180  Zn1188  1.995   .     S
O1181  Zn1187  1.995   .     S
O1182  Zn1187  1.984   .     S
O1183  Zn1188  1.984   .     S
O1184  Zn1188  1.993   .     S
O1185  Zn1187  1.993   .     S
O1186  C1204   1.391   .     S
C1189  C1192   1.416   .     S
C1189  O1229   1.281   .     A
C1189  O1234   1.282   .     A
C1190  C1192   1.397   .     A
C1190  H1221   1.084   .     S
C1191  C1208   1.397   .     A
C1191  C1207   1.396   .     A
C1191  C1200   1.416   .     S
C1192  C1206   1.396   .     A
C1193  H1222   1.081   .     S
C1193  N1228   1.364   .     A
C1194  H1223   1.081   .     S
C1194  N1227   1.364   .     A
C1194  C224    1.428   1_556 S
C1195  N1227   1.368   .     A
C1195  O1231   1.386   .     S
C1195  C221    1.428   1_556 S
C1196  N1228   1.368   .     A
C1196  O1232   1.386   .     S
C1197  H1225   1.109   .     S
C1197  O1240   1.411   .     S
C1197  H1226   1.114   .     S
C1197  H1278   1.113   .     S
C1198  O1230   1.411   .     S
C1198  H1210   1.109   .     S
C1198  H1212   1.114   .     S
C1199  O1231   1.412   .     S
C1199  H1215   1.109   .     S
C1199  H1214   1.115   .     S
C1199  H241    1.110   1_556 S
C1200  O1235   1.282   .     A
C1200  O1233   1.281   .     A
C1201  H1216   1.109   .     S
C1201  H1217   1.115   .     S
C1201  O1232   1.412   .     S
C1202  C1204   1.405   .     S
C1202  O1238   1.282   .     A
C1202  O1236   1.272   .     A
C1203  O1239   1.282   .     A
C1203  O1237   1.272   .     A
C1203  C1205   1.405   .     S
C1205  C1258   1.352   .     S
C1205  O1284   1.391   .     S
C1206  H1209   1.084   .     S
C1207  H1219   1.084   .     S
C1207  C1352   1.370   .     S
C1208  H1220   1.084   .     S
C1208  C1368   1.370   .     S
H1211  C1252   1.113   .     S
H1218  C229    1.110   1_556 S
N1227  Zn1241  2.008   .     S
N1228  Zn1242  2.008   .     S
O1229  Zn1241  1.995   .     S
O1233  Zn1242  1.995   .     S
O1234  Zn1242  1.995   .     S
O1235  Zn1241  1.995   .     S
O1236  Zn1241  1.984   .     S
O1237  Zn1242  1.984   .     S
O1238  Zn1242  1.993   .     S
O1239  Zn1241  1.993   .     S
O1240  C1258   1.391   .     S
C1243  C1246   1.416   .     S
C1243  O1283   1.281   .     A
C1243  O1288   1.282   .     A
C1244  C1246   1.397   .     A
C1244  H1275   1.084   .     S
C1245  C1262   1.397   .     A
C1245  C1261   1.396   .     A
C1245  C1254   1.416   .     S
C1246  C1260   1.396   .     A
C1247  H1276   1.081   .     S
C1247  N1282   1.364   .     A
C1248  H1277   1.081   .     S
C1248  N1281   1.364   .     A
C1248  C278    1.428   1_556 S
C1249  N1281   1.368   .     A
C1249  O1285   1.386   .     S
C1249  C275    1.428   1_556 S
C1250  N1282   1.368   .     A
C1250  O1286   1.386   .     S
C1251  H1279   1.109   .     S
C1251  O1294   1.411   .     S
C1251  H1280   1.114   .     S
C1251  H1170   1.113   1_655 S
C1252  O1284   1.411   .     S
C1252  H1264   1.109   .     S
C1252  H1266   1.114   .     S
C1253  O1285   1.412   .     S
C1253  H1269   1.109   .     S
C1253  H1268   1.115   .     S
C1253  H295    1.110   1_556 S
C1254  O1289   1.282   .     A
C1254  O1287   1.281   .     A
C1255  H1270   1.109   .     S
C1255  H1271   1.115   .     S
C1255  O1286   1.412   .     S
C1256  C1258   1.405   .     S
C1256  O1292   1.282   .     A
C1256  O1290   1.272   .     A
C1257  O1293   1.282   .     A
C1257  O1291   1.272   .     A
C1257  C1259   1.405   .     S
C1259  C1150   1.352   1_655 S
C1259  O1176   1.391   1_655 S
C1260  H1263   1.084   .     S
C1261  H1273   1.084   .     S
C1261  C1406   1.370   .     S
C1262  H1274   1.084   .     S
C1262  C1422   1.370   .     S
H1265  C1144   1.113   1_655 S
H1272  C283    1.110   1_556 S
N1281  Zn1295  2.008   .     S
N1282  Zn1296  2.008   .     S
O1283  Zn1295  1.995   .     S
O1287  Zn1296  1.995   .     S
O1288  Zn1296  1.995   .     S
O1289  Zn1295  1.995   .     S
O1290  Zn1295  1.984   .     S
O1291  Zn1296  1.984   .     S
O1292  Zn1296  1.993   .     S
O1293  Zn1295  1.993   .     S
O1294  C1150   1.391   1_655 S
C1297  C1300   1.416   .     S
C1297  O1337   1.281   .     A
C1297  O1342   1.282   .     A
C1298  C1300   1.397   .     A
C1298  H1329   1.084   .     S
C1299  C1316   1.397   .     A
C1299  C1315   1.396   .     A
C1299  C1308   1.416   .     S
C1300  C1314   1.396   .     A
C1301  H1330   1.081   .     S
C1301  N1336   1.364   .     A
C1302  H1331   1.081   .     S
C1302  N1335   1.364   .     A
C1302  C332    1.428   1_556 S
C1303  N1335   1.368   .     A
C1303  O1339   1.386   .     S
C1303  C329    1.428   1_556 S
C1304  N1336   1.368   .     A
C1304  O1340   1.386   .     S
C1305  H1333   1.109   .     S
C1305  O1348   1.411   .     S
C1305  H1334   1.114   .     S
C1305  H1386   1.113   .     S
C1306  O1338   1.411   .     S
C1306  H1318   1.109   .     S
C1306  H1320   1.114   .     S
C1306  H1427   1.113   1_455 S
C1307  O1339   1.412   .     S
C1307  H1323   1.109   .     S
C1307  H1322   1.115   .     S
C1307  H349    1.110   1_556 S
C1308  O1343   1.282   .     A
C1308  O1341   1.281   .     A
C1309  H1324   1.109   .     S
C1309  H1325   1.115   .     S
C1309  O1340   1.412   .     S
C1310  C1312   1.405   .     S
C1310  O1346   1.282   .     A
C1310  O1344   1.272   .     A
C1311  O1347   1.282   .     A
C1311  O1345   1.272   .     A
C1311  C1313   1.405   .     S
C1312  C1421   1.352   1_455 S
C1312  O1456   1.391   1_455 S
C1313  C1366   1.352   .     S
C1313  O1392   1.391   .     S
C1314  H1317   1.084   .     S
C1315  H1327   1.084   .     S
C1315  C974    1.370   1_565 S
C1316  H1328   1.084   .     S
C1316  C990    1.370   1_565 S
H1319  C1360   1.113   .     S
H1326  C337    1.110   1_556 S
H1332  C1413   1.113   1_455 S
N1335  Zn1349  2.008   .     S
N1336  Zn1350  2.008   .     S
O1337  Zn1349  1.995   .     S
O1338  C1421   1.391   1_455 S
O1341  Zn1350  1.995   .     S
O1342  Zn1350  1.995   .     S
O1343  Zn1349  1.995   .     S
O1344  Zn1349  1.984   .     S
O1345  Zn1350  1.984   .     S
O1346  Zn1350  1.993   .     S
O1347  Zn1349  1.993   .     S
O1348  C1366   1.391   .     S
C1351  C1354   1.416   .     S
C1351  O1391   1.281   .     A
C1351  O1396   1.282   .     A
C1352  C1354   1.397   .     A
C1352  H1383   1.084   .     S
C1353  C1370   1.397   .     A
C1353  C1369   1.396   .     A
C1353  C1362   1.416   .     S
C1354  C1368   1.396   .     A
C1355  H1384   1.081   .     S
C1355  N1390   1.364   .     A
C1356  H1385   1.081   .     S
C1356  N1389   1.364   .     A
C1356  C386    1.428   1_556 S
C1357  N1389   1.368   .     A
C1357  O1393   1.386   .     S
C1357  C383    1.428   1_556 S
C1358  N1390   1.368   .     A
C1358  O1394   1.386   .     S
C1359  H1387   1.109   .     S
C1359  O1402   1.411   .     S
C1359  H1388   1.114   .     S
C1359  H1440   1.113   .     S
C1360  O1392   1.411   .     S
C1360  H1372   1.109   .     S
C1360  H1374   1.114   .     S
C1361  O1393   1.412   .     S
C1361  H1377   1.109   .     S
C1361  H1376   1.115   .     S
C1361  H403    1.110   1_556 S
C1362  O1397   1.282   .     A
C1362  O1395   1.281   .     A
C1363  H1378   1.109   .     S
C1363  H1379   1.115   .     S
C1363  O1394   1.412   .     S
C1364  C1366   1.405   .     S
C1364  O1400   1.282   .     A
C1364  O1398   1.272   .     A
C1365  O1401   1.282   .     A
C1365  O1399   1.272   .     A
C1365  C1367   1.405   .     S
C1367  C1420   1.352   .     S
C1367  O1446   1.391   .     S
C1368  H1371   1.084   .     S
C1369  H1381   1.084   .     S
C1369  C1028   1.370   1_565 S
C1370  H1382   1.084   .     S
C1370  C1044   1.370   1_565 S
H1373  C1414   1.113   .     S
H1380  C391    1.110   1_556 S
N1389  Zn1403  2.008   .     S
N1390  Zn1404  2.008   .     S
O1391  Zn1403  1.995   .     S
O1395  Zn1404  1.995   .     S
O1396  Zn1404  1.995   .     S
O1397  Zn1403  1.995   .     S
O1398  Zn1403  1.984   .     S
O1399  Zn1404  1.984   .     S
O1400  Zn1404  1.993   .     S
O1401  Zn1403  1.993   .     S
O1402  C1420   1.391   .     S
C1405  C1408   1.416   .     S
C1405  O1445   1.281   .     A
C1405  O1450   1.282   .     A
C1406  C1408   1.397   .     A
C1406  H1437   1.084   .     S
C1407  C1424   1.397   .     A
C1407  C1423   1.396   .     A
C1407  C1416   1.416   .     S
C1408  C1422   1.396   .     A
C1409  H1438   1.081   .     S
C1409  N1444   1.364   .     A
C1410  H1439   1.081   .     S
C1410  N1443   1.364   .     A
C1410  C440    1.428   1_556 S
C1411  N1443   1.368   .     A
C1411  O1447   1.386   .     S
C1411  C437    1.428   1_556 S
C1412  N1444   1.368   .     A
C1412  O1448   1.386   .     S
C1413  H1441   1.109   .     S
C1413  O1456   1.411   .     S
C1413  H1442   1.114   .     S
C1413  H1332   1.113   1_655 S
C1414  O1446   1.411   .     S
C1414  H1426   1.109   .     S
C1414  H1428   1.114   .     S
C1415  O1447   1.412   .     S
C1415  H1431   1.109   .     S
C1415  H1430   1.115   .     S
C1415  H457    1.110   1_556 S
C1416  O1451   1.282   .     A
C1416  O1449   1.281   .     A
C1417  H1432   1.109   .     S
C1417  H1433   1.115   .     S
C1417  O1448   1.412   .     S
C1418  C1420   1.405   .     S
C1418  O1454   1.282   .     A
C1418  O1452   1.272   .     A
C1419  O1455   1.282   .     A
C1419  O1453   1.272   .     A
C1419  C1421   1.405   .     S
C1421  C1312   1.352   1_655 S
C1421  O1338   1.391   1_655 S
C1422  H1425   1.084   .     S
C1423  H1435   1.084   .     S
C1423  C1082   1.370   1_565 S
C1424  H1436   1.084   .     S
C1424  C1098   1.370   1_565 S
H1427  C1306   1.113   1_655 S
H1434  C445    1.110   1_556 S
N1443  Zn1457  2.008   .     S
N1444  Zn1458  2.008   .     S
O1445  Zn1457  1.995   .     S
O1449  Zn1458  1.995   .     S
O1450  Zn1458  1.995   .     S
O1451  Zn1457  1.995   .     S
O1452  Zn1457  1.984   .     S
O1453  Zn1458  1.984   .     S
O1454  Zn1458  1.993   .     S
O1455  Zn1457  1.993   .     S
O1456  C1312   1.391   1_655 S
