data_str_m3_o1_o17_pcu_sym.157
_audit_creation_date              2020-01-03
_audit_creation_method            'Materials Studio'
_symmetry_space_group_name_H-M    'P1'
_symmetry_Int_Tables_number       1
_symmetry_cell_setting            triclinic
loop_
_symmetry_equiv_pos_as_xyz
  x,y,z
_cell_length_a                    31.9646
_cell_length_b                    29.5537
_cell_length_c                    29.7402
_cell_angle_alpha                 90.2775
_cell_angle_beta                  90.6116
_cell_angle_gamma                 89.8148
loop_
_atom_site_label
_atom_site_type_symbol
_atom_site_fract_x
_atom_site_fract_y
_atom_site_fract_z
_atom_site_U_iso_or_equiv
_atom_site_adp_type
_atom_site_occupancy
C1     C     0.08667   0.16672   0.25001   0.00000  Uiso   1.00
C2     C     0.24666   0.16662   0.24999   0.00000  Uiso   1.00
C3     C     0.09406   0.14139   0.02282   0.00000  Uiso   1.00
C4     C     0.23928   0.19193   0.47718   0.00000  Uiso   1.00
C5     C     0.02174   0.13042   0.26952   0.00000  Uiso   1.00
C6     C     0.31160   0.20291   0.23048   0.00000  Uiso   1.00
C7     C     0.31221   0.13033   0.26944   0.00000  Uiso   1.00
C8     C     0.02112   0.20301   0.23056   0.00000  Uiso   1.00
C9     C     0.29079   0.16658   0.24992   0.00000  Uiso   1.00
C10    C     0.04255   0.16676   0.25008   0.00000  Uiso   1.00
C11    C     0.19365   0.02401   0.27713   0.00000  Uiso   1.00
C12    C     0.13968   0.30932   0.22287   0.00000  Uiso   1.00
C13    C     0.13969   0.02393   0.22287   0.00000  Uiso   1.00
C14    C     0.19365   0.30940   0.27713   0.00000  Uiso   1.00
C15    C     0.16635   0.16656   0.16354   0.00000  Uiso   1.00
C16    C     0.16699   0.16678   0.33646   0.00000  Uiso   1.00
C17    C     0.20234   0.18120   0.40716   0.00000  Uiso   1.00
C18    C     0.13100   0.15214   0.09284   0.00000  Uiso   1.00
C19    C     0.16676   0.16712   0.38405   0.00000  Uiso   1.00
C20    C     0.16657   0.16621   0.11596   0.00000  Uiso   1.00
C21    C     0.13081   0.15351   0.40588   0.00000  Uiso   1.00
C22    C     0.20252   0.17982   0.09412   0.00000  Uiso   1.00
C23    C     0.12940   0.15480   0.45262   0.00000  Uiso   1.00
C24    C     0.20394   0.17853   0.04738   0.00000  Uiso   1.00
C25    C     0.16635   0.16713   0.47661   0.00000  Uiso   1.00
C26    C     0.16698   0.16620   0.02339   0.00000  Uiso   1.00
C27    C     0.20276   0.18042   0.45365   0.00000  Uiso   1.00
C28    C     0.13058   0.15291   0.04635   0.00000  Uiso   1.00
C29    C     0.09262   0.14313   0.47599   0.00000  Uiso   1.00
C30    C     0.24072   0.19019   0.02401   0.00000  Uiso   1.00
H31    H     0.22987   0.19149   0.38880   0.00000  Uiso   1.00
H32    H     0.10346   0.14184   0.11120   0.00000  Uiso   1.00
H33    H     0.10431   0.14210   0.38591   0.00000  Uiso   1.00
H34    H     0.22902   0.19123   0.11409   0.00000  Uiso   1.00
H35    H     0.06622   0.13204   0.04105   0.00000  Uiso   1.00
H36    H     0.26712   0.20128   0.45895   0.00000  Uiso   1.00
H37    H     0.21523   0.04219   0.29882   0.00000  Uiso   1.00
H38    H     0.11810   0.29114   0.20118   0.00000  Uiso   1.00
H39    H     0.11811   0.04205   0.20116   0.00000  Uiso   1.00
H40    H     0.21522   0.29128   0.29884   0.00000  Uiso   1.00
N41    N     0.16667   0.28573   0.25000   0.00000  Uiso   1.00
N42    N     0.16667   0.04760   0.25000   0.00000  Uiso   1.00
O43    O     0.10559   0.20487   0.25000   0.00000  Uiso   1.00
O44    O     0.22774   0.12846   0.25000   0.00000  Uiso   1.00
O45    O     0.22774   0.20487   0.25001   0.00000  Uiso   1.00
O46    O     0.10559   0.12846   0.25000   0.00000  Uiso   1.00
O47    O     0.16666   0.20489   0.18393   0.00000  Uiso   1.00
O48    O     0.16667   0.12844   0.31608   0.00000  Uiso   1.00
O49    O     0.16667   0.20489   0.31608   0.00000  Uiso   1.00
O50    O     0.16666   0.12844   0.18393   0.00000  Uiso   1.00
Zn51   Zn    0.16667   0.21771   0.25000   0.00000  Uiso   1.00
Zn52   Zn    0.16667   0.11563   0.25000   0.00000  Uiso   1.00
C53    C     0.05196   0.13424   0.45292   0.00000  Uiso   1.00
C54    C     0.03367   0.16714   0.42482   0.00000  Uiso   1.00
C55    C     0.32881   0.15864   0.40307   0.00000  Uiso   1.00
C56    C     0.30809   0.11775   0.40998   0.00000  Uiso   1.00
C57    C     0.32556   0.08528   0.43863   0.00000  Uiso   1.00
C58    C     0.03065   0.09342   0.46008   0.00000  Uiso   1.00
H59    H     0.04911   0.19923   0.41961   0.00000  Uiso   1.00
H60    H     0.31513   0.18388   0.38109   0.00000  Uiso   1.00
H61    H     0.27842   0.11133   0.39330   0.00000  Uiso   1.00
H62    H     0.30937   0.05370   0.44413   0.00000  Uiso   1.00
H63    H     0.04393   0.06783   0.48197   0.00000  Uiso   1.00
C64    C     0.28138   0.19906   0.04708   0.00000  Uiso   1.00
C65    C     0.30271   0.23987   0.03992   0.00000  Uiso   1.00
C66    C     0.00781   0.24799   0.06135   0.00000  Uiso   1.00
C67    C     0.02527   0.21550   0.09000   0.00000  Uiso   1.00
C68    C     0.00453   0.17463   0.09692   0.00000  Uiso   1.00
C69    C     0.29966   0.16616   0.07518   0.00000  Uiso   1.00
H70    H     0.28944   0.26546   0.01803   0.00000  Uiso   1.00
H71    H     0.02402   0.27955   0.05585   0.00000  Uiso   1.00
H72    H     0.05495   0.22191   0.10668   0.00000  Uiso   1.00
H73    H     0.01819   0.14938   0.11891   0.00000  Uiso   1.00
H74    H     0.28420   0.13408   0.08040   0.00000  Uiso   1.00
H75    H     0.03855   0.10259   0.28509   0.00000  Uiso   1.00
H76    H     0.29479   0.23074   0.21491   0.00000  Uiso   1.00
H77    H     0.29590   0.10246   0.28497   0.00000  Uiso   1.00
H78    H     0.03744   0.23087   0.21503   0.00000  Uiso   1.00
C79    C     0.42001   0.16672   0.25001   0.00000  Uiso   1.00
C80    C     0.57999   0.16662   0.24999   0.00000  Uiso   1.00
C81    C     0.42739   0.14139   0.02282   0.00000  Uiso   1.00
C82    C     0.57261   0.19193   0.47718   0.00000  Uiso   1.00
C83    C     0.35507   0.13042   0.26952   0.00000  Uiso   1.00
C84    C     0.64493   0.20291   0.23048   0.00000  Uiso   1.00
C85    C     0.64555   0.13033   0.26944   0.00000  Uiso   1.00
C86    C     0.35445   0.20301   0.23056   0.00000  Uiso   1.00
C87    C     0.62412   0.16658   0.24992   0.00000  Uiso   1.00
C88    C     0.37588   0.16676   0.25008   0.00000  Uiso   1.00
C89    C     0.52698   0.02401   0.27713   0.00000  Uiso   1.00
C90    C     0.47302   0.30932   0.22287   0.00000  Uiso   1.00
C91    C     0.47302   0.02393   0.22287   0.00000  Uiso   1.00
C92    C     0.52698   0.30940   0.27713   0.00000  Uiso   1.00
C93    C     0.49968   0.16656   0.16354   0.00000  Uiso   1.00
C94    C     0.50032   0.16678   0.33646   0.00000  Uiso   1.00
C95    C     0.53567   0.18120   0.40716   0.00000  Uiso   1.00
C96    C     0.46433   0.15214   0.09284   0.00000  Uiso   1.00
C97    C     0.50009   0.16712   0.38405   0.00000  Uiso   1.00
C98    C     0.49991   0.16621   0.11596   0.00000  Uiso   1.00
C99    C     0.46415   0.15351   0.40588   0.00000  Uiso   1.00
C100   C     0.53586   0.17982   0.09412   0.00000  Uiso   1.00
C101   C     0.46273   0.15480   0.45262   0.00000  Uiso   1.00
C102   C     0.53727   0.17853   0.04738   0.00000  Uiso   1.00
C103   C     0.49968   0.16713   0.47661   0.00000  Uiso   1.00
C104   C     0.50032   0.16620   0.02339   0.00000  Uiso   1.00
C105   C     0.53609   0.18042   0.45365   0.00000  Uiso   1.00
C106   C     0.46391   0.15291   0.04635   0.00000  Uiso   1.00
C107   C     0.42595   0.14313   0.47599   0.00000  Uiso   1.00
C108   C     0.57405   0.19019   0.02401   0.00000  Uiso   1.00
H109   H     0.56320   0.19149   0.38880   0.00000  Uiso   1.00
H110   H     0.43680   0.14184   0.11120   0.00000  Uiso   1.00
H111   H     0.43764   0.14210   0.38591   0.00000  Uiso   1.00
H112   H     0.56236   0.19123   0.11409   0.00000  Uiso   1.00
H113   H     0.39955   0.13204   0.04105   0.00000  Uiso   1.00
H114   H     0.60046   0.20128   0.45895   0.00000  Uiso   1.00
H115   H     0.54857   0.04219   0.29882   0.00000  Uiso   1.00
H116   H     0.45143   0.29114   0.20118   0.00000  Uiso   1.00
H117   H     0.45145   0.04205   0.20116   0.00000  Uiso   1.00
H118   H     0.54855   0.29128   0.29884   0.00000  Uiso   1.00
N119   N     0.50000   0.28573   0.25000   0.00000  Uiso   1.00
N120   N     0.50000   0.04760   0.25000   0.00000  Uiso   1.00
O121   O     0.43892   0.20487   0.25000   0.00000  Uiso   1.00
O122   O     0.56108   0.12846   0.25000   0.00000  Uiso   1.00
O123   O     0.56108   0.20487   0.25001   0.00000  Uiso   1.00
O124   O     0.43892   0.12846   0.25000   0.00000  Uiso   1.00
O125   O     0.49999   0.20489   0.18393   0.00000  Uiso   1.00
O126   O     0.50001   0.12844   0.31608   0.00000  Uiso   1.00
O127   O     0.50001   0.20489   0.31608   0.00000  Uiso   1.00
O128   O     0.49999   0.12844   0.18393   0.00000  Uiso   1.00
Zn129  Zn    0.50000   0.21771   0.25000   0.00000  Uiso   1.00
Zn130  Zn    0.50000   0.11563   0.25000   0.00000  Uiso   1.00
C131   C     0.38529   0.13424   0.45292   0.00000  Uiso   1.00
C132   C     0.36700   0.16714   0.42482   0.00000  Uiso   1.00
C133   C     0.66214   0.15864   0.40307   0.00000  Uiso   1.00
C134   C     0.64142   0.11775   0.40998   0.00000  Uiso   1.00
C135   C     0.65889   0.08528   0.43863   0.00000  Uiso   1.00
C136   C     0.36398   0.09342   0.46008   0.00000  Uiso   1.00
H137   H     0.38244   0.19923   0.41961   0.00000  Uiso   1.00
H138   H     0.64846   0.18388   0.38109   0.00000  Uiso   1.00
H139   H     0.61175   0.11133   0.39330   0.00000  Uiso   1.00
H140   H     0.64270   0.05370   0.44413   0.00000  Uiso   1.00
H141   H     0.37727   0.06783   0.48197   0.00000  Uiso   1.00
C142   C     0.61471   0.19906   0.04708   0.00000  Uiso   1.00
C143   C     0.63604   0.23987   0.03992   0.00000  Uiso   1.00
C144   C     0.34115   0.24799   0.06135   0.00000  Uiso   1.00
C145   C     0.35860   0.21550   0.09000   0.00000  Uiso   1.00
C146   C     0.33786   0.17463   0.09692   0.00000  Uiso   1.00
C147   C     0.63299   0.16616   0.07518   0.00000  Uiso   1.00
H148   H     0.62277   0.26546   0.01803   0.00000  Uiso   1.00
H149   H     0.35735   0.27955   0.05585   0.00000  Uiso   1.00
H150   H     0.38828   0.22191   0.10668   0.00000  Uiso   1.00
H151   H     0.35153   0.14938   0.11891   0.00000  Uiso   1.00
H152   H     0.61754   0.13408   0.08040   0.00000  Uiso   1.00
H153   H     0.37188   0.10259   0.28509   0.00000  Uiso   1.00
H154   H     0.62812   0.23074   0.21491   0.00000  Uiso   1.00
H155   H     0.62923   0.10246   0.28497   0.00000  Uiso   1.00
H156   H     0.37077   0.23087   0.21503   0.00000  Uiso   1.00
C157   C     0.75334   0.16672   0.25001   0.00000  Uiso   1.00
C158   C     0.91333   0.16662   0.24999   0.00000  Uiso   1.00
C159   C     0.76072   0.14139   0.02282   0.00000  Uiso   1.00
C160   C     0.90595   0.19193   0.47718   0.00000  Uiso   1.00
C161   C     0.68840   0.13042   0.26952   0.00000  Uiso   1.00
C162   C     0.97826   0.20291   0.23048   0.00000  Uiso   1.00
C163   C     0.97888   0.13033   0.26944   0.00000  Uiso   1.00
C164   C     0.68779   0.20301   0.23056   0.00000  Uiso   1.00
C165   C     0.95746   0.16658   0.24992   0.00000  Uiso   1.00
C166   C     0.70921   0.16676   0.25008   0.00000  Uiso   1.00
C167   C     0.86032   0.02401   0.27713   0.00000  Uiso   1.00
C168   C     0.80635   0.30932   0.22287   0.00000  Uiso   1.00
C169   C     0.80635   0.02393   0.22287   0.00000  Uiso   1.00
C170   C     0.86031   0.30940   0.27713   0.00000  Uiso   1.00
C171   C     0.83301   0.16656   0.16354   0.00000  Uiso   1.00
C172   C     0.83365   0.16678   0.33646   0.00000  Uiso   1.00
C173   C     0.86900   0.18120   0.40716   0.00000  Uiso   1.00
C174   C     0.79766   0.15214   0.09284   0.00000  Uiso   1.00
C175   C     0.83343   0.16712   0.38405   0.00000  Uiso   1.00
C176   C     0.83324   0.16621   0.11596   0.00000  Uiso   1.00
C177   C     0.79748   0.15351   0.40588   0.00000  Uiso   1.00
C178   C     0.86919   0.17982   0.09412   0.00000  Uiso   1.00
C179   C     0.79606   0.15480   0.45262   0.00000  Uiso   1.00
C180   C     0.87061   0.17853   0.04738   0.00000  Uiso   1.00
C181   C     0.83302   0.16713   0.47661   0.00000  Uiso   1.00
C182   C     0.83365   0.16620   0.02339   0.00000  Uiso   1.00
C183   C     0.86942   0.18042   0.45365   0.00000  Uiso   1.00
C184   C     0.79725   0.15291   0.04635   0.00000  Uiso   1.00
C185   C     0.75929   0.14313   0.47599   0.00000  Uiso   1.00
C186   C     0.90738   0.19019   0.02401   0.00000  Uiso   1.00
H187   H     0.89654   0.19149   0.38880   0.00000  Uiso   1.00
H188   H     0.77013   0.14184   0.11120   0.00000  Uiso   1.00
H189   H     0.77098   0.14210   0.38591   0.00000  Uiso   1.00
H190   H     0.89569   0.19123   0.11409   0.00000  Uiso   1.00
H191   H     0.73288   0.13204   0.04105   0.00000  Uiso   1.00
H192   H     0.93379   0.20128   0.45895   0.00000  Uiso   1.00
H193   H     0.88190   0.04219   0.29882   0.00000  Uiso   1.00
H194   H     0.78477   0.29114   0.20118   0.00000  Uiso   1.00
H195   H     0.78478   0.04205   0.20116   0.00000  Uiso   1.00
H196   H     0.88189   0.29128   0.29884   0.00000  Uiso   1.00
N197   N     0.83333   0.28573   0.25000   0.00000  Uiso   1.00
N198   N     0.83333   0.04760   0.25000   0.00000  Uiso   1.00
O199   O     0.77226   0.20487   0.25000   0.00000  Uiso   1.00
O200   O     0.89441   0.12846   0.25000   0.00000  Uiso   1.00
O201   O     0.89441   0.20487   0.25001   0.00000  Uiso   1.00
O202   O     0.77226   0.12846   0.25000   0.00000  Uiso   1.00
O203   O     0.83333   0.20489   0.18393   0.00000  Uiso   1.00
O204   O     0.83334   0.12844   0.31608   0.00000  Uiso   1.00
O205   O     0.83334   0.20489   0.31608   0.00000  Uiso   1.00
O206   O     0.83333   0.12844   0.18393   0.00000  Uiso   1.00
Zn207  Zn    0.83333   0.21771   0.25000   0.00000  Uiso   1.00
Zn208  Zn    0.83333   0.11563   0.25000   0.00000  Uiso   1.00
C209   C     0.71863   0.13424   0.45292   0.00000  Uiso   1.00
C210   C     0.70033   0.16714   0.42482   0.00000  Uiso   1.00
C211   C     0.99547   0.15864   0.40307   0.00000  Uiso   1.00
C212   C     0.97475   0.11775   0.40998   0.00000  Uiso   1.00
C213   C     0.99222   0.08528   0.43863   0.00000  Uiso   1.00
C214   C     0.69732   0.09342   0.46008   0.00000  Uiso   1.00
H215   H     0.71577   0.19923   0.41961   0.00000  Uiso   1.00
H216   H     0.98179   0.18388   0.38109   0.00000  Uiso   1.00
H217   H     0.94509   0.11133   0.39330   0.00000  Uiso   1.00
H218   H     0.97604   0.05370   0.44413   0.00000  Uiso   1.00
H219   H     0.71060   0.06783   0.48197   0.00000  Uiso   1.00
C220   C     0.94805   0.19906   0.04708   0.00000  Uiso   1.00
C221   C     0.96938   0.23987   0.03992   0.00000  Uiso   1.00
C222   C     0.67448   0.24799   0.06135   0.00000  Uiso   1.00
C223   C     0.69194   0.21550   0.09000   0.00000  Uiso   1.00
C224   C     0.67119   0.17463   0.09692   0.00000  Uiso   1.00
C225   C     0.96633   0.16616   0.07518   0.00000  Uiso   1.00
H226   H     0.95610   0.26546   0.01803   0.00000  Uiso   1.00
H227   H     0.69068   0.27955   0.05585   0.00000  Uiso   1.00
H228   H     0.72161   0.22191   0.10668   0.00000  Uiso   1.00
H229   H     0.68486   0.14938   0.11891   0.00000  Uiso   1.00
H230   H     0.95087   0.13408   0.08040   0.00000  Uiso   1.00
H231   H     0.70521   0.10259   0.28509   0.00000  Uiso   1.00
H232   H     0.96145   0.23074   0.21491   0.00000  Uiso   1.00
H233   H     0.96256   0.10246   0.28497   0.00000  Uiso   1.00
H234   H     0.70410   0.23087   0.21503   0.00000  Uiso   1.00
C235   C     0.08667   0.50005   0.25001   0.00000  Uiso   1.00
C236   C     0.24666   0.49995   0.24999   0.00000  Uiso   1.00
C237   C     0.09406   0.47473   0.02282   0.00000  Uiso   1.00
C238   C     0.23928   0.52526   0.47718   0.00000  Uiso   1.00
C239   C     0.02174   0.46376   0.26952   0.00000  Uiso   1.00
C240   C     0.31160   0.53624   0.23048   0.00000  Uiso   1.00
C241   C     0.31221   0.46366   0.26944   0.00000  Uiso   1.00
C242   C     0.02112   0.53634   0.23056   0.00000  Uiso   1.00
C243   C     0.29079   0.49991   0.24992   0.00000  Uiso   1.00
C244   C     0.04255   0.50009   0.25008   0.00000  Uiso   1.00
C245   C     0.19365   0.35734   0.27713   0.00000  Uiso   1.00
C246   C     0.13968   0.64266   0.22287   0.00000  Uiso   1.00
C247   C     0.13969   0.35727   0.22287   0.00000  Uiso   1.00
C248   C     0.19365   0.64273   0.27713   0.00000  Uiso   1.00
C249   C     0.16635   0.49989   0.16354   0.00000  Uiso   1.00
C250   C     0.16699   0.50011   0.33646   0.00000  Uiso   1.00
C251   C     0.20234   0.51453   0.40716   0.00000  Uiso   1.00
C252   C     0.13100   0.48547   0.09284   0.00000  Uiso   1.00
C253   C     0.16676   0.50045   0.38405   0.00000  Uiso   1.00
C254   C     0.16657   0.49955   0.11596   0.00000  Uiso   1.00
C255   C     0.13081   0.48684   0.40588   0.00000  Uiso   1.00
C256   C     0.20252   0.51315   0.09412   0.00000  Uiso   1.00
C257   C     0.12940   0.48813   0.45262   0.00000  Uiso   1.00
C258   C     0.20394   0.51187   0.04738   0.00000  Uiso   1.00
C259   C     0.16635   0.50046   0.47661   0.00000  Uiso   1.00
C260   C     0.16698   0.49954   0.02339   0.00000  Uiso   1.00
C261   C     0.20276   0.51375   0.45365   0.00000  Uiso   1.00
C262   C     0.13058   0.48624   0.04635   0.00000  Uiso   1.00
C263   C     0.09262   0.47647   0.47599   0.00000  Uiso   1.00
C264   C     0.24072   0.52352   0.02401   0.00000  Uiso   1.00
H265   H     0.22987   0.52482   0.38880   0.00000  Uiso   1.00
H266   H     0.10346   0.47518   0.11120   0.00000  Uiso   1.00
H267   H     0.10431   0.47543   0.38591   0.00000  Uiso   1.00
H268   H     0.22902   0.52456   0.11409   0.00000  Uiso   1.00
H269   H     0.06622   0.46537   0.04105   0.00000  Uiso   1.00
H270   H     0.26712   0.53461   0.45895   0.00000  Uiso   1.00
H271   H     0.21523   0.37552   0.29882   0.00000  Uiso   1.00
H272   H     0.11810   0.62448   0.20118   0.00000  Uiso   1.00
H273   H     0.11811   0.37538   0.20116   0.00000  Uiso   1.00
H274   H     0.21522   0.62462   0.29884   0.00000  Uiso   1.00
N275   N     0.16667   0.61907   0.25000   0.00000  Uiso   1.00
N276   N     0.16667   0.38093   0.25000   0.00000  Uiso   1.00
O277   O     0.10559   0.53821   0.25000   0.00000  Uiso   1.00
O278   O     0.22774   0.46179   0.25000   0.00000  Uiso   1.00
O279   O     0.22774   0.53821   0.25001   0.00000  Uiso   1.00
O280   O     0.10559   0.46179   0.25000   0.00000  Uiso   1.00
O281   O     0.16666   0.53823   0.18393   0.00000  Uiso   1.00
O282   O     0.16667   0.46177   0.31608   0.00000  Uiso   1.00
O283   O     0.16667   0.53823   0.31608   0.00000  Uiso   1.00
O284   O     0.16666   0.46177   0.18393   0.00000  Uiso   1.00
Zn285  Zn    0.16667   0.55104   0.25000   0.00000  Uiso   1.00
Zn286  Zn    0.16667   0.44896   0.25000   0.00000  Uiso   1.00
C287   C     0.05196   0.46757   0.45292   0.00000  Uiso   1.00
C288   C     0.03367   0.50047   0.42482   0.00000  Uiso   1.00
C289   C     0.32881   0.49198   0.40307   0.00000  Uiso   1.00
C290   C     0.30809   0.45109   0.40998   0.00000  Uiso   1.00
C291   C     0.32556   0.41861   0.43863   0.00000  Uiso   1.00
C292   C     0.03065   0.42676   0.46008   0.00000  Uiso   1.00
H293   H     0.04911   0.53256   0.41961   0.00000  Uiso   1.00
H294   H     0.31513   0.51722   0.38109   0.00000  Uiso   1.00
H295   H     0.27842   0.44466   0.39330   0.00000  Uiso   1.00
H296   H     0.30937   0.38704   0.44413   0.00000  Uiso   1.00
H297   H     0.04393   0.40117   0.48197   0.00000  Uiso   1.00
C298   C     0.28138   0.53240   0.04708   0.00000  Uiso   1.00
C299   C     0.30271   0.57320   0.03992   0.00000  Uiso   1.00
C300   C     0.00781   0.58132   0.06135   0.00000  Uiso   1.00
C301   C     0.02527   0.54884   0.09000   0.00000  Uiso   1.00
C302   C     0.00453   0.50796   0.09692   0.00000  Uiso   1.00
C303   C     0.29966   0.49949   0.07518   0.00000  Uiso   1.00
H304   H     0.28944   0.59880   0.01803   0.00000  Uiso   1.00
H305   H     0.02402   0.61288   0.05585   0.00000  Uiso   1.00
H306   H     0.05495   0.55524   0.10668   0.00000  Uiso   1.00
H307   H     0.01819   0.48272   0.11891   0.00000  Uiso   1.00
H308   H     0.28420   0.46741   0.08040   0.00000  Uiso   1.00
H309   H     0.03855   0.43592   0.28509   0.00000  Uiso   1.00
H310   H     0.29479   0.56407   0.21491   0.00000  Uiso   1.00
H311   H     0.29590   0.43580   0.28497   0.00000  Uiso   1.00
H312   H     0.03744   0.56420   0.21503   0.00000  Uiso   1.00
C313   C     0.42001   0.50005   0.25001   0.00000  Uiso   1.00
C314   C     0.57999   0.49995   0.24999   0.00000  Uiso   1.00
C315   C     0.42739   0.47473   0.02282   0.00000  Uiso   1.00
C316   C     0.57261   0.52526   0.47718   0.00000  Uiso   1.00
C317   C     0.35507   0.46376   0.26952   0.00000  Uiso   1.00
C318   C     0.64493   0.53624   0.23048   0.00000  Uiso   1.00
C319   C     0.64555   0.46366   0.26944   0.00000  Uiso   1.00
C320   C     0.35445   0.53634   0.23056   0.00000  Uiso   1.00
C321   C     0.62412   0.49991   0.24992   0.00000  Uiso   1.00
C322   C     0.37588   0.50009   0.25008   0.00000  Uiso   1.00
C323   C     0.52698   0.35734   0.27713   0.00000  Uiso   1.00
C324   C     0.47302   0.64266   0.22287   0.00000  Uiso   1.00
C325   C     0.47302   0.35727   0.22287   0.00000  Uiso   1.00
C326   C     0.52698   0.64273   0.27713   0.00000  Uiso   1.00
C327   C     0.49968   0.49989   0.16354   0.00000  Uiso   1.00
C328   C     0.50032   0.50011   0.33646   0.00000  Uiso   1.00
C329   C     0.53567   0.51453   0.40716   0.00000  Uiso   1.00
C330   C     0.46433   0.48547   0.09284   0.00000  Uiso   1.00
C331   C     0.50009   0.50045   0.38405   0.00000  Uiso   1.00
C332   C     0.49991   0.49955   0.11596   0.00000  Uiso   1.00
C333   C     0.46415   0.48684   0.40588   0.00000  Uiso   1.00
C334   C     0.53586   0.51315   0.09412   0.00000  Uiso   1.00
C335   C     0.46273   0.48813   0.45262   0.00000  Uiso   1.00
C336   C     0.53727   0.51187   0.04738   0.00000  Uiso   1.00
C337   C     0.49968   0.50046   0.47661   0.00000  Uiso   1.00
C338   C     0.50032   0.49954   0.02339   0.00000  Uiso   1.00
C339   C     0.53609   0.51375   0.45365   0.00000  Uiso   1.00
C340   C     0.46391   0.48624   0.04635   0.00000  Uiso   1.00
C341   C     0.42595   0.47647   0.47599   0.00000  Uiso   1.00
C342   C     0.57405   0.52352   0.02401   0.00000  Uiso   1.00
H343   H     0.56320   0.52482   0.38880   0.00000  Uiso   1.00
H344   H     0.43680   0.47518   0.11120   0.00000  Uiso   1.00
H345   H     0.43764   0.47543   0.38591   0.00000  Uiso   1.00
H346   H     0.56236   0.52456   0.11409   0.00000  Uiso   1.00
H347   H     0.39955   0.46537   0.04105   0.00000  Uiso   1.00
H348   H     0.60046   0.53461   0.45895   0.00000  Uiso   1.00
H349   H     0.54857   0.37552   0.29882   0.00000  Uiso   1.00
H350   H     0.45143   0.62448   0.20118   0.00000  Uiso   1.00
H351   H     0.45145   0.37538   0.20116   0.00000  Uiso   1.00
H352   H     0.54855   0.62462   0.29884   0.00000  Uiso   1.00
N353   N     0.50000   0.61907   0.25000   0.00000  Uiso   1.00
N354   N     0.50000   0.38093   0.25000   0.00000  Uiso   1.00
O355   O     0.43892   0.53821   0.25000   0.00000  Uiso   1.00
O356   O     0.56108   0.46179   0.25000   0.00000  Uiso   1.00
O357   O     0.56108   0.53821   0.25001   0.00000  Uiso   1.00
O358   O     0.43892   0.46179   0.25000   0.00000  Uiso   1.00
O359   O     0.49999   0.53823   0.18393   0.00000  Uiso   1.00
O360   O     0.50001   0.46177   0.31608   0.00000  Uiso   1.00
O361   O     0.50001   0.53823   0.31608   0.00000  Uiso   1.00
O362   O     0.49999   0.46177   0.18393   0.00000  Uiso   1.00
Zn363  Zn    0.50000   0.55104   0.25000   0.00000  Uiso   1.00
Zn364  Zn    0.50000   0.44896   0.25000   0.00000  Uiso   1.00
C365   C     0.38529   0.46757   0.45292   0.00000  Uiso   1.00
C366   C     0.36700   0.50047   0.42482   0.00000  Uiso   1.00
C367   C     0.66214   0.49198   0.40307   0.00000  Uiso   1.00
C368   C     0.64142   0.45109   0.40998   0.00000  Uiso   1.00
C369   C     0.65889   0.41861   0.43863   0.00000  Uiso   1.00
C370   C     0.36398   0.42676   0.46008   0.00000  Uiso   1.00
H371   H     0.38244   0.53256   0.41961   0.00000  Uiso   1.00
H372   H     0.64846   0.51722   0.38109   0.00000  Uiso   1.00
H373   H     0.61175   0.44466   0.39330   0.00000  Uiso   1.00
H374   H     0.64270   0.38704   0.44413   0.00000  Uiso   1.00
H375   H     0.37727   0.40117   0.48197   0.00000  Uiso   1.00
C376   C     0.61471   0.53240   0.04708   0.00000  Uiso   1.00
C377   C     0.63604   0.57320   0.03992   0.00000  Uiso   1.00
C378   C     0.34115   0.58132   0.06135   0.00000  Uiso   1.00
C379   C     0.35860   0.54884   0.09000   0.00000  Uiso   1.00
C380   C     0.33786   0.50796   0.09692   0.00000  Uiso   1.00
C381   C     0.63299   0.49949   0.07518   0.00000  Uiso   1.00
H382   H     0.62277   0.59880   0.01803   0.00000  Uiso   1.00
H383   H     0.35735   0.61288   0.05585   0.00000  Uiso   1.00
H384   H     0.38828   0.55524   0.10668   0.00000  Uiso   1.00
H385   H     0.35153   0.48272   0.11891   0.00000  Uiso   1.00
H386   H     0.61754   0.46741   0.08040   0.00000  Uiso   1.00
H387   H     0.37188   0.43592   0.28509   0.00000  Uiso   1.00
H388   H     0.62812   0.56407   0.21491   0.00000  Uiso   1.00
H389   H     0.62923   0.43580   0.28497   0.00000  Uiso   1.00
H390   H     0.37077   0.56420   0.21503   0.00000  Uiso   1.00
C391   C     0.75334   0.50005   0.25001   0.00000  Uiso   1.00
C392   C     0.91333   0.49995   0.24999   0.00000  Uiso   1.00
C393   C     0.76072   0.47473   0.02282   0.00000  Uiso   1.00
C394   C     0.90595   0.52526   0.47718   0.00000  Uiso   1.00
C395   C     0.68840   0.46376   0.26952   0.00000  Uiso   1.00
C396   C     0.97826   0.53624   0.23048   0.00000  Uiso   1.00
C397   C     0.97888   0.46366   0.26944   0.00000  Uiso   1.00
C398   C     0.68779   0.53634   0.23056   0.00000  Uiso   1.00
C399   C     0.95746   0.49991   0.24992   0.00000  Uiso   1.00
C400   C     0.70921   0.50009   0.25008   0.00000  Uiso   1.00
C401   C     0.86032   0.35734   0.27713   0.00000  Uiso   1.00
C402   C     0.80635   0.64266   0.22287   0.00000  Uiso   1.00
C403   C     0.80635   0.35727   0.22287   0.00000  Uiso   1.00
C404   C     0.86031   0.64273   0.27713   0.00000  Uiso   1.00
C405   C     0.83301   0.49989   0.16354   0.00000  Uiso   1.00
C406   C     0.83365   0.50011   0.33646   0.00000  Uiso   1.00
C407   C     0.86900   0.51453   0.40716   0.00000  Uiso   1.00
C408   C     0.79766   0.48547   0.09284   0.00000  Uiso   1.00
C409   C     0.83343   0.50045   0.38405   0.00000  Uiso   1.00
C410   C     0.83324   0.49955   0.11596   0.00000  Uiso   1.00
C411   C     0.79748   0.48684   0.40588   0.00000  Uiso   1.00
C412   C     0.86919   0.51315   0.09412   0.00000  Uiso   1.00
C413   C     0.79606   0.48813   0.45262   0.00000  Uiso   1.00
C414   C     0.87061   0.51187   0.04738   0.00000  Uiso   1.00
C415   C     0.83302   0.50046   0.47661   0.00000  Uiso   1.00
C416   C     0.83365   0.49954   0.02339   0.00000  Uiso   1.00
C417   C     0.86942   0.51375   0.45365   0.00000  Uiso   1.00
C418   C     0.79725   0.48624   0.04635   0.00000  Uiso   1.00
C419   C     0.75929   0.47647   0.47599   0.00000  Uiso   1.00
C420   C     0.90738   0.52352   0.02401   0.00000  Uiso   1.00
H421   H     0.89654   0.52482   0.38880   0.00000  Uiso   1.00
H422   H     0.77013   0.47518   0.11120   0.00000  Uiso   1.00
H423   H     0.77098   0.47543   0.38591   0.00000  Uiso   1.00
H424   H     0.89569   0.52456   0.11409   0.00000  Uiso   1.00
H425   H     0.73288   0.46537   0.04105   0.00000  Uiso   1.00
H426   H     0.93379   0.53461   0.45895   0.00000  Uiso   1.00
H427   H     0.88190   0.37552   0.29882   0.00000  Uiso   1.00
H428   H     0.78477   0.62448   0.20118   0.00000  Uiso   1.00
H429   H     0.78478   0.37538   0.20116   0.00000  Uiso   1.00
H430   H     0.88189   0.62462   0.29884   0.00000  Uiso   1.00
N431   N     0.83333   0.61907   0.25000   0.00000  Uiso   1.00
N432   N     0.83333   0.38093   0.25000   0.00000  Uiso   1.00
O433   O     0.77226   0.53821   0.25000   0.00000  Uiso   1.00
O434   O     0.89441   0.46179   0.25000   0.00000  Uiso   1.00
O435   O     0.89441   0.53821   0.25001   0.00000  Uiso   1.00
O436   O     0.77226   0.46179   0.25000   0.00000  Uiso   1.00
O437   O     0.83333   0.53823   0.18393   0.00000  Uiso   1.00
O438   O     0.83334   0.46177   0.31608   0.00000  Uiso   1.00
O439   O     0.83334   0.53823   0.31608   0.00000  Uiso   1.00
O440   O     0.83333   0.46177   0.18393   0.00000  Uiso   1.00
Zn441  Zn    0.83333   0.55104   0.25000   0.00000  Uiso   1.00
Zn442  Zn    0.83333   0.44896   0.25000   0.00000  Uiso   1.00
C443   C     0.71863   0.46757   0.45292   0.00000  Uiso   1.00
C444   C     0.70033   0.50047   0.42482   0.00000  Uiso   1.00
C445   C     0.99547   0.49198   0.40307   0.00000  Uiso   1.00
C446   C     0.97475   0.45109   0.40998   0.00000  Uiso   1.00
C447   C     0.99222   0.41861   0.43863   0.00000  Uiso   1.00
C448   C     0.69732   0.42676   0.46008   0.00000  Uiso   1.00
H449   H     0.71577   0.53256   0.41961   0.00000  Uiso   1.00
H450   H     0.98179   0.51722   0.38109   0.00000  Uiso   1.00
H451   H     0.94509   0.44466   0.39330   0.00000  Uiso   1.00
H452   H     0.97604   0.38704   0.44413   0.00000  Uiso   1.00
H453   H     0.71060   0.40117   0.48197   0.00000  Uiso   1.00
C454   C     0.94805   0.53240   0.04708   0.00000  Uiso   1.00
C455   C     0.96938   0.57320   0.03992   0.00000  Uiso   1.00
C456   C     0.67448   0.58132   0.06135   0.00000  Uiso   1.00
C457   C     0.69194   0.54884   0.09000   0.00000  Uiso   1.00
C458   C     0.67119   0.50796   0.09692   0.00000  Uiso   1.00
C459   C     0.96633   0.49949   0.07518   0.00000  Uiso   1.00
H460   H     0.95610   0.59880   0.01803   0.00000  Uiso   1.00
H461   H     0.69068   0.61288   0.05585   0.00000  Uiso   1.00
H462   H     0.72161   0.55524   0.10668   0.00000  Uiso   1.00
H463   H     0.68486   0.48272   0.11891   0.00000  Uiso   1.00
H464   H     0.95087   0.46741   0.08040   0.00000  Uiso   1.00
H465   H     0.70521   0.43592   0.28509   0.00000  Uiso   1.00
H466   H     0.96145   0.56407   0.21491   0.00000  Uiso   1.00
H467   H     0.96256   0.43580   0.28497   0.00000  Uiso   1.00
H468   H     0.70410   0.56420   0.21503   0.00000  Uiso   1.00
C469   C     0.08667   0.83338   0.25001   0.00000  Uiso   1.00
C470   C     0.24666   0.83328   0.24999   0.00000  Uiso   1.00
C471   C     0.09406   0.80806   0.02282   0.00000  Uiso   1.00
C472   C     0.23928   0.85860   0.47718   0.00000  Uiso   1.00
C473   C     0.02174   0.79709   0.26952   0.00000  Uiso   1.00
C474   C     0.31160   0.86958   0.23048   0.00000  Uiso   1.00
C475   C     0.31221   0.79699   0.26944   0.00000  Uiso   1.00
C476   C     0.02112   0.86967   0.23056   0.00000  Uiso   1.00
C477   C     0.29079   0.83324   0.24992   0.00000  Uiso   1.00
C478   C     0.04255   0.83342   0.25008   0.00000  Uiso   1.00
C479   C     0.19365   0.69068   0.27713   0.00000  Uiso   1.00
C480   C     0.13968   0.97599   0.22287   0.00000  Uiso   1.00
C481   C     0.13969   0.69060   0.22287   0.00000  Uiso   1.00
C482   C     0.19365   0.97607   0.27713   0.00000  Uiso   1.00
C483   C     0.16635   0.83322   0.16354   0.00000  Uiso   1.00
C484   C     0.16699   0.83344   0.33646   0.00000  Uiso   1.00
C485   C     0.20234   0.84786   0.40716   0.00000  Uiso   1.00
C486   C     0.13100   0.81880   0.09284   0.00000  Uiso   1.00
C487   C     0.16676   0.83379   0.38405   0.00000  Uiso   1.00
C488   C     0.16657   0.83288   0.11596   0.00000  Uiso   1.00
C489   C     0.13081   0.82018   0.40588   0.00000  Uiso   1.00
C490   C     0.20252   0.84649   0.09412   0.00000  Uiso   1.00
C491   C     0.12940   0.82146   0.45262   0.00000  Uiso   1.00
C492   C     0.20394   0.84520   0.04738   0.00000  Uiso   1.00
C493   C     0.16635   0.83379   0.47661   0.00000  Uiso   1.00
C494   C     0.16698   0.83287   0.02339   0.00000  Uiso   1.00
C495   C     0.20276   0.84709   0.45365   0.00000  Uiso   1.00
C496   C     0.13058   0.81958   0.04635   0.00000  Uiso   1.00
C497   C     0.09262   0.80980   0.47599   0.00000  Uiso   1.00
C498   C     0.24072   0.85685   0.02401   0.00000  Uiso   1.00
H499   H     0.22987   0.85816   0.38880   0.00000  Uiso   1.00
H500   H     0.10346   0.80851   0.11120   0.00000  Uiso   1.00
H501   H     0.10431   0.80877   0.38591   0.00000  Uiso   1.00
H502   H     0.22902   0.85790   0.11409   0.00000  Uiso   1.00
H503   H     0.06622   0.79871   0.04105   0.00000  Uiso   1.00
H504   H     0.26712   0.86795   0.45895   0.00000  Uiso   1.00
H505   H     0.21523   0.70886   0.29882   0.00000  Uiso   1.00
H506   H     0.11810   0.95781   0.20118   0.00000  Uiso   1.00
H507   H     0.11811   0.70872   0.20116   0.00000  Uiso   1.00
H508   H     0.21522   0.95795   0.29884   0.00000  Uiso   1.00
N509   N     0.16667   0.95240   0.25000   0.00000  Uiso   1.00
N510   N     0.16667   0.71427   0.25000   0.00000  Uiso   1.00
O511   O     0.10559   0.87154   0.25000   0.00000  Uiso   1.00
O512   O     0.22774   0.79513   0.25000   0.00000  Uiso   1.00
O513   O     0.22774   0.87154   0.25001   0.00000  Uiso   1.00
O514   O     0.10559   0.79513   0.25000   0.00000  Uiso   1.00
O515   O     0.16666   0.87156   0.18393   0.00000  Uiso   1.00
O516   O     0.16667   0.79511   0.31608   0.00000  Uiso   1.00
O517   O     0.16667   0.87156   0.31608   0.00000  Uiso   1.00
O518   O     0.16666   0.79511   0.18393   0.00000  Uiso   1.00
Zn519  Zn    0.16667   0.88437   0.25000   0.00000  Uiso   1.00
Zn520  Zn    0.16667   0.78229   0.25000   0.00000  Uiso   1.00
C521   C     0.05196   0.80091   0.45292   0.00000  Uiso   1.00
C522   C     0.03367   0.83380   0.42482   0.00000  Uiso   1.00
C523   C     0.32881   0.82531   0.40307   0.00000  Uiso   1.00
C524   C     0.30809   0.78442   0.40998   0.00000  Uiso   1.00
C525   C     0.32556   0.75194   0.43863   0.00000  Uiso   1.00
C526   C     0.03065   0.76009   0.46008   0.00000  Uiso   1.00
H527   H     0.04911   0.86590   0.41961   0.00000  Uiso   1.00
H528   H     0.31513   0.85055   0.38109   0.00000  Uiso   1.00
H529   H     0.27842   0.77800   0.39330   0.00000  Uiso   1.00
H530   H     0.30937   0.72037   0.44413   0.00000  Uiso   1.00
H531   H     0.04393   0.73450   0.48197   0.00000  Uiso   1.00
C532   C     0.28138   0.86573   0.04708   0.00000  Uiso   1.00
C533   C     0.30271   0.90653   0.03992   0.00000  Uiso   1.00
C534   C     0.00781   0.91466   0.06135   0.00000  Uiso   1.00
C535   C     0.02527   0.88217   0.09000   0.00000  Uiso   1.00
C536   C     0.00453   0.84130   0.09692   0.00000  Uiso   1.00
C537   C     0.29966   0.83282   0.07518   0.00000  Uiso   1.00
H538   H     0.28944   0.93213   0.01803   0.00000  Uiso   1.00
H539   H     0.02402   0.94622   0.05585   0.00000  Uiso   1.00
H540   H     0.05495   0.88857   0.10668   0.00000  Uiso   1.00
H541   H     0.01819   0.81605   0.11891   0.00000  Uiso   1.00
H542   H     0.28420   0.80075   0.08040   0.00000  Uiso   1.00
H543   H     0.03855   0.76926   0.28509   0.00000  Uiso   1.00
H544   H     0.29479   0.89741   0.21491   0.00000  Uiso   1.00
H545   H     0.29590   0.76913   0.28497   0.00000  Uiso   1.00
H546   H     0.03744   0.89754   0.21503   0.00000  Uiso   1.00
C547   C     0.42001   0.83338   0.25001   0.00000  Uiso   1.00
C548   C     0.57999   0.83328   0.24999   0.00000  Uiso   1.00
C549   C     0.42739   0.80806   0.02282   0.00000  Uiso   1.00
C550   C     0.57261   0.85860   0.47718   0.00000  Uiso   1.00
C551   C     0.35507   0.79709   0.26952   0.00000  Uiso   1.00
C552   C     0.64493   0.86958   0.23048   0.00000  Uiso   1.00
C553   C     0.64555   0.79699   0.26944   0.00000  Uiso   1.00
C554   C     0.35445   0.86967   0.23056   0.00000  Uiso   1.00
C555   C     0.62412   0.83324   0.24992   0.00000  Uiso   1.00
C556   C     0.37588   0.83342   0.25008   0.00000  Uiso   1.00
C557   C     0.52698   0.69068   0.27713   0.00000  Uiso   1.00
C558   C     0.47302   0.97599   0.22287   0.00000  Uiso   1.00
C559   C     0.47302   0.69060   0.22287   0.00000  Uiso   1.00
C560   C     0.52698   0.97607   0.27713   0.00000  Uiso   1.00
C561   C     0.49968   0.83322   0.16354   0.00000  Uiso   1.00
C562   C     0.50032   0.83344   0.33646   0.00000  Uiso   1.00
C563   C     0.53567   0.84786   0.40716   0.00000  Uiso   1.00
C564   C     0.46433   0.81880   0.09284   0.00000  Uiso   1.00
C565   C     0.50009   0.83379   0.38405   0.00000  Uiso   1.00
C566   C     0.49991   0.83288   0.11596   0.00000  Uiso   1.00
C567   C     0.46415   0.82018   0.40588   0.00000  Uiso   1.00
C568   C     0.53586   0.84649   0.09412   0.00000  Uiso   1.00
C569   C     0.46273   0.82146   0.45262   0.00000  Uiso   1.00
C570   C     0.53727   0.84520   0.04738   0.00000  Uiso   1.00
C571   C     0.49968   0.83379   0.47661   0.00000  Uiso   1.00
C572   C     0.50032   0.83287   0.02339   0.00000  Uiso   1.00
C573   C     0.53609   0.84709   0.45365   0.00000  Uiso   1.00
C574   C     0.46391   0.81958   0.04635   0.00000  Uiso   1.00
C575   C     0.42595   0.80980   0.47599   0.00000  Uiso   1.00
C576   C     0.57405   0.85685   0.02401   0.00000  Uiso   1.00
H577   H     0.56320   0.85816   0.38880   0.00000  Uiso   1.00
H578   H     0.43680   0.80851   0.11120   0.00000  Uiso   1.00
H579   H     0.43764   0.80877   0.38591   0.00000  Uiso   1.00
H580   H     0.56236   0.85790   0.11409   0.00000  Uiso   1.00
H581   H     0.39955   0.79871   0.04105   0.00000  Uiso   1.00
H582   H     0.60046   0.86795   0.45895   0.00000  Uiso   1.00
H583   H     0.54857   0.70886   0.29882   0.00000  Uiso   1.00
H584   H     0.45143   0.95781   0.20118   0.00000  Uiso   1.00
H585   H     0.45145   0.70872   0.20116   0.00000  Uiso   1.00
H586   H     0.54855   0.95795   0.29884   0.00000  Uiso   1.00
N587   N     0.50000   0.95240   0.25000   0.00000  Uiso   1.00
N588   N     0.50000   0.71427   0.25000   0.00000  Uiso   1.00
O589   O     0.43892   0.87154   0.25000   0.00000  Uiso   1.00
O590   O     0.56108   0.79513   0.25000   0.00000  Uiso   1.00
O591   O     0.56108   0.87154   0.25001   0.00000  Uiso   1.00
O592   O     0.43892   0.79513   0.25000   0.00000  Uiso   1.00
O593   O     0.49999   0.87156   0.18393   0.00000  Uiso   1.00
O594   O     0.50001   0.79511   0.31608   0.00000  Uiso   1.00
O595   O     0.50001   0.87156   0.31608   0.00000  Uiso   1.00
O596   O     0.49999   0.79511   0.18393   0.00000  Uiso   1.00
Zn597  Zn    0.50000   0.88437   0.25000   0.00000  Uiso   1.00
Zn598  Zn    0.50000   0.78229   0.25000   0.00000  Uiso   1.00
C599   C     0.38529   0.80091   0.45292   0.00000  Uiso   1.00
C600   C     0.36700   0.83380   0.42482   0.00000  Uiso   1.00
C601   C     0.66214   0.82531   0.40307   0.00000  Uiso   1.00
C602   C     0.64142   0.78442   0.40998   0.00000  Uiso   1.00
C603   C     0.65889   0.75194   0.43863   0.00000  Uiso   1.00
C604   C     0.36398   0.76009   0.46008   0.00000  Uiso   1.00
H605   H     0.38244   0.86590   0.41961   0.00000  Uiso   1.00
H606   H     0.64846   0.85055   0.38109   0.00000  Uiso   1.00
H607   H     0.61175   0.77800   0.39330   0.00000  Uiso   1.00
H608   H     0.64270   0.72037   0.44413   0.00000  Uiso   1.00
H609   H     0.37727   0.73450   0.48197   0.00000  Uiso   1.00
C610   C     0.61471   0.86573   0.04708   0.00000  Uiso   1.00
C611   C     0.63604   0.90653   0.03992   0.00000  Uiso   1.00
C612   C     0.34115   0.91466   0.06135   0.00000  Uiso   1.00
C613   C     0.35860   0.88217   0.09000   0.00000  Uiso   1.00
C614   C     0.33786   0.84130   0.09692   0.00000  Uiso   1.00
C615   C     0.63299   0.83282   0.07518   0.00000  Uiso   1.00
H616   H     0.62277   0.93213   0.01803   0.00000  Uiso   1.00
H617   H     0.35735   0.94622   0.05585   0.00000  Uiso   1.00
H618   H     0.38828   0.88857   0.10668   0.00000  Uiso   1.00
H619   H     0.35153   0.81605   0.11891   0.00000  Uiso   1.00
H620   H     0.61754   0.80075   0.08040   0.00000  Uiso   1.00
H621   H     0.37188   0.76926   0.28509   0.00000  Uiso   1.00
H622   H     0.62812   0.89741   0.21491   0.00000  Uiso   1.00
H623   H     0.62923   0.76913   0.28497   0.00000  Uiso   1.00
H624   H     0.37077   0.89754   0.21503   0.00000  Uiso   1.00
C625   C     0.75334   0.83338   0.25001   0.00000  Uiso   1.00
C626   C     0.91333   0.83328   0.24999   0.00000  Uiso   1.00
C627   C     0.76072   0.80806   0.02282   0.00000  Uiso   1.00
C628   C     0.90595   0.85860   0.47718   0.00000  Uiso   1.00
C629   C     0.68840   0.79709   0.26952   0.00000  Uiso   1.00
C630   C     0.97826   0.86958   0.23048   0.00000  Uiso   1.00
C631   C     0.97888   0.79699   0.26944   0.00000  Uiso   1.00
C632   C     0.68779   0.86967   0.23056   0.00000  Uiso   1.00
C633   C     0.95746   0.83324   0.24992   0.00000  Uiso   1.00
C634   C     0.70921   0.83342   0.25008   0.00000  Uiso   1.00
C635   C     0.86032   0.69068   0.27713   0.00000  Uiso   1.00
C636   C     0.80635   0.97599   0.22287   0.00000  Uiso   1.00
C637   C     0.80635   0.69060   0.22287   0.00000  Uiso   1.00
C638   C     0.86031   0.97607   0.27713   0.00000  Uiso   1.00
C639   C     0.83301   0.83322   0.16354   0.00000  Uiso   1.00
C640   C     0.83365   0.83344   0.33646   0.00000  Uiso   1.00
C641   C     0.86900   0.84786   0.40716   0.00000  Uiso   1.00
C642   C     0.79766   0.81880   0.09284   0.00000  Uiso   1.00
C643   C     0.83343   0.83379   0.38405   0.00000  Uiso   1.00
C644   C     0.83324   0.83288   0.11596   0.00000  Uiso   1.00
C645   C     0.79748   0.82018   0.40588   0.00000  Uiso   1.00
C646   C     0.86919   0.84649   0.09412   0.00000  Uiso   1.00
C647   C     0.79606   0.82146   0.45262   0.00000  Uiso   1.00
C648   C     0.87061   0.84520   0.04738   0.00000  Uiso   1.00
C649   C     0.83302   0.83379   0.47661   0.00000  Uiso   1.00
C650   C     0.83365   0.83287   0.02339   0.00000  Uiso   1.00
C651   C     0.86942   0.84709   0.45365   0.00000  Uiso   1.00
C652   C     0.79725   0.81958   0.04635   0.00000  Uiso   1.00
C653   C     0.75929   0.80980   0.47599   0.00000  Uiso   1.00
C654   C     0.90738   0.85685   0.02401   0.00000  Uiso   1.00
H655   H     0.89654   0.85816   0.38880   0.00000  Uiso   1.00
H656   H     0.77013   0.80851   0.11120   0.00000  Uiso   1.00
H657   H     0.77098   0.80877   0.38591   0.00000  Uiso   1.00
H658   H     0.89569   0.85790   0.11409   0.00000  Uiso   1.00
H659   H     0.73288   0.79871   0.04105   0.00000  Uiso   1.00
H660   H     0.93379   0.86795   0.45895   0.00000  Uiso   1.00
H661   H     0.88190   0.70886   0.29882   0.00000  Uiso   1.00
H662   H     0.78477   0.95781   0.20118   0.00000  Uiso   1.00
H663   H     0.78478   0.70872   0.20116   0.00000  Uiso   1.00
H664   H     0.88189   0.95795   0.29884   0.00000  Uiso   1.00
N665   N     0.83333   0.95240   0.25000   0.00000  Uiso   1.00
N666   N     0.83333   0.71427   0.25000   0.00000  Uiso   1.00
O667   O     0.77226   0.87154   0.25000   0.00000  Uiso   1.00
O668   O     0.89441   0.79513   0.25000   0.00000  Uiso   1.00
O669   O     0.89441   0.87154   0.25001   0.00000  Uiso   1.00
O670   O     0.77226   0.79513   0.25000   0.00000  Uiso   1.00
O671   O     0.83333   0.87156   0.18393   0.00000  Uiso   1.00
O672   O     0.83334   0.79511   0.31608   0.00000  Uiso   1.00
O673   O     0.83334   0.87156   0.31608   0.00000  Uiso   1.00
O674   O     0.83333   0.79511   0.18393   0.00000  Uiso   1.00
Zn675  Zn    0.83333   0.88437   0.25000   0.00000  Uiso   1.00
Zn676  Zn    0.83333   0.78229   0.25000   0.00000  Uiso   1.00
C677   C     0.71863   0.80091   0.45292   0.00000  Uiso   1.00
C678   C     0.70033   0.83380   0.42482   0.00000  Uiso   1.00
C679   C     0.99547   0.82531   0.40307   0.00000  Uiso   1.00
C680   C     0.97475   0.78442   0.40998   0.00000  Uiso   1.00
C681   C     0.99222   0.75194   0.43863   0.00000  Uiso   1.00
C682   C     0.69732   0.76009   0.46008   0.00000  Uiso   1.00
H683   H     0.71577   0.86590   0.41961   0.00000  Uiso   1.00
H684   H     0.98179   0.85055   0.38109   0.00000  Uiso   1.00
H685   H     0.94509   0.77800   0.39330   0.00000  Uiso   1.00
H686   H     0.97604   0.72037   0.44413   0.00000  Uiso   1.00
H687   H     0.71060   0.73450   0.48197   0.00000  Uiso   1.00
C688   C     0.94805   0.86573   0.04708   0.00000  Uiso   1.00
C689   C     0.96938   0.90653   0.03992   0.00000  Uiso   1.00
C690   C     0.67448   0.91466   0.06135   0.00000  Uiso   1.00
C691   C     0.69194   0.88217   0.09000   0.00000  Uiso   1.00
C692   C     0.67119   0.84130   0.09692   0.00000  Uiso   1.00
C693   C     0.96633   0.83282   0.07518   0.00000  Uiso   1.00
H694   H     0.95610   0.93213   0.01803   0.00000  Uiso   1.00
H695   H     0.69068   0.94622   0.05585   0.00000  Uiso   1.00
H696   H     0.72161   0.88857   0.10668   0.00000  Uiso   1.00
H697   H     0.68486   0.81605   0.11891   0.00000  Uiso   1.00
H698   H     0.95087   0.80075   0.08040   0.00000  Uiso   1.00
H699   H     0.70521   0.76926   0.28509   0.00000  Uiso   1.00
H700   H     0.96145   0.89741   0.21491   0.00000  Uiso   1.00
H701   H     0.96256   0.76913   0.28497   0.00000  Uiso   1.00
H702   H     0.70410   0.89754   0.21503   0.00000  Uiso   1.00
C703   C     0.08667   0.16672   0.75001   0.00000  Uiso   1.00
C704   C     0.24666   0.16662   0.74999   0.00000  Uiso   1.00
C705   C     0.09406   0.14139   0.52282   0.00000  Uiso   1.00
C706   C     0.23928   0.19193   0.97718   0.00000  Uiso   1.00
C707   C     0.02174   0.13042   0.76952   0.00000  Uiso   1.00
C708   C     0.31160   0.20291   0.73048   0.00000  Uiso   1.00
C709   C     0.31221   0.13033   0.76944   0.00000  Uiso   1.00
C710   C     0.02112   0.20301   0.73056   0.00000  Uiso   1.00
C711   C     0.29079   0.16658   0.74992   0.00000  Uiso   1.00
C712   C     0.04255   0.16676   0.75008   0.00000  Uiso   1.00
C713   C     0.19365   0.02401   0.77713   0.00000  Uiso   1.00
C714   C     0.13968   0.30932   0.72287   0.00000  Uiso   1.00
C715   C     0.13969   0.02393   0.72287   0.00000  Uiso   1.00
C716   C     0.19365   0.30940   0.77713   0.00000  Uiso   1.00
C717   C     0.16635   0.16656   0.66354   0.00000  Uiso   1.00
C718   C     0.16699   0.16678   0.83646   0.00000  Uiso   1.00
C719   C     0.20234   0.18120   0.90716   0.00000  Uiso   1.00
C720   C     0.13100   0.15214   0.59284   0.00000  Uiso   1.00
C721   C     0.16676   0.16712   0.88405   0.00000  Uiso   1.00
C722   C     0.16657   0.16621   0.61596   0.00000  Uiso   1.00
C723   C     0.13081   0.15351   0.90588   0.00000  Uiso   1.00
C724   C     0.20252   0.17982   0.59412   0.00000  Uiso   1.00
C725   C     0.12940   0.15480   0.95262   0.00000  Uiso   1.00
C726   C     0.20394   0.17853   0.54738   0.00000  Uiso   1.00
C727   C     0.16635   0.16713   0.97661   0.00000  Uiso   1.00
C728   C     0.16698   0.16620   0.52339   0.00000  Uiso   1.00
C729   C     0.20276   0.18042   0.95365   0.00000  Uiso   1.00
C730   C     0.13058   0.15291   0.54635   0.00000  Uiso   1.00
C731   C     0.09262   0.14313   0.97599   0.00000  Uiso   1.00
C732   C     0.24072   0.19019   0.52401   0.00000  Uiso   1.00
H733   H     0.22987   0.19149   0.88880   0.00000  Uiso   1.00
H734   H     0.10346   0.14184   0.61120   0.00000  Uiso   1.00
H735   H     0.10431   0.14210   0.88591   0.00000  Uiso   1.00
H736   H     0.22902   0.19123   0.61409   0.00000  Uiso   1.00
H737   H     0.06622   0.13204   0.54105   0.00000  Uiso   1.00
H738   H     0.26712   0.20128   0.95895   0.00000  Uiso   1.00
H739   H     0.21523   0.04219   0.79882   0.00000  Uiso   1.00
H740   H     0.11810   0.29114   0.70118   0.00000  Uiso   1.00
H741   H     0.11811   0.04205   0.70116   0.00000  Uiso   1.00
H742   H     0.21522   0.29128   0.79884   0.00000  Uiso   1.00
N743   N     0.16667   0.28573   0.75000   0.00000  Uiso   1.00
N744   N     0.16667   0.04760   0.75000   0.00000  Uiso   1.00
O745   O     0.10559   0.20487   0.75000   0.00000  Uiso   1.00
O746   O     0.22774   0.12846   0.75000   0.00000  Uiso   1.00
O747   O     0.22774   0.20487   0.75001   0.00000  Uiso   1.00
O748   O     0.10559   0.12846   0.75000   0.00000  Uiso   1.00
O749   O     0.16666   0.20489   0.68393   0.00000  Uiso   1.00
O750   O     0.16667   0.12844   0.81608   0.00000  Uiso   1.00
O751   O     0.16667   0.20489   0.81608   0.00000  Uiso   1.00
O752   O     0.16666   0.12844   0.68393   0.00000  Uiso   1.00
Zn753  Zn    0.16667   0.21771   0.75000   0.00000  Uiso   1.00
Zn754  Zn    0.16667   0.11563   0.75000   0.00000  Uiso   1.00
C755   C     0.05196   0.13424   0.95292   0.00000  Uiso   1.00
C756   C     0.03367   0.16714   0.92482   0.00000  Uiso   1.00
C757   C     0.32881   0.15864   0.90307   0.00000  Uiso   1.00
C758   C     0.30809   0.11775   0.90998   0.00000  Uiso   1.00
C759   C     0.32556   0.08528   0.93863   0.00000  Uiso   1.00
C760   C     0.03065   0.09342   0.96008   0.00000  Uiso   1.00
H761   H     0.04911   0.19923   0.91961   0.00000  Uiso   1.00
H762   H     0.31513   0.18388   0.88109   0.00000  Uiso   1.00
H763   H     0.27842   0.11133   0.89330   0.00000  Uiso   1.00
H764   H     0.30937   0.05370   0.94413   0.00000  Uiso   1.00
H765   H     0.04393   0.06783   0.98197   0.00000  Uiso   1.00
C766   C     0.28138   0.19906   0.54708   0.00000  Uiso   1.00
C767   C     0.30271   0.23987   0.53992   0.00000  Uiso   1.00
C768   C     0.00781   0.24799   0.56135   0.00000  Uiso   1.00
C769   C     0.02527   0.21550   0.59000   0.00000  Uiso   1.00
C770   C     0.00453   0.17463   0.59692   0.00000  Uiso   1.00
C771   C     0.29966   0.16616   0.57518   0.00000  Uiso   1.00
H772   H     0.28944   0.26546   0.51803   0.00000  Uiso   1.00
H773   H     0.02402   0.27955   0.55585   0.00000  Uiso   1.00
H774   H     0.05495   0.22191   0.60668   0.00000  Uiso   1.00
H775   H     0.01819   0.14938   0.61891   0.00000  Uiso   1.00
H776   H     0.28420   0.13408   0.58040   0.00000  Uiso   1.00
H777   H     0.03855   0.10259   0.78509   0.00000  Uiso   1.00
H778   H     0.29479   0.23074   0.71491   0.00000  Uiso   1.00
H779   H     0.29590   0.10246   0.78497   0.00000  Uiso   1.00
H780   H     0.03744   0.23087   0.71503   0.00000  Uiso   1.00
C781   C     0.42001   0.16672   0.75001   0.00000  Uiso   1.00
C782   C     0.57999   0.16662   0.74999   0.00000  Uiso   1.00
C783   C     0.42739   0.14139   0.52282   0.00000  Uiso   1.00
C784   C     0.57261   0.19193   0.97718   0.00000  Uiso   1.00
C785   C     0.35507   0.13042   0.76952   0.00000  Uiso   1.00
C786   C     0.64493   0.20291   0.73048   0.00000  Uiso   1.00
C787   C     0.64555   0.13033   0.76944   0.00000  Uiso   1.00
C788   C     0.35445   0.20301   0.73056   0.00000  Uiso   1.00
C789   C     0.62412   0.16658   0.74992   0.00000  Uiso   1.00
C790   C     0.37588   0.16676   0.75008   0.00000  Uiso   1.00
C791   C     0.52698   0.02401   0.77713   0.00000  Uiso   1.00
C792   C     0.47302   0.30932   0.72287   0.00000  Uiso   1.00
C793   C     0.47302   0.02393   0.72287   0.00000  Uiso   1.00
C794   C     0.52698   0.30940   0.77713   0.00000  Uiso   1.00
C795   C     0.49968   0.16656   0.66354   0.00000  Uiso   1.00
C796   C     0.50032   0.16678   0.83646   0.00000  Uiso   1.00
C797   C     0.53567   0.18120   0.90716   0.00000  Uiso   1.00
C798   C     0.46433   0.15214   0.59284   0.00000  Uiso   1.00
C799   C     0.50009   0.16712   0.88405   0.00000  Uiso   1.00
C800   C     0.49991   0.16621   0.61596   0.00000  Uiso   1.00
C801   C     0.46415   0.15351   0.90588   0.00000  Uiso   1.00
C802   C     0.53586   0.17982   0.59412   0.00000  Uiso   1.00
C803   C     0.46273   0.15480   0.95262   0.00000  Uiso   1.00
C804   C     0.53727   0.17853   0.54738   0.00000  Uiso   1.00
C805   C     0.49968   0.16713   0.97661   0.00000  Uiso   1.00
C806   C     0.50032   0.16620   0.52339   0.00000  Uiso   1.00
C807   C     0.53609   0.18042   0.95365   0.00000  Uiso   1.00
C808   C     0.46391   0.15291   0.54635   0.00000  Uiso   1.00
C809   C     0.42595   0.14313   0.97599   0.00000  Uiso   1.00
C810   C     0.57405   0.19019   0.52401   0.00000  Uiso   1.00
H811   H     0.56320   0.19149   0.88880   0.00000  Uiso   1.00
H812   H     0.43680   0.14184   0.61120   0.00000  Uiso   1.00
H813   H     0.43764   0.14210   0.88591   0.00000  Uiso   1.00
H814   H     0.56236   0.19123   0.61409   0.00000  Uiso   1.00
H815   H     0.39955   0.13204   0.54105   0.00000  Uiso   1.00
H816   H     0.60046   0.20128   0.95895   0.00000  Uiso   1.00
H817   H     0.54857   0.04219   0.79882   0.00000  Uiso   1.00
H818   H     0.45143   0.29114   0.70118   0.00000  Uiso   1.00
H819   H     0.45145   0.04205   0.70116   0.00000  Uiso   1.00
H820   H     0.54855   0.29128   0.79884   0.00000  Uiso   1.00
N821   N     0.50000   0.28573   0.75000   0.00000  Uiso   1.00
N822   N     0.50000   0.04760   0.75000   0.00000  Uiso   1.00
O823   O     0.43892   0.20487   0.75000   0.00000  Uiso   1.00
O824   O     0.56108   0.12846   0.75000   0.00000  Uiso   1.00
O825   O     0.56108   0.20487   0.75001   0.00000  Uiso   1.00
O826   O     0.43892   0.12846   0.75000   0.00000  Uiso   1.00
O827   O     0.49999   0.20489   0.68393   0.00000  Uiso   1.00
O828   O     0.50001   0.12844   0.81608   0.00000  Uiso   1.00
O829   O     0.50001   0.20489   0.81608   0.00000  Uiso   1.00
O830   O     0.49999   0.12844   0.68393   0.00000  Uiso   1.00
Zn831  Zn    0.50000   0.21771   0.75000   0.00000  Uiso   1.00
Zn832  Zn    0.50000   0.11563   0.75000   0.00000  Uiso   1.00
C833   C     0.38529   0.13424   0.95292   0.00000  Uiso   1.00
C834   C     0.36700   0.16714   0.92482   0.00000  Uiso   1.00
C835   C     0.66214   0.15864   0.90307   0.00000  Uiso   1.00
C836   C     0.64142   0.11775   0.90998   0.00000  Uiso   1.00
C837   C     0.65889   0.08528   0.93863   0.00000  Uiso   1.00
C838   C     0.36398   0.09342   0.96008   0.00000  Uiso   1.00
H839   H     0.38244   0.19923   0.91961   0.00000  Uiso   1.00
H840   H     0.64846   0.18388   0.88109   0.00000  Uiso   1.00
H841   H     0.61175   0.11133   0.89330   0.00000  Uiso   1.00
H842   H     0.64270   0.05370   0.94413   0.00000  Uiso   1.00
H843   H     0.37727   0.06783   0.98197   0.00000  Uiso   1.00
C844   C     0.61471   0.19906   0.54708   0.00000  Uiso   1.00
C845   C     0.63604   0.23987   0.53992   0.00000  Uiso   1.00
C846   C     0.34115   0.24799   0.56135   0.00000  Uiso   1.00
C847   C     0.35860   0.21550   0.59000   0.00000  Uiso   1.00
C848   C     0.33786   0.17463   0.59692   0.00000  Uiso   1.00
C849   C     0.63299   0.16616   0.57518   0.00000  Uiso   1.00
H850   H     0.62277   0.26546   0.51803   0.00000  Uiso   1.00
H851   H     0.35735   0.27955   0.55585   0.00000  Uiso   1.00
H852   H     0.38828   0.22191   0.60668   0.00000  Uiso   1.00
H853   H     0.35153   0.14938   0.61891   0.00000  Uiso   1.00
H854   H     0.61754   0.13408   0.58040   0.00000  Uiso   1.00
H855   H     0.37188   0.10259   0.78509   0.00000  Uiso   1.00
H856   H     0.62812   0.23074   0.71491   0.00000  Uiso   1.00
H857   H     0.62923   0.10246   0.78497   0.00000  Uiso   1.00
H858   H     0.37077   0.23087   0.71503   0.00000  Uiso   1.00
C859   C     0.75334   0.16672   0.75001   0.00000  Uiso   1.00
C860   C     0.91333   0.16662   0.74999   0.00000  Uiso   1.00
C861   C     0.76072   0.14139   0.52282   0.00000  Uiso   1.00
C862   C     0.90595   0.19193   0.97718   0.00000  Uiso   1.00
C863   C     0.68840   0.13042   0.76952   0.00000  Uiso   1.00
C864   C     0.97826   0.20291   0.73048   0.00000  Uiso   1.00
C865   C     0.97888   0.13033   0.76944   0.00000  Uiso   1.00
C866   C     0.68779   0.20301   0.73056   0.00000  Uiso   1.00
C867   C     0.95746   0.16658   0.74992   0.00000  Uiso   1.00
C868   C     0.70921   0.16676   0.75008   0.00000  Uiso   1.00
C869   C     0.86032   0.02401   0.77713   0.00000  Uiso   1.00
C870   C     0.80635   0.30932   0.72287   0.00000  Uiso   1.00
C871   C     0.80635   0.02393   0.72287   0.00000  Uiso   1.00
C872   C     0.86031   0.30940   0.77713   0.00000  Uiso   1.00
C873   C     0.83301   0.16656   0.66354   0.00000  Uiso   1.00
C874   C     0.83365   0.16678   0.83646   0.00000  Uiso   1.00
C875   C     0.86900   0.18120   0.90716   0.00000  Uiso   1.00
C876   C     0.79766   0.15214   0.59284   0.00000  Uiso   1.00
C877   C     0.83343   0.16712   0.88405   0.00000  Uiso   1.00
C878   C     0.83324   0.16621   0.61596   0.00000  Uiso   1.00
C879   C     0.79748   0.15351   0.90588   0.00000  Uiso   1.00
C880   C     0.86919   0.17982   0.59412   0.00000  Uiso   1.00
C881   C     0.79606   0.15480   0.95262   0.00000  Uiso   1.00
C882   C     0.87061   0.17853   0.54738   0.00000  Uiso   1.00
C883   C     0.83302   0.16713   0.97661   0.00000  Uiso   1.00
C884   C     0.83365   0.16620   0.52339   0.00000  Uiso   1.00
C885   C     0.86942   0.18042   0.95365   0.00000  Uiso   1.00
C886   C     0.79725   0.15291   0.54635   0.00000  Uiso   1.00
C887   C     0.75929   0.14313   0.97599   0.00000  Uiso   1.00
C888   C     0.90738   0.19019   0.52401   0.00000  Uiso   1.00
H889   H     0.89654   0.19149   0.88880   0.00000  Uiso   1.00
H890   H     0.77013   0.14184   0.61120   0.00000  Uiso   1.00
H891   H     0.77098   0.14210   0.88591   0.00000  Uiso   1.00
H892   H     0.89569   0.19123   0.61409   0.00000  Uiso   1.00
H893   H     0.73288   0.13204   0.54105   0.00000  Uiso   1.00
H894   H     0.93379   0.20128   0.95895   0.00000  Uiso   1.00
H895   H     0.88190   0.04219   0.79882   0.00000  Uiso   1.00
H896   H     0.78477   0.29114   0.70118   0.00000  Uiso   1.00
H897   H     0.78478   0.04205   0.70116   0.00000  Uiso   1.00
H898   H     0.88189   0.29128   0.79884   0.00000  Uiso   1.00
N899   N     0.83333   0.28573   0.75000   0.00000  Uiso   1.00
N900   N     0.83333   0.04760   0.75000   0.00000  Uiso   1.00
O901   O     0.77226   0.20487   0.75000   0.00000  Uiso   1.00
O902   O     0.89441   0.12846   0.75000   0.00000  Uiso   1.00
O903   O     0.89441   0.20487   0.75001   0.00000  Uiso   1.00
O904   O     0.77226   0.12846   0.75000   0.00000  Uiso   1.00
O905   O     0.83333   0.20489   0.68393   0.00000  Uiso   1.00
O906   O     0.83334   0.12844   0.81608   0.00000  Uiso   1.00
O907   O     0.83334   0.20489   0.81608   0.00000  Uiso   1.00
O908   O     0.83333   0.12844   0.68393   0.00000  Uiso   1.00
Zn909  Zn    0.83333   0.21771   0.75000   0.00000  Uiso   1.00
Zn910  Zn    0.83333   0.11563   0.75000   0.00000  Uiso   1.00
C911   C     0.71863   0.13424   0.95292   0.00000  Uiso   1.00
C912   C     0.70033   0.16714   0.92482   0.00000  Uiso   1.00
C913   C     0.99547   0.15864   0.90307   0.00000  Uiso   1.00
C914   C     0.97475   0.11775   0.90998   0.00000  Uiso   1.00
C915   C     0.99222   0.08528   0.93863   0.00000  Uiso   1.00
C916   C     0.69732   0.09342   0.96008   0.00000  Uiso   1.00
H917   H     0.71577   0.19923   0.91961   0.00000  Uiso   1.00
H918   H     0.98179   0.18388   0.88109   0.00000  Uiso   1.00
H919   H     0.94509   0.11133   0.89330   0.00000  Uiso   1.00
H920   H     0.97604   0.05370   0.94413   0.00000  Uiso   1.00
H921   H     0.71060   0.06783   0.98197   0.00000  Uiso   1.00
C922   C     0.94805   0.19906   0.54708   0.00000  Uiso   1.00
C923   C     0.96938   0.23987   0.53992   0.00000  Uiso   1.00
C924   C     0.67448   0.24799   0.56135   0.00000  Uiso   1.00
C925   C     0.69194   0.21550   0.59000   0.00000  Uiso   1.00
C926   C     0.67119   0.17463   0.59692   0.00000  Uiso   1.00
C927   C     0.96633   0.16616   0.57518   0.00000  Uiso   1.00
H928   H     0.95610   0.26546   0.51803   0.00000  Uiso   1.00
H929   H     0.69068   0.27955   0.55585   0.00000  Uiso   1.00
H930   H     0.72161   0.22191   0.60668   0.00000  Uiso   1.00
H931   H     0.68486   0.14938   0.61891   0.00000  Uiso   1.00
H932   H     0.95087   0.13408   0.58040   0.00000  Uiso   1.00
H933   H     0.70521   0.10259   0.78509   0.00000  Uiso   1.00
H934   H     0.96145   0.23074   0.71491   0.00000  Uiso   1.00
H935   H     0.96256   0.10246   0.78497   0.00000  Uiso   1.00
H936   H     0.70410   0.23087   0.71503   0.00000  Uiso   1.00
C937   C     0.08667   0.50005   0.75001   0.00000  Uiso   1.00
C938   C     0.24666   0.49995   0.74999   0.00000  Uiso   1.00
C939   C     0.09406   0.47473   0.52282   0.00000  Uiso   1.00
C940   C     0.23928   0.52526   0.97718   0.00000  Uiso   1.00
C941   C     0.02174   0.46376   0.76952   0.00000  Uiso   1.00
C942   C     0.31160   0.53624   0.73048   0.00000  Uiso   1.00
C943   C     0.31221   0.46366   0.76944   0.00000  Uiso   1.00
C944   C     0.02112   0.53634   0.73056   0.00000  Uiso   1.00
C945   C     0.29079   0.49991   0.74992   0.00000  Uiso   1.00
C946   C     0.04255   0.50009   0.75008   0.00000  Uiso   1.00
C947   C     0.19365   0.35734   0.77713   0.00000  Uiso   1.00
C948   C     0.13968   0.64266   0.72287   0.00000  Uiso   1.00
C949   C     0.13969   0.35727   0.72287   0.00000  Uiso   1.00
C950   C     0.19365   0.64273   0.77713   0.00000  Uiso   1.00
C951   C     0.16635   0.49989   0.66354   0.00000  Uiso   1.00
C952   C     0.16699   0.50011   0.83646   0.00000  Uiso   1.00
C953   C     0.20234   0.51453   0.90716   0.00000  Uiso   1.00
C954   C     0.13100   0.48547   0.59284   0.00000  Uiso   1.00
C955   C     0.16676   0.50045   0.88405   0.00000  Uiso   1.00
C956   C     0.16657   0.49955   0.61596   0.00000  Uiso   1.00
C957   C     0.13081   0.48684   0.90588   0.00000  Uiso   1.00
C958   C     0.20252   0.51315   0.59412   0.00000  Uiso   1.00
C959   C     0.12940   0.48813   0.95262   0.00000  Uiso   1.00
C960   C     0.20394   0.51187   0.54738   0.00000  Uiso   1.00
C961   C     0.16635   0.50046   0.97661   0.00000  Uiso   1.00
C962   C     0.16698   0.49954   0.52339   0.00000  Uiso   1.00
C963   C     0.20276   0.51375   0.95365   0.00000  Uiso   1.00
C964   C     0.13058   0.48624   0.54635   0.00000  Uiso   1.00
C965   C     0.09262   0.47647   0.97599   0.00000  Uiso   1.00
C966   C     0.24072   0.52352   0.52401   0.00000  Uiso   1.00
H967   H     0.22987   0.52482   0.88880   0.00000  Uiso   1.00
H968   H     0.10346   0.47518   0.61120   0.00000  Uiso   1.00
H969   H     0.10431   0.47543   0.88591   0.00000  Uiso   1.00
H970   H     0.22902   0.52456   0.61409   0.00000  Uiso   1.00
H971   H     0.06622   0.46537   0.54105   0.00000  Uiso   1.00
H972   H     0.26712   0.53461   0.95895   0.00000  Uiso   1.00
H973   H     0.21523   0.37552   0.79882   0.00000  Uiso   1.00
H974   H     0.11810   0.62448   0.70118   0.00000  Uiso   1.00
H975   H     0.11811   0.37538   0.70116   0.00000  Uiso   1.00
H976   H     0.21522   0.62462   0.79884   0.00000  Uiso   1.00
N977   N     0.16667   0.61907   0.75000   0.00000  Uiso   1.00
N978   N     0.16667   0.38093   0.75000   0.00000  Uiso   1.00
O979   O     0.10559   0.53821   0.75000   0.00000  Uiso   1.00
O980   O     0.22774   0.46179   0.75000   0.00000  Uiso   1.00
O981   O     0.22774   0.53821   0.75001   0.00000  Uiso   1.00
O982   O     0.10559   0.46179   0.75000   0.00000  Uiso   1.00
O983   O     0.16666   0.53823   0.68393   0.00000  Uiso   1.00
O984   O     0.16667   0.46177   0.81608   0.00000  Uiso   1.00
O985   O     0.16667   0.53823   0.81608   0.00000  Uiso   1.00
O986   O     0.16666   0.46177   0.68393   0.00000  Uiso   1.00
Zn987  Zn    0.16667   0.55104   0.75000   0.00000  Uiso   1.00
Zn988  Zn    0.16667   0.44896   0.75000   0.00000  Uiso   1.00
C989   C     0.05196   0.46757   0.95292   0.00000  Uiso   1.00
C990   C     0.03367   0.50047   0.92482   0.00000  Uiso   1.00
C991   C     0.32881   0.49198   0.90307   0.00000  Uiso   1.00
C992   C     0.30809   0.45109   0.90998   0.00000  Uiso   1.00
C993   C     0.32556   0.41861   0.93863   0.00000  Uiso   1.00
C994   C     0.03065   0.42676   0.96008   0.00000  Uiso   1.00
H995   H     0.04911   0.53256   0.91961   0.00000  Uiso   1.00
H996   H     0.31513   0.51722   0.88109   0.00000  Uiso   1.00
H997   H     0.27842   0.44466   0.89330   0.00000  Uiso   1.00
H998   H     0.30937   0.38704   0.94413   0.00000  Uiso   1.00
H999   H     0.04393   0.40117   0.98197   0.00000  Uiso   1.00
C1000  C     0.28138   0.53240   0.54708   0.00000  Uiso   1.00
C1001  C     0.30271   0.57320   0.53992   0.00000  Uiso   1.00
C1002  C     0.00781   0.58132   0.56135   0.00000  Uiso   1.00
C1003  C     0.02527   0.54884   0.59000   0.00000  Uiso   1.00
C1004  C     0.00453   0.50796   0.59692   0.00000  Uiso   1.00
C1005  C     0.29966   0.49949   0.57518   0.00000  Uiso   1.00
H1006  H     0.28944   0.59880   0.51803   0.00000  Uiso   1.00
H1007  H     0.02402   0.61288   0.55585   0.00000  Uiso   1.00
H1008  H     0.05495   0.55524   0.60668   0.00000  Uiso   1.00
H1009  H     0.01819   0.48272   0.61891   0.00000  Uiso   1.00
H1010  H     0.28420   0.46741   0.58040   0.00000  Uiso   1.00
H1011  H     0.03855   0.43592   0.78509   0.00000  Uiso   1.00
H1012  H     0.29479   0.56407   0.71491   0.00000  Uiso   1.00
H1013  H     0.29590   0.43580   0.78497   0.00000  Uiso   1.00
H1014  H     0.03744   0.56420   0.71503   0.00000  Uiso   1.00
C1015  C     0.42001   0.50005   0.75001   0.00000  Uiso   1.00
C1016  C     0.57999   0.49995   0.74999   0.00000  Uiso   1.00
C1017  C     0.42739   0.47473   0.52282   0.00000  Uiso   1.00
C1018  C     0.57261   0.52526   0.97718   0.00000  Uiso   1.00
C1019  C     0.35507   0.46376   0.76952   0.00000  Uiso   1.00
C1020  C     0.64493   0.53624   0.73048   0.00000  Uiso   1.00
C1021  C     0.64555   0.46366   0.76944   0.00000  Uiso   1.00
C1022  C     0.35445   0.53634   0.73056   0.00000  Uiso   1.00
C1023  C     0.62412   0.49991   0.74992   0.00000  Uiso   1.00
C1024  C     0.37588   0.50009   0.75008   0.00000  Uiso   1.00
C1025  C     0.52698   0.35734   0.77713   0.00000  Uiso   1.00
C1026  C     0.47302   0.64266   0.72287   0.00000  Uiso   1.00
C1027  C     0.47302   0.35727   0.72287   0.00000  Uiso   1.00
C1028  C     0.52698   0.64273   0.77713   0.00000  Uiso   1.00
C1029  C     0.49968   0.49989   0.66354   0.00000  Uiso   1.00
C1030  C     0.50032   0.50011   0.83646   0.00000  Uiso   1.00
C1031  C     0.53567   0.51453   0.90716   0.00000  Uiso   1.00
C1032  C     0.46433   0.48547   0.59284   0.00000  Uiso   1.00
C1033  C     0.50009   0.50045   0.88405   0.00000  Uiso   1.00
C1034  C     0.49991   0.49955   0.61596   0.00000  Uiso   1.00
C1035  C     0.46415   0.48684   0.90588   0.00000  Uiso   1.00
C1036  C     0.53586   0.51315   0.59412   0.00000  Uiso   1.00
C1037  C     0.46273   0.48813   0.95262   0.00000  Uiso   1.00
C1038  C     0.53727   0.51187   0.54738   0.00000  Uiso   1.00
C1039  C     0.49968   0.50046   0.97661   0.00000  Uiso   1.00
C1040  C     0.50032   0.49954   0.52339   0.00000  Uiso   1.00
C1041  C     0.53609   0.51375   0.95365   0.00000  Uiso   1.00
C1042  C     0.46391   0.48624   0.54635   0.00000  Uiso   1.00
C1043  C     0.42595   0.47647   0.97599   0.00000  Uiso   1.00
C1044  C     0.57405   0.52352   0.52401   0.00000  Uiso   1.00
H1045  H     0.56320   0.52482   0.88880   0.00000  Uiso   1.00
H1046  H     0.43680   0.47518   0.61120   0.00000  Uiso   1.00
H1047  H     0.43764   0.47543   0.88591   0.00000  Uiso   1.00
H1048  H     0.56236   0.52456   0.61409   0.00000  Uiso   1.00
H1049  H     0.39955   0.46537   0.54105   0.00000  Uiso   1.00
H1050  H     0.60046   0.53461   0.95895   0.00000  Uiso   1.00
H1051  H     0.54857   0.37552   0.79882   0.00000  Uiso   1.00
H1052  H     0.45143   0.62448   0.70118   0.00000  Uiso   1.00
H1053  H     0.45145   0.37538   0.70116   0.00000  Uiso   1.00
H1054  H     0.54855   0.62462   0.79884   0.00000  Uiso   1.00
N1055  N     0.50000   0.61907   0.75000   0.00000  Uiso   1.00
N1056  N     0.50000   0.38093   0.75000   0.00000  Uiso   1.00
O1057  O     0.43892   0.53821   0.75000   0.00000  Uiso   1.00
O1058  O     0.56108   0.46179   0.75000   0.00000  Uiso   1.00
O1059  O     0.56108   0.53821   0.75001   0.00000  Uiso   1.00
O1060  O     0.43892   0.46179   0.75000   0.00000  Uiso   1.00
O1061  O     0.49999   0.53823   0.68393   0.00000  Uiso   1.00
O1062  O     0.50001   0.46177   0.81608   0.00000  Uiso   1.00
O1063  O     0.50001   0.53823   0.81608   0.00000  Uiso   1.00
O1064  O     0.49999   0.46177   0.68393   0.00000  Uiso   1.00
Zn1065 Zn    0.50000   0.55104   0.75000   0.00000  Uiso   1.00
Zn1066 Zn    0.50000   0.44896   0.75000   0.00000  Uiso   1.00
C1067  C     0.38529   0.46757   0.95292   0.00000  Uiso   1.00
C1068  C     0.36700   0.50047   0.92482   0.00000  Uiso   1.00
C1069  C     0.66214   0.49198   0.90307   0.00000  Uiso   1.00
C1070  C     0.64142   0.45109   0.90998   0.00000  Uiso   1.00
C1071  C     0.65889   0.41861   0.93863   0.00000  Uiso   1.00
C1072  C     0.36398   0.42676   0.96008   0.00000  Uiso   1.00
H1073  H     0.38244   0.53256   0.91961   0.00000  Uiso   1.00
H1074  H     0.64846   0.51722   0.88109   0.00000  Uiso   1.00
H1075  H     0.61175   0.44466   0.89330   0.00000  Uiso   1.00
H1076  H     0.64270   0.38704   0.94413   0.00000  Uiso   1.00
H1077  H     0.37727   0.40117   0.98197   0.00000  Uiso   1.00
C1078  C     0.61471   0.53240   0.54708   0.00000  Uiso   1.00
C1079  C     0.63604   0.57320   0.53992   0.00000  Uiso   1.00
C1080  C     0.34115   0.58132   0.56135   0.00000  Uiso   1.00
C1081  C     0.35860   0.54884   0.59000   0.00000  Uiso   1.00
C1082  C     0.33786   0.50796   0.59692   0.00000  Uiso   1.00
C1083  C     0.63299   0.49949   0.57518   0.00000  Uiso   1.00
H1084  H     0.62277   0.59880   0.51803   0.00000  Uiso   1.00
H1085  H     0.35735   0.61288   0.55585   0.00000  Uiso   1.00
H1086  H     0.38828   0.55524   0.60668   0.00000  Uiso   1.00
H1087  H     0.35153   0.48272   0.61891   0.00000  Uiso   1.00
H1088  H     0.61754   0.46741   0.58040   0.00000  Uiso   1.00
H1089  H     0.37188   0.43592   0.78509   0.00000  Uiso   1.00
H1090  H     0.62812   0.56407   0.71491   0.00000  Uiso   1.00
H1091  H     0.62923   0.43580   0.78497   0.00000  Uiso   1.00
H1092  H     0.37077   0.56420   0.71503   0.00000  Uiso   1.00
C1093  C     0.75334   0.50005   0.75001   0.00000  Uiso   1.00
C1094  C     0.91333   0.49995   0.74999   0.00000  Uiso   1.00
C1095  C     0.76072   0.47473   0.52282   0.00000  Uiso   1.00
C1096  C     0.90595   0.52526   0.97718   0.00000  Uiso   1.00
C1097  C     0.68840   0.46376   0.76952   0.00000  Uiso   1.00
C1098  C     0.97826   0.53624   0.73048   0.00000  Uiso   1.00
C1099  C     0.97888   0.46366   0.76944   0.00000  Uiso   1.00
C1100  C     0.68779   0.53634   0.73056   0.00000  Uiso   1.00
C1101  C     0.95746   0.49991   0.74992   0.00000  Uiso   1.00
C1102  C     0.70921   0.50009   0.75008   0.00000  Uiso   1.00
C1103  C     0.86032   0.35734   0.77713   0.00000  Uiso   1.00
C1104  C     0.80635   0.64266   0.72287   0.00000  Uiso   1.00
C1105  C     0.80635   0.35727   0.72287   0.00000  Uiso   1.00
C1106  C     0.86031   0.64273   0.77713   0.00000  Uiso   1.00
C1107  C     0.83301   0.49989   0.66354   0.00000  Uiso   1.00
C1108  C     0.83365   0.50011   0.83646   0.00000  Uiso   1.00
C1109  C     0.86900   0.51453   0.90716   0.00000  Uiso   1.00
C1110  C     0.79766   0.48547   0.59284   0.00000  Uiso   1.00
C1111  C     0.83343   0.50045   0.88405   0.00000  Uiso   1.00
C1112  C     0.83324   0.49955   0.61596   0.00000  Uiso   1.00
C1113  C     0.79748   0.48684   0.90588   0.00000  Uiso   1.00
C1114  C     0.86919   0.51315   0.59412   0.00000  Uiso   1.00
C1115  C     0.79606   0.48813   0.95262   0.00000  Uiso   1.00
C1116  C     0.87061   0.51187   0.54738   0.00000  Uiso   1.00
C1117  C     0.83302   0.50046   0.97661   0.00000  Uiso   1.00
C1118  C     0.83365   0.49954   0.52339   0.00000  Uiso   1.00
C1119  C     0.86942   0.51375   0.95365   0.00000  Uiso   1.00
C1120  C     0.79725   0.48624   0.54635   0.00000  Uiso   1.00
C1121  C     0.75929   0.47647   0.97599   0.00000  Uiso   1.00
C1122  C     0.90738   0.52352   0.52401   0.00000  Uiso   1.00
H1123  H     0.89654   0.52482   0.88880   0.00000  Uiso   1.00
H1124  H     0.77013   0.47518   0.61120   0.00000  Uiso   1.00
H1125  H     0.77098   0.47543   0.88591   0.00000  Uiso   1.00
H1126  H     0.89569   0.52456   0.61409   0.00000  Uiso   1.00
H1127  H     0.73288   0.46537   0.54105   0.00000  Uiso   1.00
H1128  H     0.93379   0.53461   0.95895   0.00000  Uiso   1.00
H1129  H     0.88190   0.37552   0.79882   0.00000  Uiso   1.00
H1130  H     0.78477   0.62448   0.70118   0.00000  Uiso   1.00
H1131  H     0.78478   0.37538   0.70116   0.00000  Uiso   1.00
H1132  H     0.88189   0.62462   0.79884   0.00000  Uiso   1.00
N1133  N     0.83333   0.61907   0.75000   0.00000  Uiso   1.00
N1134  N     0.83333   0.38093   0.75000   0.00000  Uiso   1.00
O1135  O     0.77226   0.53821   0.75000   0.00000  Uiso   1.00
O1136  O     0.89441   0.46179   0.75000   0.00000  Uiso   1.00
O1137  O     0.89441   0.53821   0.75001   0.00000  Uiso   1.00
O1138  O     0.77226   0.46179   0.75000   0.00000  Uiso   1.00
O1139  O     0.83333   0.53823   0.68393   0.00000  Uiso   1.00
O1140  O     0.83334   0.46177   0.81608   0.00000  Uiso   1.00
O1141  O     0.83334   0.53823   0.81608   0.00000  Uiso   1.00
O1142  O     0.83333   0.46177   0.68393   0.00000  Uiso   1.00
Zn1143 Zn    0.83333   0.55104   0.75000   0.00000  Uiso   1.00
Zn1144 Zn    0.83333   0.44896   0.75000   0.00000  Uiso   1.00
C1145  C     0.71863   0.46757   0.95292   0.00000  Uiso   1.00
C1146  C     0.70033   0.50047   0.92482   0.00000  Uiso   1.00
C1147  C     0.99547   0.49198   0.90307   0.00000  Uiso   1.00
C1148  C     0.97475   0.45109   0.90998   0.00000  Uiso   1.00
C1149  C     0.99222   0.41861   0.93863   0.00000  Uiso   1.00
C1150  C     0.69732   0.42676   0.96008   0.00000  Uiso   1.00
H1151  H     0.71577   0.53256   0.91961   0.00000  Uiso   1.00
H1152  H     0.98179   0.51722   0.88109   0.00000  Uiso   1.00
H1153  H     0.94509   0.44466   0.89330   0.00000  Uiso   1.00
H1154  H     0.97604   0.38704   0.94413   0.00000  Uiso   1.00
H1155  H     0.71060   0.40117   0.98197   0.00000  Uiso   1.00
C1156  C     0.94805   0.53240   0.54708   0.00000  Uiso   1.00
C1157  C     0.96938   0.57320   0.53992   0.00000  Uiso   1.00
C1158  C     0.67448   0.58132   0.56135   0.00000  Uiso   1.00
C1159  C     0.69194   0.54884   0.59000   0.00000  Uiso   1.00
C1160  C     0.67119   0.50796   0.59692   0.00000  Uiso   1.00
C1161  C     0.96633   0.49949   0.57518   0.00000  Uiso   1.00
H1162  H     0.95610   0.59880   0.51803   0.00000  Uiso   1.00
H1163  H     0.69068   0.61288   0.55585   0.00000  Uiso   1.00
H1164  H     0.72161   0.55524   0.60668   0.00000  Uiso   1.00
H1165  H     0.68486   0.48272   0.61891   0.00000  Uiso   1.00
H1166  H     0.95087   0.46741   0.58040   0.00000  Uiso   1.00
H1167  H     0.70521   0.43592   0.78509   0.00000  Uiso   1.00
H1168  H     0.96145   0.56407   0.71491   0.00000  Uiso   1.00
H1169  H     0.96256   0.43580   0.78497   0.00000  Uiso   1.00
H1170  H     0.70410   0.56420   0.71503   0.00000  Uiso   1.00
C1171  C     0.08667   0.83338   0.75001   0.00000  Uiso   1.00
C1172  C     0.24666   0.83328   0.74999   0.00000  Uiso   1.00
C1173  C     0.09406   0.80806   0.52282   0.00000  Uiso   1.00
C1174  C     0.23928   0.85860   0.97718   0.00000  Uiso   1.00
C1175  C     0.02174   0.79709   0.76952   0.00000  Uiso   1.00
C1176  C     0.31160   0.86958   0.73048   0.00000  Uiso   1.00
C1177  C     0.31221   0.79699   0.76944   0.00000  Uiso   1.00
C1178  C     0.02112   0.86967   0.73056   0.00000  Uiso   1.00
C1179  C     0.29079   0.83324   0.74992   0.00000  Uiso   1.00
C1180  C     0.04255   0.83342   0.75008   0.00000  Uiso   1.00
C1181  C     0.19365   0.69068   0.77713   0.00000  Uiso   1.00
C1182  C     0.13968   0.97599   0.72287   0.00000  Uiso   1.00
C1183  C     0.13969   0.69060   0.72287   0.00000  Uiso   1.00
C1184  C     0.19365   0.97607   0.77713   0.00000  Uiso   1.00
C1185  C     0.16635   0.83322   0.66354   0.00000  Uiso   1.00
C1186  C     0.16699   0.83344   0.83646   0.00000  Uiso   1.00
C1187  C     0.20234   0.84786   0.90716   0.00000  Uiso   1.00
C1188  C     0.13100   0.81880   0.59284   0.00000  Uiso   1.00
C1189  C     0.16676   0.83379   0.88405   0.00000  Uiso   1.00
C1190  C     0.16657   0.83288   0.61596   0.00000  Uiso   1.00
C1191  C     0.13081   0.82018   0.90588   0.00000  Uiso   1.00
C1192  C     0.20252   0.84649   0.59412   0.00000  Uiso   1.00
C1193  C     0.12940   0.82146   0.95262   0.00000  Uiso   1.00
C1194  C     0.20394   0.84520   0.54738   0.00000  Uiso   1.00
C1195  C     0.16635   0.83379   0.97661   0.00000  Uiso   1.00
C1196  C     0.16698   0.83287   0.52339   0.00000  Uiso   1.00
C1197  C     0.20276   0.84709   0.95365   0.00000  Uiso   1.00
C1198  C     0.13058   0.81958   0.54635   0.00000  Uiso   1.00
C1199  C     0.09262   0.80980   0.97599   0.00000  Uiso   1.00
C1200  C     0.24072   0.85685   0.52401   0.00000  Uiso   1.00
H1201  H     0.22987   0.85816   0.88880   0.00000  Uiso   1.00
H1202  H     0.10346   0.80851   0.61120   0.00000  Uiso   1.00
H1203  H     0.10431   0.80877   0.88591   0.00000  Uiso   1.00
H1204  H     0.22902   0.85790   0.61409   0.00000  Uiso   1.00
H1205  H     0.06622   0.79871   0.54105   0.00000  Uiso   1.00
H1206  H     0.26712   0.86795   0.95895   0.00000  Uiso   1.00
H1207  H     0.21523   0.70886   0.79882   0.00000  Uiso   1.00
H1208  H     0.11810   0.95781   0.70118   0.00000  Uiso   1.00
H1209  H     0.11811   0.70872   0.70116   0.00000  Uiso   1.00
H1210  H     0.21522   0.95795   0.79884   0.00000  Uiso   1.00
N1211  N     0.16667   0.95240   0.75000   0.00000  Uiso   1.00
N1212  N     0.16667   0.71427   0.75000   0.00000  Uiso   1.00
O1213  O     0.10559   0.87154   0.75000   0.00000  Uiso   1.00
O1214  O     0.22774   0.79513   0.75000   0.00000  Uiso   1.00
O1215  O     0.22774   0.87154   0.75001   0.00000  Uiso   1.00
O1216  O     0.10559   0.79513   0.75000   0.00000  Uiso   1.00
O1217  O     0.16666   0.87156   0.68393   0.00000  Uiso   1.00
O1218  O     0.16667   0.79511   0.81608   0.00000  Uiso   1.00
O1219  O     0.16667   0.87156   0.81608   0.00000  Uiso   1.00
O1220  O     0.16666   0.79511   0.68393   0.00000  Uiso   1.00
Zn1221 Zn    0.16667   0.88437   0.75000   0.00000  Uiso   1.00
Zn1222 Zn    0.16667   0.78229   0.75000   0.00000  Uiso   1.00
C1223  C     0.05196   0.80091   0.95292   0.00000  Uiso   1.00
C1224  C     0.03367   0.83380   0.92482   0.00000  Uiso   1.00
C1225  C     0.32881   0.82531   0.90307   0.00000  Uiso   1.00
C1226  C     0.30809   0.78442   0.90998   0.00000  Uiso   1.00
C1227  C     0.32556   0.75194   0.93863   0.00000  Uiso   1.00
C1228  C     0.03065   0.76009   0.96008   0.00000  Uiso   1.00
H1229  H     0.04911   0.86590   0.91961   0.00000  Uiso   1.00
H1230  H     0.31513   0.85055   0.88109   0.00000  Uiso   1.00
H1231  H     0.27842   0.77800   0.89330   0.00000  Uiso   1.00
H1232  H     0.30937   0.72037   0.94413   0.00000  Uiso   1.00
H1233  H     0.04393   0.73450   0.98197   0.00000  Uiso   1.00
C1234  C     0.28138   0.86573   0.54708   0.00000  Uiso   1.00
C1235  C     0.30271   0.90653   0.53992   0.00000  Uiso   1.00
C1236  C     0.00781   0.91466   0.56135   0.00000  Uiso   1.00
C1237  C     0.02527   0.88217   0.59000   0.00000  Uiso   1.00
C1238  C     0.00453   0.84130   0.59692   0.00000  Uiso   1.00
C1239  C     0.29966   0.83282   0.57518   0.00000  Uiso   1.00
H1240  H     0.28944   0.93213   0.51803   0.00000  Uiso   1.00
H1241  H     0.02402   0.94622   0.55585   0.00000  Uiso   1.00
H1242  H     0.05495   0.88857   0.60668   0.00000  Uiso   1.00
H1243  H     0.01819   0.81605   0.61891   0.00000  Uiso   1.00
H1244  H     0.28420   0.80075   0.58040   0.00000  Uiso   1.00
H1245  H     0.03855   0.76926   0.78509   0.00000  Uiso   1.00
H1246  H     0.29479   0.89741   0.71491   0.00000  Uiso   1.00
H1247  H     0.29590   0.76913   0.78497   0.00000  Uiso   1.00
H1248  H     0.03744   0.89754   0.71503   0.00000  Uiso   1.00
C1249  C     0.42001   0.83338   0.75001   0.00000  Uiso   1.00
C1250  C     0.57999   0.83328   0.74999   0.00000  Uiso   1.00
C1251  C     0.42739   0.80806   0.52282   0.00000  Uiso   1.00
C1252  C     0.57261   0.85860   0.97718   0.00000  Uiso   1.00
C1253  C     0.35507   0.79709   0.76952   0.00000  Uiso   1.00
C1254  C     0.64493   0.86958   0.73048   0.00000  Uiso   1.00
C1255  C     0.64555   0.79699   0.76944   0.00000  Uiso   1.00
C1256  C     0.35445   0.86967   0.73056   0.00000  Uiso   1.00
C1257  C     0.62412   0.83324   0.74992   0.00000  Uiso   1.00
C1258  C     0.37588   0.83342   0.75008   0.00000  Uiso   1.00
C1259  C     0.52698   0.69068   0.77713   0.00000  Uiso   1.00
C1260  C     0.47302   0.97599   0.72287   0.00000  Uiso   1.00
C1261  C     0.47302   0.69060   0.72287   0.00000  Uiso   1.00
C1262  C     0.52698   0.97607   0.77713   0.00000  Uiso   1.00
C1263  C     0.49968   0.83322   0.66354   0.00000  Uiso   1.00
C1264  C     0.50032   0.83344   0.83646   0.00000  Uiso   1.00
C1265  C     0.53567   0.84786   0.90716   0.00000  Uiso   1.00
C1266  C     0.46433   0.81880   0.59284   0.00000  Uiso   1.00
C1267  C     0.50009   0.83379   0.88405   0.00000  Uiso   1.00
C1268  C     0.49991   0.83288   0.61596   0.00000  Uiso   1.00
C1269  C     0.46415   0.82018   0.90588   0.00000  Uiso   1.00
C1270  C     0.53586   0.84649   0.59412   0.00000  Uiso   1.00
C1271  C     0.46273   0.82146   0.95262   0.00000  Uiso   1.00
C1272  C     0.53727   0.84520   0.54738   0.00000  Uiso   1.00
C1273  C     0.49968   0.83379   0.97661   0.00000  Uiso   1.00
C1274  C     0.50032   0.83287   0.52339   0.00000  Uiso   1.00
C1275  C     0.53609   0.84709   0.95365   0.00000  Uiso   1.00
C1276  C     0.46391   0.81958   0.54635   0.00000  Uiso   1.00
C1277  C     0.42595   0.80980   0.97599   0.00000  Uiso   1.00
C1278  C     0.57405   0.85685   0.52401   0.00000  Uiso   1.00
H1279  H     0.56320   0.85816   0.88880   0.00000  Uiso   1.00
H1280  H     0.43680   0.80851   0.61120   0.00000  Uiso   1.00
H1281  H     0.43764   0.80877   0.88591   0.00000  Uiso   1.00
H1282  H     0.56236   0.85790   0.61409   0.00000  Uiso   1.00
H1283  H     0.39955   0.79871   0.54105   0.00000  Uiso   1.00
H1284  H     0.60046   0.86795   0.95895   0.00000  Uiso   1.00
H1285  H     0.54857   0.70886   0.79882   0.00000  Uiso   1.00
H1286  H     0.45143   0.95781   0.70118   0.00000  Uiso   1.00
H1287  H     0.45145   0.70872   0.70116   0.00000  Uiso   1.00
H1288  H     0.54855   0.95795   0.79884   0.00000  Uiso   1.00
N1289  N     0.50000   0.95240   0.75000   0.00000  Uiso   1.00
N1290  N     0.50000   0.71427   0.75000   0.00000  Uiso   1.00
O1291  O     0.43892   0.87154   0.75000   0.00000  Uiso   1.00
O1292  O     0.56108   0.79513   0.75000   0.00000  Uiso   1.00
O1293  O     0.56108   0.87154   0.75001   0.00000  Uiso   1.00
O1294  O     0.43892   0.79513   0.75000   0.00000  Uiso   1.00
O1295  O     0.49999   0.87156   0.68393   0.00000  Uiso   1.00
O1296  O     0.50001   0.79511   0.81608   0.00000  Uiso   1.00
O1297  O     0.50001   0.87156   0.81608   0.00000  Uiso   1.00
O1298  O     0.49999   0.79511   0.68393   0.00000  Uiso   1.00
Zn1299 Zn    0.50000   0.88437   0.75000   0.00000  Uiso   1.00
Zn1300 Zn    0.50000   0.78229   0.75000   0.00000  Uiso   1.00
C1301  C     0.38529   0.80091   0.95292   0.00000  Uiso   1.00
C1302  C     0.36700   0.83380   0.92482   0.00000  Uiso   1.00
C1303  C     0.66214   0.82531   0.90307   0.00000  Uiso   1.00
C1304  C     0.64142   0.78442   0.90998   0.00000  Uiso   1.00
C1305  C     0.65889   0.75194   0.93863   0.00000  Uiso   1.00
C1306  C     0.36398   0.76009   0.96008   0.00000  Uiso   1.00
H1307  H     0.38244   0.86590   0.91961   0.00000  Uiso   1.00
H1308  H     0.64846   0.85055   0.88109   0.00000  Uiso   1.00
H1309  H     0.61175   0.77800   0.89330   0.00000  Uiso   1.00
H1310  H     0.64270   0.72037   0.94413   0.00000  Uiso   1.00
H1311  H     0.37727   0.73450   0.98197   0.00000  Uiso   1.00
C1312  C     0.61471   0.86573   0.54708   0.00000  Uiso   1.00
C1313  C     0.63604   0.90653   0.53992   0.00000  Uiso   1.00
C1314  C     0.34115   0.91466   0.56135   0.00000  Uiso   1.00
C1315  C     0.35860   0.88217   0.59000   0.00000  Uiso   1.00
C1316  C     0.33786   0.84130   0.59692   0.00000  Uiso   1.00
C1317  C     0.63299   0.83282   0.57518   0.00000  Uiso   1.00
H1318  H     0.62277   0.93213   0.51803   0.00000  Uiso   1.00
H1319  H     0.35735   0.94622   0.55585   0.00000  Uiso   1.00
H1320  H     0.38828   0.88857   0.60668   0.00000  Uiso   1.00
H1321  H     0.35153   0.81605   0.61891   0.00000  Uiso   1.00
H1322  H     0.61754   0.80075   0.58040   0.00000  Uiso   1.00
H1323  H     0.37188   0.76926   0.78509   0.00000  Uiso   1.00
H1324  H     0.62812   0.89741   0.71491   0.00000  Uiso   1.00
H1325  H     0.62923   0.76913   0.78497   0.00000  Uiso   1.00
H1326  H     0.37077   0.89754   0.71503   0.00000  Uiso   1.00
C1327  C     0.75334   0.83338   0.75001   0.00000  Uiso   1.00
C1328  C     0.91333   0.83328   0.74999   0.00000  Uiso   1.00
C1329  C     0.76072   0.80806   0.52282   0.00000  Uiso   1.00
C1330  C     0.90595   0.85860   0.97718   0.00000  Uiso   1.00
C1331  C     0.68840   0.79709   0.76952   0.00000  Uiso   1.00
C1332  C     0.97826   0.86958   0.73048   0.00000  Uiso   1.00
C1333  C     0.97888   0.79699   0.76944   0.00000  Uiso   1.00
C1334  C     0.68779   0.86967   0.73056   0.00000  Uiso   1.00
C1335  C     0.95746   0.83324   0.74992   0.00000  Uiso   1.00
C1336  C     0.70921   0.83342   0.75008   0.00000  Uiso   1.00
C1337  C     0.86032   0.69068   0.77713   0.00000  Uiso   1.00
C1338  C     0.80635   0.97599   0.72287   0.00000  Uiso   1.00
C1339  C     0.80635   0.69060   0.72287   0.00000  Uiso   1.00
C1340  C     0.86031   0.97607   0.77713   0.00000  Uiso   1.00
C1341  C     0.83301   0.83322   0.66354   0.00000  Uiso   1.00
C1342  C     0.83365   0.83344   0.83646   0.00000  Uiso   1.00
C1343  C     0.86900   0.84786   0.90716   0.00000  Uiso   1.00
C1344  C     0.79766   0.81880   0.59284   0.00000  Uiso   1.00
C1345  C     0.83343   0.83379   0.88405   0.00000  Uiso   1.00
C1346  C     0.83324   0.83288   0.61596   0.00000  Uiso   1.00
C1347  C     0.79748   0.82018   0.90588   0.00000  Uiso   1.00
C1348  C     0.86919   0.84649   0.59412   0.00000  Uiso   1.00
C1349  C     0.79606   0.82146   0.95262   0.00000  Uiso   1.00
C1350  C     0.87061   0.84520   0.54738   0.00000  Uiso   1.00
C1351  C     0.83302   0.83379   0.97661   0.00000  Uiso   1.00
C1352  C     0.83365   0.83287   0.52339   0.00000  Uiso   1.00
C1353  C     0.86942   0.84709   0.95365   0.00000  Uiso   1.00
C1354  C     0.79725   0.81958   0.54635   0.00000  Uiso   1.00
C1355  C     0.75929   0.80980   0.97599   0.00000  Uiso   1.00
C1356  C     0.90738   0.85685   0.52401   0.00000  Uiso   1.00
H1357  H     0.89654   0.85816   0.88880   0.00000  Uiso   1.00
H1358  H     0.77013   0.80851   0.61120   0.00000  Uiso   1.00
H1359  H     0.77098   0.80877   0.88591   0.00000  Uiso   1.00
H1360  H     0.89569   0.85790   0.61409   0.00000  Uiso   1.00
H1361  H     0.73288   0.79871   0.54105   0.00000  Uiso   1.00
H1362  H     0.93379   0.86795   0.95895   0.00000  Uiso   1.00
H1363  H     0.88190   0.70886   0.79882   0.00000  Uiso   1.00
H1364  H     0.78477   0.95781   0.70118   0.00000  Uiso   1.00
H1365  H     0.78478   0.70872   0.70116   0.00000  Uiso   1.00
H1366  H     0.88189   0.95795   0.79884   0.00000  Uiso   1.00
N1367  N     0.83333   0.95240   0.75000   0.00000  Uiso   1.00
N1368  N     0.83333   0.71427   0.75000   0.00000  Uiso   1.00
O1369  O     0.77226   0.87154   0.75000   0.00000  Uiso   1.00
O1370  O     0.89441   0.79513   0.75000   0.00000  Uiso   1.00
O1371  O     0.89441   0.87154   0.75001   0.00000  Uiso   1.00
O1372  O     0.77226   0.79513   0.75000   0.00000  Uiso   1.00
O1373  O     0.83333   0.87156   0.68393   0.00000  Uiso   1.00
O1374  O     0.83334   0.79511   0.81608   0.00000  Uiso   1.00
O1375  O     0.83334   0.87156   0.81608   0.00000  Uiso   1.00
O1376  O     0.83333   0.79511   0.68393   0.00000  Uiso   1.00
Zn1377 Zn    0.83333   0.88437   0.75000   0.00000  Uiso   1.00
Zn1378 Zn    0.83333   0.78229   0.75000   0.00000  Uiso   1.00
C1379  C     0.71863   0.80091   0.95292   0.00000  Uiso   1.00
C1380  C     0.70033   0.83380   0.92482   0.00000  Uiso   1.00
C1381  C     0.99547   0.82531   0.90307   0.00000  Uiso   1.00
C1382  C     0.97475   0.78442   0.90998   0.00000  Uiso   1.00
C1383  C     0.99222   0.75194   0.93863   0.00000  Uiso   1.00
C1384  C     0.69732   0.76009   0.96008   0.00000  Uiso   1.00
H1385  H     0.71577   0.86590   0.91961   0.00000  Uiso   1.00
H1386  H     0.98179   0.85055   0.88109   0.00000  Uiso   1.00
H1387  H     0.94509   0.77800   0.89330   0.00000  Uiso   1.00
H1388  H     0.97604   0.72037   0.94413   0.00000  Uiso   1.00
H1389  H     0.71060   0.73450   0.98197   0.00000  Uiso   1.00
C1390  C     0.94805   0.86573   0.54708   0.00000  Uiso   1.00
C1391  C     0.96938   0.90653   0.53992   0.00000  Uiso   1.00
C1392  C     0.67448   0.91466   0.56135   0.00000  Uiso   1.00
C1393  C     0.69194   0.88217   0.59000   0.00000  Uiso   1.00
C1394  C     0.67119   0.84130   0.59692   0.00000  Uiso   1.00
C1395  C     0.96633   0.83282   0.57518   0.00000  Uiso   1.00
H1396  H     0.95610   0.93213   0.51803   0.00000  Uiso   1.00
H1397  H     0.69068   0.94622   0.55585   0.00000  Uiso   1.00
H1398  H     0.72161   0.88857   0.60668   0.00000  Uiso   1.00
H1399  H     0.68486   0.81605   0.61891   0.00000  Uiso   1.00
H1400  H     0.95087   0.80075   0.58040   0.00000  Uiso   1.00
H1401  H     0.70521   0.76926   0.78509   0.00000  Uiso   1.00
H1402  H     0.96145   0.89741   0.71491   0.00000  Uiso   1.00
H1403  H     0.96256   0.76913   0.78497   0.00000  Uiso   1.00
H1404  H     0.70410   0.89754   0.71503   0.00000  Uiso   1.00
loop_
_geom_bond_atom_site_label_1
_geom_bond_atom_site_label_2
_geom_bond_distance
_geom_bond_site_symmetry_2
_ccdc_geom_bond_type
C1     O46     1.280   .     A
C1     O43     1.281   .     A
C1     C10     1.411   .     S
C2     O44     1.281   .     A
C2     O45     1.280   .     A
C2     C9      1.411   .     S
C3     C28     1.397   .     A
C3     H35     1.084   .     S
C3     C731    1.394   1_554 S
C4     H36     1.084   .     S
C4     C27     1.397   .     A
C4     C732    1.394   .     S
C5     H75     1.084   .     S
C5     C10     1.396   .     A
C5     C163    1.370   1_455 S
C6     C9      1.396   .     A
C6     H76     1.084   .     S
C6     C86     1.370   .     S
C7     H77     1.084   .     S
C7     C9      1.395   .     A
C7     C83     1.370   .     S
C8     H78     1.084   .     S
C8     C10     1.395   .     A
C8     C162    1.370   1_455 S
C11    N42     1.367   .     A
C11    H37     1.082   .     S
C11    C482    1.417   1_545 S
C12    N41     1.367   .     A
C12    H38     1.082   .     S
C12    C247    1.417   .     S
C13    N42     1.367   .     A
C13    H39     1.082   .     S
C13    C480    1.417   1_545 S
C14    N41     1.367   .     A
C14    H40     1.082   .     S
C14    C245    1.417   .     S
C15    O47     1.282   .     A
C15    O50     1.282   .     A
C15    C20     1.415   .     S
C16    O48     1.282   .     A
C16    O49     1.282   .     A
C16    C19     1.415   .     S
C17    C27     1.383   .     A
C17    H31     1.086   .     S
C17    C19     1.386   .     A
C18    C28     1.383   .     A
C18    H32     1.086   .     S
C18    C20     1.386   .     A
C19    C21     1.388   .     A
C20    C22     1.388   .     A
C21    H33     1.083   .     S
C21    C23     1.392   .     A
C22    H34     1.083   .     S
C22    C24     1.392   .     A
C23    C29     1.416   .     A
C23    C25     1.421   .     A
C24    C26     1.421   .     A
C24    C30     1.416   .     A
C25    C27     1.413   .     A
C25    C728    1.392   .     S
C26    C28     1.413   .     A
C26    C727    1.392   1_554 S
C29    C53     1.487   .     S
C29    C705    1.394   .     S
C30    C64     1.487   .     S
C30    C706    1.394   1_554 S
N41    Zn51    2.010   .     S
N42    Zn52    2.010   .     S
O43    Zn51    1.990   .     S
O44    Zn52    1.990   .     S
O45    Zn51    1.988   .     S
O46    Zn52    1.988   .     S
O47    Zn51    1.999   .     S
O48    Zn52    1.999   .     S
O49    Zn51    2.003   .     S
O50    Zn52    2.003   .     S
C53    C54     1.407   .     A
C53    C58     1.405   .     A
C54    H59     1.083   .     S
C54    C211    1.398   1_455 S
C55    C56     1.397   .     A
C55    H60     1.082   .     S
C55    C132    1.398   .     S
C56    C57     1.398   .     A
C56    H61     1.083   .     S
C57    H62     1.082   .     S
C57    C136    1.399   .     S
C58    H63     1.083   .     S
C58    C213    1.399   1_455 S
C64    C69     1.407   .     A
C64    C65     1.405   .     A
C65    H70     1.083   .     S
C65    C144    1.399   .     S
C66    C67     1.398   .     A
C66    H71     1.082   .     S
C66    C221    1.399   1_455 S
C67    H72     1.083   .     S
C67    C68     1.397   .     A
C68    H73     1.082   .     S
C68    C225    1.398   1_455 S
C69    H74     1.083   .     S
C69    C146    1.398   .     S
C79    O124    1.280   .     A
C79    O121    1.281   .     A
C79    C88     1.411   .     S
C80    O122    1.281   .     A
C80    O123    1.280   .     A
C80    C87     1.411   .     S
C81    C106    1.397   .     A
C81    H113    1.084   .     S
C81    C809    1.394   1_554 S
C82    H114    1.084   .     S
C82    C105    1.397   .     A
C82    C810    1.394   .     S
C83    H153    1.084   .     S
C83    C88     1.396   .     A
C84    C87     1.396   .     A
C84    H154    1.084   .     S
C84    C164    1.370   .     S
C85    H155    1.084   .     S
C85    C87     1.395   .     A
C85    C161    1.370   .     S
C86    H156    1.084   .     S
C86    C88     1.395   .     A
C89    N120    1.367   .     A
C89    H115    1.082   .     S
C89    C560    1.417   1_545 S
C90    N119    1.367   .     A
C90    H116    1.082   .     S
C90    C325    1.417   .     S
C91    N120    1.367   .     A
C91    H117    1.082   .     S
C91    C558    1.417   1_545 S
C92    N119    1.367   .     A
C92    H118    1.082   .     S
C92    C323    1.417   .     S
C93    O125    1.282   .     A
C93    O128    1.282   .     A
C93    C98     1.415   .     S
C94    O126    1.282   .     A
C94    O127    1.282   .     A
C94    C97     1.415   .     S
C95    C105    1.383   .     A
C95    H109    1.086   .     S
C95    C97     1.386   .     A
C96    C106    1.383   .     A
C96    H110    1.086   .     S
C96    C98     1.386   .     A
C97    C99     1.388   .     A
C98    C100    1.388   .     A
C99    H111    1.083   .     S
C99    C101    1.392   .     A
C100   H112    1.083   .     S
C100   C102    1.392   .     A
C101   C107    1.416   .     A
C101   C103    1.421   .     A
C102   C104    1.421   .     A
C102   C108    1.416   .     A
C103   C105    1.413   .     A
C103   C806    1.392   .     S
C104   C106    1.413   .     A
C104   C805    1.392   1_554 S
C107   C131    1.487   .     S
C107   C783    1.394   .     S
C108   C142    1.487   .     S
C108   C784    1.394   1_554 S
N119   Zn129   2.010   .     S
N120   Zn130   2.010   .     S
O121   Zn129   1.990   .     S
O122   Zn130   1.990   .     S
O123   Zn129   1.988   .     S
O124   Zn130   1.988   .     S
O125   Zn129   1.999   .     S
O126   Zn130   1.999   .     S
O127   Zn129   2.003   .     S
O128   Zn130   2.003   .     S
C131   C132    1.407   .     A
C131   C136    1.405   .     A
C132   H137    1.083   .     S
C133   C134    1.397   .     A
C133   H138    1.082   .     S
C133   C210    1.398   .     S
C134   C135    1.398   .     A
C134   H139    1.083   .     S
C135   H140    1.082   .     S
C135   C214    1.399   .     S
C136   H141    1.083   .     S
C142   C147    1.407   .     A
C142   C143    1.405   .     A
C143   H148    1.083   .     S
C143   C222    1.399   .     S
C144   C145    1.398   .     A
C144   H149    1.082   .     S
C145   H150    1.083   .     S
C145   C146    1.397   .     A
C146   H151    1.082   .     S
C147   H152    1.083   .     S
C147   C224    1.398   .     S
C157   O202    1.280   .     A
C157   O199    1.281   .     A
C157   C166    1.411   .     S
C158   O200    1.281   .     A
C158   O201    1.280   .     A
C158   C165    1.411   .     S
C159   C184    1.397   .     A
C159   H191    1.084   .     S
C159   C887    1.394   1_554 S
C160   H192    1.084   .     S
C160   C183    1.397   .     A
C160   C888    1.394   .     S
C161   H231    1.084   .     S
C161   C166    1.396   .     A
C162   C165    1.396   .     A
C162   H232    1.084   .     S
C162   C8      1.370   1_655 S
C163   H233    1.084   .     S
C163   C165    1.395   .     A
C163   C5      1.370   1_655 S
C164   H234    1.084   .     S
C164   C166    1.395   .     A
C167   N198    1.367   .     A
C167   H193    1.082   .     S
C167   C638    1.417   1_545 S
C168   N197    1.367   .     A
C168   H194    1.082   .     S
C168   C403    1.417   .     S
C169   N198    1.367   .     A
C169   H195    1.082   .     S
C169   C636    1.417   1_545 S
C170   N197    1.367   .     A
C170   H196    1.082   .     S
C170   C401    1.417   .     S
C171   O203    1.282   .     A
C171   O206    1.282   .     A
C171   C176    1.415   .     S
C172   O204    1.282   .     A
C172   O205    1.282   .     A
C172   C175    1.415   .     S
C173   C183    1.383   .     A
C173   H187    1.086   .     S
C173   C175    1.386   .     A
C174   C184    1.383   .     A
C174   H188    1.086   .     S
C174   C176    1.386   .     A
C175   C177    1.388   .     A
C176   C178    1.388   .     A
C177   H189    1.083   .     S
C177   C179    1.392   .     A
C178   H190    1.083   .     S
C178   C180    1.392   .     A
C179   C185    1.416   .     A
C179   C181    1.421   .     A
C180   C182    1.421   .     A
C180   C186    1.416   .     A
C181   C183    1.413   .     A
C181   C884    1.392   .     S
C182   C184    1.413   .     A
C182   C883    1.392   1_554 S
C185   C209    1.487   .     S
C185   C861    1.394   .     S
C186   C220    1.487   .     S
C186   C862    1.394   1_554 S
N197   Zn207   2.010   .     S
N198   Zn208   2.010   .     S
O199   Zn207   1.990   .     S
O200   Zn208   1.990   .     S
O201   Zn207   1.988   .     S
O202   Zn208   1.988   .     S
O203   Zn207   1.999   .     S
O204   Zn208   1.999   .     S
O205   Zn207   2.003   .     S
O206   Zn208   2.003   .     S
C209   C210    1.407   .     A
C209   C214    1.405   .     A
C210   H215    1.083   .     S
C211   C212    1.397   .     A
C211   H216    1.082   .     S
C211   C54     1.398   1_655 S
C212   C213    1.398   .     A
C212   H217    1.083   .     S
C213   H218    1.082   .     S
C213   C58     1.399   1_655 S
C214   H219    1.083   .     S
C220   C225    1.407   .     A
C220   C221    1.405   .     A
C221   H226    1.083   .     S
C221   C66     1.399   1_655 S
C222   C223    1.398   .     A
C222   H227    1.082   .     S
C223   H228    1.083   .     S
C223   C224    1.397   .     A
C224   H229    1.082   .     S
C225   H230    1.083   .     S
C225   C68     1.398   1_655 S
C235   O280    1.280   .     A
C235   O277    1.281   .     A
C235   C244    1.411   .     S
C236   O278    1.281   .     A
C236   O279    1.280   .     A
C236   C243    1.411   .     S
C237   C262    1.397   .     A
C237   H269    1.084   .     S
C237   C965    1.394   1_554 S
C238   H270    1.084   .     S
C238   C261    1.397   .     A
C238   C966    1.394   .     S
C239   H309    1.084   .     S
C239   C244    1.396   .     A
C239   C397    1.370   1_455 S
C240   C243    1.396   .     A
C240   H310    1.084   .     S
C240   C320    1.370   .     S
C241   H311    1.084   .     S
C241   C243    1.395   .     A
C241   C317    1.370   .     S
C242   H312    1.084   .     S
C242   C244    1.395   .     A
C242   C396    1.370   1_455 S
C245   N276    1.367   .     A
C245   H271    1.082   .     S
C246   N275    1.367   .     A
C246   H272    1.082   .     S
C246   C481    1.417   .     S
C247   N276    1.367   .     A
C247   H273    1.082   .     S
C248   N275    1.367   .     A
C248   H274    1.082   .     S
C248   C479    1.417   .     S
C249   O281    1.282   .     A
C249   O284    1.282   .     A
C249   C254    1.415   .     S
C250   O282    1.282   .     A
C250   O283    1.282   .     A
C250   C253    1.415   .     S
C251   C261    1.383   .     A
C251   H265    1.086   .     S
C251   C253    1.386   .     A
C252   C262    1.383   .     A
C252   H266    1.086   .     S
C252   C254    1.386   .     A
C253   C255    1.388   .     A
C254   C256    1.388   .     A
C255   H267    1.083   .     S
C255   C257    1.392   .     A
C256   H268    1.083   .     S
C256   C258    1.392   .     A
C257   C263    1.416   .     A
C257   C259    1.421   .     A
C258   C260    1.421   .     A
C258   C264    1.416   .     A
C259   C261    1.413   .     A
C259   C962    1.392   .     S
C260   C262    1.413   .     A
C260   C961    1.392   1_554 S
C263   C287    1.487   .     S
C263   C939    1.394   .     S
C264   C298    1.487   .     S
C264   C940    1.394   1_554 S
N275   Zn285   2.010   .     S
N276   Zn286   2.010   .     S
O277   Zn285   1.990   .     S
O278   Zn286   1.990   .     S
O279   Zn285   1.988   .     S
O280   Zn286   1.988   .     S
O281   Zn285   1.999   .     S
O282   Zn286   1.999   .     S
O283   Zn285   2.003   .     S
O284   Zn286   2.003   .     S
C287   C288    1.407   .     A
C287   C292    1.405   .     A
C288   H293    1.083   .     S
C288   C445    1.398   1_455 S
C289   C290    1.397   .     A
C289   H294    1.082   .     S
C289   C366    1.398   .     S
C290   C291    1.398   .     A
C290   H295    1.083   .     S
C291   H296    1.082   .     S
C291   C370    1.399   .     S
C292   H297    1.083   .     S
C292   C447    1.399   1_455 S
C298   C303    1.407   .     A
C298   C299    1.405   .     A
C299   H304    1.083   .     S
C299   C378    1.399   .     S
C300   C301    1.398   .     A
C300   H305    1.082   .     S
C300   C455    1.399   1_455 S
C301   H306    1.083   .     S
C301   C302    1.397   .     A
C302   H307    1.082   .     S
C302   C459    1.398   1_455 S
C303   H308    1.083   .     S
C303   C380    1.398   .     S
C313   O358    1.280   .     A
C313   O355    1.281   .     A
C313   C322    1.411   .     S
C314   O356    1.281   .     A
C314   O357    1.280   .     A
C314   C321    1.411   .     S
C315   C340    1.397   .     A
C315   H347    1.084   .     S
C315   C1043   1.394   1_554 S
C316   H348    1.084   .     S
C316   C339    1.397   .     A
C316   C1044   1.394   .     S
C317   H387    1.084   .     S
C317   C322    1.396   .     A
C318   C321    1.396   .     A
C318   H388    1.084   .     S
C318   C398    1.370   .     S
C319   H389    1.084   .     S
C319   C321    1.395   .     A
C319   C395    1.370   .     S
C320   H390    1.084   .     S
C320   C322    1.395   .     A
C323   N354    1.367   .     A
C323   H349    1.082   .     S
C324   N353    1.367   .     A
C324   H350    1.082   .     S
C324   C559    1.417   .     S
C325   N354    1.367   .     A
C325   H351    1.082   .     S
C326   N353    1.367   .     A
C326   H352    1.082   .     S
C326   C557    1.417   .     S
C327   O359    1.282   .     A
C327   O362    1.282   .     A
C327   C332    1.415   .     S
C328   O360    1.282   .     A
C328   O361    1.282   .     A
C328   C331    1.415   .     S
C329   C339    1.383   .     A
C329   H343    1.086   .     S
C329   C331    1.386   .     A
C330   C340    1.383   .     A
C330   H344    1.086   .     S
C330   C332    1.386   .     A
C331   C333    1.388   .     A
C332   C334    1.388   .     A
C333   H345    1.083   .     S
C333   C335    1.392   .     A
C334   H346    1.083   .     S
C334   C336    1.392   .     A
C335   C341    1.416   .     A
C335   C337    1.421   .     A
C336   C338    1.421   .     A
C336   C342    1.416   .     A
C337   C339    1.413   .     A
C337   C1040   1.392   .     S
C338   C340    1.413   .     A
C338   C1039   1.392   1_554 S
C341   C365    1.487   .     S
C341   C1017   1.394   .     S
C342   C376    1.487   .     S
C342   C1018   1.394   1_554 S
N353   Zn363   2.010   .     S
N354   Zn364   2.010   .     S
O355   Zn363   1.990   .     S
O356   Zn364   1.990   .     S
O357   Zn363   1.988   .     S
O358   Zn364   1.988   .     S
O359   Zn363   1.999   .     S
O360   Zn364   1.999   .     S
O361   Zn363   2.003   .     S
O362   Zn364   2.003   .     S
C365   C366    1.407   .     A
C365   C370    1.405   .     A
C366   H371    1.083   .     S
C367   C368    1.397   .     A
C367   H372    1.082   .     S
C367   C444    1.398   .     S
C368   C369    1.398   .     A
C368   H373    1.083   .     S
C369   H374    1.082   .     S
C369   C448    1.399   .     S
C370   H375    1.083   .     S
C376   C381    1.407   .     A
C376   C377    1.405   .     A
C377   H382    1.083   .     S
C377   C456    1.399   .     S
C378   C379    1.398   .     A
C378   H383    1.082   .     S
C379   H384    1.083   .     S
C379   C380    1.397   .     A
C380   H385    1.082   .     S
C381   H386    1.083   .     S
C381   C458    1.398   .     S
C391   O436    1.280   .     A
C391   O433    1.281   .     A
C391   C400    1.411   .     S
C392   O434    1.281   .     A
C392   O435    1.280   .     A
C392   C399    1.411   .     S
C393   C418    1.397   .     A
C393   H425    1.084   .     S
C393   C1121   1.394   1_554 S
C394   H426    1.084   .     S
C394   C417    1.397   .     A
C394   C1122   1.394   .     S
C395   H465    1.084   .     S
C395   C400    1.396   .     A
C396   C399    1.396   .     A
C396   H466    1.084   .     S
C396   C242    1.370   1_655 S
C397   H467    1.084   .     S
C397   C399    1.395   .     A
C397   C239    1.370   1_655 S
C398   H468    1.084   .     S
C398   C400    1.395   .     A
C401   N432    1.367   .     A
C401   H427    1.082   .     S
C402   N431    1.367   .     A
C402   H428    1.082   .     S
C402   C637    1.417   .     S
C403   N432    1.367   .     A
C403   H429    1.082   .     S
C404   N431    1.367   .     A
C404   H430    1.082   .     S
C404   C635    1.417   .     S
C405   O437    1.282   .     A
C405   O440    1.282   .     A
C405   C410    1.415   .     S
C406   O438    1.282   .     A
C406   O439    1.282   .     A
C406   C409    1.415   .     S
C407   C417    1.383   .     A
C407   H421    1.086   .     S
C407   C409    1.386   .     A
C408   C418    1.383   .     A
C408   H422    1.086   .     S
C408   C410    1.386   .     A
C409   C411    1.388   .     A
C410   C412    1.388   .     A
C411   H423    1.083   .     S
C411   C413    1.392   .     A
C412   H424    1.083   .     S
C412   C414    1.392   .     A
C413   C419    1.416   .     A
C413   C415    1.421   .     A
C414   C416    1.421   .     A
C414   C420    1.416   .     A
C415   C417    1.413   .     A
C415   C1118   1.392   .     S
C416   C418    1.413   .     A
C416   C1117   1.392   1_554 S
C419   C443    1.487   .     S
C419   C1095   1.394   .     S
C420   C454    1.487   .     S
C420   C1096   1.394   1_554 S
N431   Zn441   2.010   .     S
N432   Zn442   2.010   .     S
O433   Zn441   1.990   .     S
O434   Zn442   1.990   .     S
O435   Zn441   1.988   .     S
O436   Zn442   1.988   .     S
O437   Zn441   1.999   .     S
O438   Zn442   1.999   .     S
O439   Zn441   2.003   .     S
O440   Zn442   2.003   .     S
C443   C444    1.407   .     A
C443   C448    1.405   .     A
C444   H449    1.083   .     S
C445   C446    1.397   .     A
C445   H450    1.082   .     S
C445   C288    1.398   1_655 S
C446   C447    1.398   .     A
C446   H451    1.083   .     S
C447   H452    1.082   .     S
C447   C292    1.399   1_655 S
C448   H453    1.083   .     S
C454   C459    1.407   .     A
C454   C455    1.405   .     A
C455   H460    1.083   .     S
C455   C300    1.399   1_655 S
C456   C457    1.398   .     A
C456   H461    1.082   .     S
C457   H462    1.083   .     S
C457   C458    1.397   .     A
C458   H463    1.082   .     S
C459   H464    1.083   .     S
C459   C302    1.398   1_655 S
C469   O514    1.280   .     A
C469   O511    1.281   .     A
C469   C478    1.411   .     S
C470   O512    1.281   .     A
C470   O513    1.280   .     A
C470   C477    1.411   .     S
C471   C496    1.397   .     A
C471   H503    1.084   .     S
C471   C1199   1.394   1_554 S
C472   H504    1.084   .     S
C472   C495    1.397   .     A
C472   C1200   1.394   .     S
C473   H543    1.084   .     S
C473   C478    1.396   .     A
C473   C631    1.370   1_455 S
C474   C477    1.396   .     A
C474   H544    1.084   .     S
C474   C554    1.370   .     S
C475   H545    1.084   .     S
C475   C477    1.395   .     A
C475   C551    1.370   .     S
C476   H546    1.084   .     S
C476   C478    1.395   .     A
C476   C630    1.370   1_455 S
C479   N510    1.367   .     A
C479   H505    1.082   .     S
C480   N509    1.367   .     A
C480   H506    1.082   .     S
C480   C13     1.417   1_565 S
C481   N510    1.367   .     A
C481   H507    1.082   .     S
C482   N509    1.367   .     A
C482   H508    1.082   .     S
C482   C11     1.417   1_565 S
C483   O515    1.282   .     A
C483   O518    1.282   .     A
C483   C488    1.415   .     S
C484   O516    1.282   .     A
C484   O517    1.282   .     A
C484   C487    1.415   .     S
C485   C495    1.383   .     A
C485   H499    1.086   .     S
C485   C487    1.386   .     A
C486   C496    1.383   .     A
C486   H500    1.086   .     S
C486   C488    1.386   .     A
C487   C489    1.388   .     A
C488   C490    1.388   .     A
C489   H501    1.083   .     S
C489   C491    1.392   .     A
C490   H502    1.083   .     S
C490   C492    1.392   .     A
C491   C497    1.416   .     A
C491   C493    1.421   .     A
C492   C494    1.421   .     A
C492   C498    1.416   .     A
C493   C495    1.413   .     A
C493   C1196   1.392   .     S
C494   C496    1.413   .     A
C494   C1195   1.392   1_554 S
C497   C521    1.487   .     S
C497   C1173   1.394   .     S
C498   C532    1.487   .     S
C498   C1174   1.394   1_554 S
N509   Zn519   2.010   .     S
N510   Zn520   2.010   .     S
O511   Zn519   1.990   .     S
O512   Zn520   1.990   .     S
O513   Zn519   1.988   .     S
O514   Zn520   1.988   .     S
O515   Zn519   1.999   .     S
O516   Zn520   1.999   .     S
O517   Zn519   2.003   .     S
O518   Zn520   2.003   .     S
C521   C522    1.407   .     A
C521   C526    1.405   .     A
C522   H527    1.083   .     S
C522   C679    1.398   1_455 S
C523   C524    1.397   .     A
C523   H528    1.082   .     S
C523   C600    1.398   .     S
C524   C525    1.398   .     A
C524   H529    1.083   .     S
C525   H530    1.082   .     S
C525   C604    1.399   .     S
C526   H531    1.083   .     S
C526   C681    1.399   1_455 S
C532   C537    1.407   .     A
C532   C533    1.405   .     A
C533   H538    1.083   .     S
C533   C612    1.399   .     S
C534   C535    1.398   .     A
C534   H539    1.082   .     S
C534   C689    1.399   1_455 S
C535   H540    1.083   .     S
C535   C536    1.397   .     A
C536   H541    1.082   .     S
C536   C693    1.398   1_455 S
C537   H542    1.083   .     S
C537   C614    1.398   .     S
C547   O592    1.280   .     A
C547   O589    1.281   .     A
C547   C556    1.411   .     S
C548   O590    1.281   .     A
C548   O591    1.280   .     A
C548   C555    1.411   .     S
C549   C574    1.397   .     A
C549   H581    1.084   .     S
C549   C1277   1.394   1_554 S
C550   H582    1.084   .     S
C550   C573    1.397   .     A
C550   C1278   1.394   .     S
C551   H621    1.084   .     S
C551   C556    1.396   .     A
C552   C555    1.396   .     A
C552   H622    1.084   .     S
C552   C632    1.370   .     S
C553   H623    1.084   .     S
C553   C555    1.395   .     A
C553   C629    1.370   .     S
C554   H624    1.084   .     S
C554   C556    1.395   .     A
C557   N588    1.367   .     A
C557   H583    1.082   .     S
C558   N587    1.367   .     A
C558   H584    1.082   .     S
C558   C91     1.417   1_565 S
C559   N588    1.367   .     A
C559   H585    1.082   .     S
C560   N587    1.367   .     A
C560   H586    1.082   .     S
C560   C89     1.417   1_565 S
C561   O593    1.282   .     A
C561   O596    1.282   .     A
C561   C566    1.415   .     S
C562   O594    1.282   .     A
C562   O595    1.282   .     A
C562   C565    1.415   .     S
C563   C573    1.383   .     A
C563   H577    1.086   .     S
C563   C565    1.386   .     A
C564   C574    1.383   .     A
C564   H578    1.086   .     S
C564   C566    1.386   .     A
C565   C567    1.388   .     A
C566   C568    1.388   .     A
C567   H579    1.083   .     S
C567   C569    1.392   .     A
C568   H580    1.083   .     S
C568   C570    1.392   .     A
C569   C575    1.416   .     A
C569   C571    1.421   .     A
C570   C572    1.421   .     A
C570   C576    1.416   .     A
C571   C573    1.413   .     A
C571   C1274   1.392   .     S
C572   C574    1.413   .     A
C572   C1273   1.392   1_554 S
C575   C599    1.487   .     S
C575   C1251   1.394   .     S
C576   C610    1.487   .     S
C576   C1252   1.394   1_554 S
N587   Zn597   2.010   .     S
N588   Zn598   2.010   .     S
O589   Zn597   1.990   .     S
O590   Zn598   1.990   .     S
O591   Zn597   1.988   .     S
O592   Zn598   1.988   .     S
O593   Zn597   1.999   .     S
O594   Zn598   1.999   .     S
O595   Zn597   2.003   .     S
O596   Zn598   2.003   .     S
C599   C600    1.407   .     A
C599   C604    1.405   .     A
C600   H605    1.083   .     S
C601   C602    1.397   .     A
C601   H606    1.082   .     S
C601   C678    1.398   .     S
C602   C603    1.398   .     A
C602   H607    1.083   .     S
C603   H608    1.082   .     S
C603   C682    1.399   .     S
C604   H609    1.083   .     S
C610   C615    1.407   .     A
C610   C611    1.405   .     A
C611   H616    1.083   .     S
C611   C690    1.399   .     S
C612   C613    1.398   .     A
C612   H617    1.082   .     S
C613   H618    1.083   .     S
C613   C614    1.397   .     A
C614   H619    1.082   .     S
C615   H620    1.083   .     S
C615   C692    1.398   .     S
C625   O670    1.280   .     A
C625   O667    1.281   .     A
C625   C634    1.411   .     S
C626   O668    1.281   .     A
C626   O669    1.280   .     A
C626   C633    1.411   .     S
C627   C652    1.397   .     A
C627   H659    1.084   .     S
C627   C1355   1.394   1_554 S
C628   H660    1.084   .     S
C628   C651    1.397   .     A
C628   C1356   1.394   .     S
C629   H699    1.084   .     S
C629   C634    1.396   .     A
C630   C633    1.396   .     A
C630   H700    1.084   .     S
C630   C476    1.370   1_655 S
C631   H701    1.084   .     S
C631   C633    1.395   .     A
C631   C473    1.370   1_655 S
C632   H702    1.084   .     S
C632   C634    1.395   .     A
C635   N666    1.367   .     A
C635   H661    1.082   .     S
C636   N665    1.367   .     A
C636   H662    1.082   .     S
C636   C169    1.417   1_565 S
C637   N666    1.367   .     A
C637   H663    1.082   .     S
C638   N665    1.367   .     A
C638   H664    1.082   .     S
C638   C167    1.417   1_565 S
C639   O671    1.282   .     A
C639   O674    1.282   .     A
C639   C644    1.415   .     S
C640   O672    1.282   .     A
C640   O673    1.282   .     A
C640   C643    1.415   .     S
C641   C651    1.383   .     A
C641   H655    1.086   .     S
C641   C643    1.386   .     A
C642   C652    1.383   .     A
C642   H656    1.086   .     S
C642   C644    1.386   .     A
C643   C645    1.388   .     A
C644   C646    1.388   .     A
C645   H657    1.083   .     S
C645   C647    1.392   .     A
C646   H658    1.083   .     S
C646   C648    1.392   .     A
C647   C653    1.416   .     A
C647   C649    1.421   .     A
C648   C650    1.421   .     A
C648   C654    1.416   .     A
C649   C651    1.413   .     A
C649   C1352   1.392   .     S
C650   C652    1.413   .     A
C650   C1351   1.392   1_554 S
C653   C677    1.487   .     S
C653   C1329   1.394   .     S
C654   C688    1.487   .     S
C654   C1330   1.394   1_554 S
N665   Zn675   2.010   .     S
N666   Zn676   2.010   .     S
O667   Zn675   1.990   .     S
O668   Zn676   1.990   .     S
O669   Zn675   1.988   .     S
O670   Zn676   1.988   .     S
O671   Zn675   1.999   .     S
O672   Zn676   1.999   .     S
O673   Zn675   2.003   .     S
O674   Zn676   2.003   .     S
C677   C678    1.407   .     A
C677   C682    1.405   .     A
C678   H683    1.083   .     S
C679   C680    1.397   .     A
C679   H684    1.082   .     S
C679   C522    1.398   1_655 S
C680   C681    1.398   .     A
C680   H685    1.083   .     S
C681   H686    1.082   .     S
C681   C526    1.399   1_655 S
C682   H687    1.083   .     S
C688   C693    1.407   .     A
C688   C689    1.405   .     A
C689   H694    1.083   .     S
C689   C534    1.399   1_655 S
C690   C691    1.398   .     A
C690   H695    1.082   .     S
C691   H696    1.083   .     S
C691   C692    1.397   .     A
C692   H697    1.082   .     S
C693   H698    1.083   .     S
C693   C536    1.398   1_655 S
C703   O748    1.280   .     A
C703   O745    1.281   .     A
C703   C712    1.411   .     S
C704   O746    1.281   .     A
C704   O747    1.280   .     A
C704   C711    1.411   .     S
C705   C730    1.397   .     A
C705   H737    1.084   .     S
C706   H738    1.084   .     S
C706   C729    1.397   .     A
C706   C30     1.394   1_556 S
C707   H777    1.084   .     S
C707   C712    1.396   .     A
C707   C865    1.370   1_455 S
C708   C711    1.396   .     A
C708   H778    1.084   .     S
C708   C788    1.370   .     S
C709   H779    1.084   .     S
C709   C711    1.395   .     A
C709   C785    1.370   .     S
C710   H780    1.084   .     S
C710   C712    1.395   .     A
C710   C864    1.370   1_455 S
C713   N744    1.367   .     A
C713   H739    1.082   .     S
C713   C1184   1.417   1_545 S
C714   N743    1.367   .     A
C714   H740    1.082   .     S
C714   C949    1.417   .     S
C715   N744    1.367   .     A
C715   H741    1.082   .     S
C715   C1182   1.417   1_545 S
C716   N743    1.367   .     A
C716   H742    1.082   .     S
C716   C947    1.417   .     S
C717   O749    1.282   .     A
C717   O752    1.282   .     A
C717   C722    1.415   .     S
C718   O750    1.282   .     A
C718   O751    1.282   .     A
C718   C721    1.415   .     S
C719   C729    1.383   .     A
C719   H733    1.086   .     S
C719   C721    1.386   .     A
C720   C730    1.383   .     A
C720   H734    1.086   .     S
C720   C722    1.386   .     A
C721   C723    1.388   .     A
C722   C724    1.388   .     A
C723   H735    1.083   .     S
C723   C725    1.392   .     A
C724   H736    1.083   .     S
C724   C726    1.392   .     A
C725   C731    1.416   .     A
C725   C727    1.421   .     A
C726   C728    1.421   .     A
C726   C732    1.416   .     A
C727   C729    1.413   .     A
C727   C26     1.392   1_556 S
C728   C730    1.413   .     A
C731   C755    1.487   .     S
C731   C3      1.394   1_556 S
C732   C766    1.487   .     S
N743   Zn753   2.010   .     S
N744   Zn754   2.010   .     S
O745   Zn753   1.990   .     S
O746   Zn754   1.990   .     S
O747   Zn753   1.988   .     S
O748   Zn754   1.988   .     S
O749   Zn753   1.999   .     S
O750   Zn754   1.999   .     S
O751   Zn753   2.003   .     S
O752   Zn754   2.003   .     S
C755   C756    1.407   .     A
C755   C760    1.405   .     A
C756   H761    1.083   .     S
C756   C913    1.398   1_455 S
C757   C758    1.397   .     A
C757   H762    1.082   .     S
C757   C834    1.398   .     S
C758   C759    1.398   .     A
C758   H763    1.083   .     S
C759   H764    1.082   .     S
C759   C838    1.399   .     S
C760   H765    1.083   .     S
C760   C915    1.399   1_455 S
C766   C771    1.407   .     A
C766   C767    1.405   .     A
C767   H772    1.083   .     S
C767   C846    1.399   .     S
C768   C769    1.398   .     A
C768   H773    1.082   .     S
C768   C923    1.399   1_455 S
C769   H774    1.083   .     S
C769   C770    1.397   .     A
C770   H775    1.082   .     S
C770   C927    1.398   1_455 S
C771   H776    1.083   .     S
C771   C848    1.398   .     S
C781   O826    1.280   .     A
C781   O823    1.281   .     A
C781   C790    1.411   .     S
C782   O824    1.281   .     A
C782   O825    1.280   .     A
C782   C789    1.411   .     S
C783   C808    1.397   .     A
C783   H815    1.084   .     S
C784   H816    1.084   .     S
C784   C807    1.397   .     A
C784   C108    1.394   1_556 S
C785   H855    1.084   .     S
C785   C790    1.396   .     A
C786   C789    1.396   .     A
C786   H856    1.084   .     S
C786   C866    1.370   .     S
C787   H857    1.084   .     S
C787   C789    1.395   .     A
C787   C863    1.370   .     S
C788   H858    1.084   .     S
C788   C790    1.395   .     A
C791   N822    1.367   .     A
C791   H817    1.082   .     S
C791   C1262   1.417   1_545 S
C792   N821    1.367   .     A
C792   H818    1.082   .     S
C792   C1027   1.417   .     S
C793   N822    1.367   .     A
C793   H819    1.082   .     S
C793   C1260   1.417   1_545 S
C794   N821    1.367   .     A
C794   H820    1.082   .     S
C794   C1025   1.417   .     S
C795   O827    1.282   .     A
C795   O830    1.282   .     A
C795   C800    1.415   .     S
C796   O828    1.282   .     A
C796   O829    1.282   .     A
C796   C799    1.415   .     S
C797   C807    1.383   .     A
C797   H811    1.086   .     S
C797   C799    1.386   .     A
C798   C808    1.383   .     A
C798   H812    1.086   .     S
C798   C800    1.386   .     A
C799   C801    1.388   .     A
C800   C802    1.388   .     A
C801   H813    1.083   .     S
C801   C803    1.392   .     A
C802   H814    1.083   .     S
C802   C804    1.392   .     A
C803   C809    1.416   .     A
C803   C805    1.421   .     A
C804   C806    1.421   .     A
C804   C810    1.416   .     A
C805   C807    1.413   .     A
C805   C104    1.392   1_556 S
C806   C808    1.413   .     A
C809   C833    1.487   .     S
C809   C81     1.394   1_556 S
C810   C844    1.487   .     S
N821   Zn831   2.010   .     S
N822   Zn832   2.010   .     S
O823   Zn831   1.990   .     S
O824   Zn832   1.990   .     S
O825   Zn831   1.988   .     S
O826   Zn832   1.988   .     S
O827   Zn831   1.999   .     S
O828   Zn832   1.999   .     S
O829   Zn831   2.003   .     S
O830   Zn832   2.003   .     S
C833   C834    1.407   .     A
C833   C838    1.405   .     A
C834   H839    1.083   .     S
C835   C836    1.397   .     A
C835   H840    1.082   .     S
C835   C912    1.398   .     S
C836   C837    1.398   .     A
C836   H841    1.083   .     S
C837   H842    1.082   .     S
C837   C916    1.399   .     S
C838   H843    1.083   .     S
C844   C849    1.407   .     A
C844   C845    1.405   .     A
C845   H850    1.083   .     S
C845   C924    1.399   .     S
C846   C847    1.398   .     A
C846   H851    1.082   .     S
C847   H852    1.083   .     S
C847   C848    1.397   .     A
C848   H853    1.082   .     S
C849   H854    1.083   .     S
C849   C926    1.398   .     S
C859   O904    1.280   .     A
C859   O901    1.281   .     A
C859   C868    1.411   .     S
C860   O902    1.281   .     A
C860   O903    1.280   .     A
C860   C867    1.411   .     S
C861   C886    1.397   .     A
C861   H893    1.084   .     S
C862   H894    1.084   .     S
C862   C885    1.397   .     A
C862   C186    1.394   1_556 S
C863   H933    1.084   .     S
C863   C868    1.396   .     A
C864   C867    1.396   .     A
C864   H934    1.084   .     S
C864   C710    1.370   1_655 S
C865   H935    1.084   .     S
C865   C867    1.395   .     A
C865   C707    1.370   1_655 S
C866   H936    1.084   .     S
C866   C868    1.395   .     A
C869   N900    1.367   .     A
C869   H895    1.082   .     S
C869   C1340   1.417   1_545 S
C870   N899    1.367   .     A
C870   H896    1.082   .     S
C870   C1105   1.417   .     S
C871   N900    1.367   .     A
C871   H897    1.082   .     S
C871   C1338   1.417   1_545 S
C872   N899    1.367   .     A
C872   H898    1.082   .     S
C872   C1103   1.417   .     S
C873   O905    1.282   .     A
C873   O908    1.282   .     A
C873   C878    1.415   .     S
C874   O906    1.282   .     A
C874   O907    1.282   .     A
C874   C877    1.415   .     S
C875   C885    1.383   .     A
C875   H889    1.086   .     S
C875   C877    1.386   .     A
C876   C886    1.383   .     A
C876   H890    1.086   .     S
C876   C878    1.386   .     A
C877   C879    1.388   .     A
C878   C880    1.388   .     A
C879   H891    1.083   .     S
C879   C881    1.392   .     A
C880   H892    1.083   .     S
C880   C882    1.392   .     A
C881   C887    1.416   .     A
C881   C883    1.421   .     A
C882   C884    1.421   .     A
C882   C888    1.416   .     A
C883   C885    1.413   .     A
C883   C182    1.392   1_556 S
C884   C886    1.413   .     A
C887   C911    1.487   .     S
C887   C159    1.394   1_556 S
C888   C922    1.487   .     S
N899   Zn909   2.010   .     S
N900   Zn910   2.010   .     S
O901   Zn909   1.990   .     S
O902   Zn910   1.990   .     S
O903   Zn909   1.988   .     S
O904   Zn910   1.988   .     S
O905   Zn909   1.999   .     S
O906   Zn910   1.999   .     S
O907   Zn909   2.003   .     S
O908   Zn910   2.003   .     S
C911   C912    1.407   .     A
C911   C916    1.405   .     A
C912   H917    1.083   .     S
C913   C914    1.397   .     A
C913   H918    1.082   .     S
C913   C756    1.398   1_655 S
C914   C915    1.398   .     A
C914   H919    1.083   .     S
C915   H920    1.082   .     S
C915   C760    1.399   1_655 S
C916   H921    1.083   .     S
C922   C927    1.407   .     A
C922   C923    1.405   .     A
C923   H928    1.083   .     S
C923   C768    1.399   1_655 S
C924   C925    1.398   .     A
C924   H929    1.082   .     S
C925   H930    1.083   .     S
C925   C926    1.397   .     A
C926   H931    1.082   .     S
C927   H932    1.083   .     S
C927   C770    1.398   1_655 S
C937   O982    1.280   .     A
C937   O979    1.281   .     A
C937   C946    1.411   .     S
C938   O980    1.281   .     A
C938   O981    1.280   .     A
C938   C945    1.411   .     S
C939   C964    1.397   .     A
C939   H971    1.084   .     S
C940   H972    1.084   .     S
C940   C963    1.397   .     A
C940   C264    1.394   1_556 S
C941   H1011   1.084   .     S
C941   C946    1.396   .     A
C941   C1099   1.370   1_455 S
C942   C945    1.396   .     A
C942   H1012   1.084   .     S
C942   C1022   1.370   .     S
C943   H1013   1.084   .     S
C943   C945    1.395   .     A
C943   C1019   1.370   .     S
C944   H1014   1.084   .     S
C944   C946    1.395   .     A
C944   C1098   1.370   1_455 S
C947   N978    1.367   .     A
C947   H973    1.082   .     S
C948   N977    1.367   .     A
C948   H974    1.082   .     S
C948   C1183   1.417   .     S
C949   N978    1.367   .     A
C949   H975    1.082   .     S
C950   N977    1.367   .     A
C950   H976    1.082   .     S
C950   C1181   1.417   .     S
C951   O983    1.282   .     A
C951   O986    1.282   .     A
C951   C956    1.415   .     S
C952   O984    1.282   .     A
C952   O985    1.282   .     A
C952   C955    1.415   .     S
C953   C963    1.383   .     A
C953   H967    1.086   .     S
C953   C955    1.386   .     A
C954   C964    1.383   .     A
C954   H968    1.086   .     S
C954   C956    1.386   .     A
C955   C957    1.388   .     A
C956   C958    1.388   .     A
C957   H969    1.083   .     S
C957   C959    1.392   .     A
C958   H970    1.083   .     S
C958   C960    1.392   .     A
C959   C965    1.416   .     A
C959   C961    1.421   .     A
C960   C962    1.421   .     A
C960   C966    1.416   .     A
C961   C963    1.413   .     A
C961   C260    1.392   1_556 S
C962   C964    1.413   .     A
C965   C989    1.487   .     S
C965   C237    1.394   1_556 S
C966   C1000   1.487   .     S
N977   Zn987   2.010   .     S
N978   Zn988   2.010   .     S
O979   Zn987   1.990   .     S
O980   Zn988   1.990   .     S
O981   Zn987   1.988   .     S
O982   Zn988   1.988   .     S
O983   Zn987   1.999   .     S
O984   Zn988   1.999   .     S
O985   Zn987   2.003   .     S
O986   Zn988   2.003   .     S
C989   C990    1.407   .     A
C989   C994    1.405   .     A
C990   H995    1.083   .     S
C990   C1147   1.398   1_455 S
C991   C992    1.397   .     A
C991   H996    1.082   .     S
C991   C1068   1.398   .     S
C992   C993    1.398   .     A
C992   H997    1.083   .     S
C993   H998    1.082   .     S
C993   C1072   1.399   .     S
C994   H999    1.083   .     S
C994   C1149   1.399   1_455 S
C1000  C1005   1.407   .     A
C1000  C1001   1.405   .     A
C1001  H1006   1.083   .     S
C1001  C1080   1.399   .     S
C1002  C1003   1.398   .     A
C1002  H1007   1.082   .     S
C1002  C1157   1.399   1_455 S
C1003  H1008   1.083   .     S
C1003  C1004   1.397   .     A
C1004  H1009   1.082   .     S
C1004  C1161   1.398   1_455 S
C1005  H1010   1.083   .     S
C1005  C1082   1.398   .     S
C1015  O1060   1.280   .     A
C1015  O1057   1.281   .     A
C1015  C1024   1.411   .     S
C1016  O1058   1.281   .     A
C1016  O1059   1.280   .     A
C1016  C1023   1.411   .     S
C1017  C1042   1.397   .     A
C1017  H1049   1.084   .     S
C1018  H1050   1.084   .     S
C1018  C1041   1.397   .     A
C1018  C342    1.394   1_556 S
C1019  H1089   1.084   .     S
C1019  C1024   1.396   .     A
C1020  C1023   1.396   .     A
C1020  H1090   1.084   .     S
C1020  C1100   1.370   .     S
C1021  H1091   1.084   .     S
C1021  C1023   1.395   .     A
C1021  C1097   1.370   .     S
C1022  H1092   1.084   .     S
C1022  C1024   1.395   .     A
C1025  N1056   1.367   .     A
C1025  H1051   1.082   .     S
C1026  N1055   1.367   .     A
C1026  H1052   1.082   .     S
C1026  C1261   1.417   .     S
C1027  N1056   1.367   .     A
C1027  H1053   1.082   .     S
C1028  N1055   1.367   .     A
C1028  H1054   1.082   .     S
C1028  C1259   1.417   .     S
C1029  O1061   1.282   .     A
C1029  O1064   1.282   .     A
C1029  C1034   1.415   .     S
C1030  O1062   1.282   .     A
C1030  O1063   1.282   .     A
C1030  C1033   1.415   .     S
C1031  C1041   1.383   .     A
C1031  H1045   1.086   .     S
C1031  C1033   1.386   .     A
C1032  C1042   1.383   .     A
C1032  H1046   1.086   .     S
C1032  C1034   1.386   .     A
C1033  C1035   1.388   .     A
C1034  C1036   1.388   .     A
C1035  H1047   1.083   .     S
C1035  C1037   1.392   .     A
C1036  H1048   1.083   .     S
C1036  C1038   1.392   .     A
C1037  C1043   1.416   .     A
C1037  C1039   1.421   .     A
C1038  C1040   1.421   .     A
C1038  C1044   1.416   .     A
C1039  C1041   1.413   .     A
C1039  C338    1.392   1_556 S
C1040  C1042   1.413   .     A
C1043  C1067   1.487   .     S
C1043  C315    1.394   1_556 S
C1044  C1078   1.487   .     S
N1055  Zn1065  2.010   .     S
N1056  Zn1066  2.010   .     S
O1057  Zn1065  1.990   .     S
O1058  Zn1066  1.990   .     S
O1059  Zn1065  1.988   .     S
O1060  Zn1066  1.988   .     S
O1061  Zn1065  1.999   .     S
O1062  Zn1066  1.999   .     S
O1063  Zn1065  2.003   .     S
O1064  Zn1066  2.003   .     S
C1067  C1068   1.407   .     A
C1067  C1072   1.405   .     A
C1068  H1073   1.083   .     S
C1069  C1070   1.397   .     A
C1069  H1074   1.082   .     S
C1069  C1146   1.398   .     S
C1070  C1071   1.398   .     A
C1070  H1075   1.083   .     S
C1071  H1076   1.082   .     S
C1071  C1150   1.399   .     S
C1072  H1077   1.083   .     S
C1078  C1083   1.407   .     A
C1078  C1079   1.405   .     A
C1079  H1084   1.083   .     S
C1079  C1158   1.399   .     S
C1080  C1081   1.398   .     A
C1080  H1085   1.082   .     S
C1081  H1086   1.083   .     S
C1081  C1082   1.397   .     A
C1082  H1087   1.082   .     S
C1083  H1088   1.083   .     S
C1083  C1160   1.398   .     S
C1093  O1138   1.280   .     A
C1093  O1135   1.281   .     A
C1093  C1102   1.411   .     S
C1094  O1136   1.281   .     A
C1094  O1137   1.280   .     A
C1094  C1101   1.411   .     S
C1095  C1120   1.397   .     A
C1095  H1127   1.084   .     S
C1096  H1128   1.084   .     S
C1096  C1119   1.397   .     A
C1096  C420    1.394   1_556 S
C1097  H1167   1.084   .     S
C1097  C1102   1.396   .     A
C1098  C1101   1.396   .     A
C1098  H1168   1.084   .     S
C1098  C944    1.370   1_655 S
C1099  H1169   1.084   .     S
C1099  C1101   1.395   .     A
C1099  C941    1.370   1_655 S
C1100  H1170   1.084   .     S
C1100  C1102   1.395   .     A
C1103  N1134   1.367   .     A
C1103  H1129   1.082   .     S
C1104  N1133   1.367   .     A
C1104  H1130   1.082   .     S
C1104  C1339   1.417   .     S
C1105  N1134   1.367   .     A
C1105  H1131   1.082   .     S
C1106  N1133   1.367   .     A
C1106  H1132   1.082   .     S
C1106  C1337   1.417   .     S
C1107  O1139   1.282   .     A
C1107  O1142   1.282   .     A
C1107  C1112   1.415   .     S
C1108  O1140   1.282   .     A
C1108  O1141   1.282   .     A
C1108  C1111   1.415   .     S
C1109  C1119   1.383   .     A
C1109  H1123   1.086   .     S
C1109  C1111   1.386   .     A
C1110  C1120   1.383   .     A
C1110  H1124   1.086   .     S
C1110  C1112   1.386   .     A
C1111  C1113   1.388   .     A
C1112  C1114   1.388   .     A
C1113  H1125   1.083   .     S
C1113  C1115   1.392   .     A
C1114  H1126   1.083   .     S
C1114  C1116   1.392   .     A
C1115  C1121   1.416   .     A
C1115  C1117   1.421   .     A
C1116  C1118   1.421   .     A
C1116  C1122   1.416   .     A
C1117  C1119   1.413   .     A
C1117  C416    1.392   1_556 S
C1118  C1120   1.413   .     A
C1121  C1145   1.487   .     S
C1121  C393    1.394   1_556 S
C1122  C1156   1.487   .     S
N1133  Zn1143  2.010   .     S
N1134  Zn1144  2.010   .     S
O1135  Zn1143  1.990   .     S
O1136  Zn1144  1.990   .     S
O1137  Zn1143  1.988   .     S
O1138  Zn1144  1.988   .     S
O1139  Zn1143  1.999   .     S
O1140  Zn1144  1.999   .     S
O1141  Zn1143  2.003   .     S
O1142  Zn1144  2.003   .     S
C1145  C1146   1.407   .     A
C1145  C1150   1.405   .     A
C1146  H1151   1.083   .     S
C1147  C1148   1.397   .     A
C1147  H1152   1.082   .     S
C1147  C990    1.398   1_655 S
C1148  C1149   1.398   .     A
C1148  H1153   1.083   .     S
C1149  H1154   1.082   .     S
C1149  C994    1.399   1_655 S
C1150  H1155   1.083   .     S
C1156  C1161   1.407   .     A
C1156  C1157   1.405   .     A
C1157  H1162   1.083   .     S
C1157  C1002   1.399   1_655 S
C1158  C1159   1.398   .     A
C1158  H1163   1.082   .     S
C1159  H1164   1.083   .     S
C1159  C1160   1.397   .     A
C1160  H1165   1.082   .     S
C1161  H1166   1.083   .     S
C1161  C1004   1.398   1_655 S
C1171  O1216   1.280   .     A
C1171  O1213   1.281   .     A
C1171  C1180   1.411   .     S
C1172  O1214   1.281   .     A
C1172  O1215   1.280   .     A
C1172  C1179   1.411   .     S
C1173  C1198   1.397   .     A
C1173  H1205   1.084   .     S
C1174  H1206   1.084   .     S
C1174  C1197   1.397   .     A
C1174  C498    1.394   1_556 S
C1175  H1245   1.084   .     S
C1175  C1180   1.396   .     A
C1175  C1333   1.370   1_455 S
C1176  C1179   1.396   .     A
C1176  H1246   1.084   .     S
C1176  C1256   1.370   .     S
C1177  H1247   1.084   .     S
C1177  C1179   1.395   .     A
C1177  C1253   1.370   .     S
C1178  H1248   1.084   .     S
C1178  C1180   1.395   .     A
C1178  C1332   1.370   1_455 S
C1181  N1212   1.367   .     A
C1181  H1207   1.082   .     S
C1182  N1211   1.367   .     A
C1182  H1208   1.082   .     S
C1182  C715    1.417   1_565 S
C1183  N1212   1.367   .     A
C1183  H1209   1.082   .     S
C1184  N1211   1.367   .     A
C1184  H1210   1.082   .     S
C1184  C713    1.417   1_565 S
C1185  O1217   1.282   .     A
C1185  O1220   1.282   .     A
C1185  C1190   1.415   .     S
C1186  O1218   1.282   .     A
C1186  O1219   1.282   .     A
C1186  C1189   1.415   .     S
C1187  C1197   1.383   .     A
C1187  H1201   1.086   .     S
C1187  C1189   1.386   .     A
C1188  C1198   1.383   .     A
C1188  H1202   1.086   .     S
C1188  C1190   1.386   .     A
C1189  C1191   1.388   .     A
C1190  C1192   1.388   .     A
C1191  H1203   1.083   .     S
C1191  C1193   1.392   .     A
C1192  H1204   1.083   .     S
C1192  C1194   1.392   .     A
C1193  C1199   1.416   .     A
C1193  C1195   1.421   .     A
C1194  C1196   1.421   .     A
C1194  C1200   1.416   .     A
C1195  C1197   1.413   .     A
C1195  C494    1.392   1_556 S
C1196  C1198   1.413   .     A
C1199  C1223   1.487   .     S
C1199  C471    1.394   1_556 S
C1200  C1234   1.487   .     S
N1211  Zn1221  2.010   .     S
N1212  Zn1222  2.010   .     S
O1213  Zn1221  1.990   .     S
O1214  Zn1222  1.990   .     S
O1215  Zn1221  1.988   .     S
O1216  Zn1222  1.988   .     S
O1217  Zn1221  1.999   .     S
O1218  Zn1222  1.999   .     S
O1219  Zn1221  2.003   .     S
O1220  Zn1222  2.003   .     S
C1223  C1224   1.407   .     A
C1223  C1228   1.405   .     A
C1224  H1229   1.083   .     S
C1224  C1381   1.398   1_455 S
C1225  C1226   1.397   .     A
C1225  H1230   1.082   .     S
C1225  C1302   1.398   .     S
C1226  C1227   1.398   .     A
C1226  H1231   1.083   .     S
C1227  H1232   1.082   .     S
C1227  C1306   1.399   .     S
C1228  H1233   1.083   .     S
C1228  C1383   1.399   1_455 S
C1234  C1239   1.407   .     A
C1234  C1235   1.405   .     A
C1235  H1240   1.083   .     S
C1235  C1314   1.399   .     S
C1236  C1237   1.398   .     A
C1236  H1241   1.082   .     S
C1236  C1391   1.399   1_455 S
C1237  H1242   1.083   .     S
C1237  C1238   1.397   .     A
C1238  H1243   1.082   .     S
C1238  C1395   1.398   1_455 S
C1239  H1244   1.083   .     S
C1239  C1316   1.398   .     S
C1249  O1294   1.280   .     A
C1249  O1291   1.281   .     A
C1249  C1258   1.411   .     S
C1250  O1292   1.281   .     A
C1250  O1293   1.280   .     A
C1250  C1257   1.411   .     S
C1251  C1276   1.397   .     A
C1251  H1283   1.084   .     S
C1252  H1284   1.084   .     S
C1252  C1275   1.397   .     A
C1252  C576    1.394   1_556 S
C1253  H1323   1.084   .     S
C1253  C1258   1.396   .     A
C1254  C1257   1.396   .     A
C1254  H1324   1.084   .     S
C1254  C1334   1.370   .     S
C1255  H1325   1.084   .     S
C1255  C1257   1.395   .     A
C1255  C1331   1.370   .     S
C1256  H1326   1.084   .     S
C1256  C1258   1.395   .     A
C1259  N1290   1.367   .     A
C1259  H1285   1.082   .     S
C1260  N1289   1.367   .     A
C1260  H1286   1.082   .     S
C1260  C793    1.417   1_565 S
C1261  N1290   1.367   .     A
C1261  H1287   1.082   .     S
C1262  N1289   1.367   .     A
C1262  H1288   1.082   .     S
C1262  C791    1.417   1_565 S
C1263  O1295   1.282   .     A
C1263  O1298   1.282   .     A
C1263  C1268   1.415   .     S
C1264  O1296   1.282   .     A
C1264  O1297   1.282   .     A
C1264  C1267   1.415   .     S
C1265  C1275   1.383   .     A
C1265  H1279   1.086   .     S
C1265  C1267   1.386   .     A
C1266  C1276   1.383   .     A
C1266  H1280   1.086   .     S
C1266  C1268   1.386   .     A
C1267  C1269   1.388   .     A
C1268  C1270   1.388   .     A
C1269  H1281   1.083   .     S
C1269  C1271   1.392   .     A
C1270  H1282   1.083   .     S
C1270  C1272   1.392   .     A
C1271  C1277   1.416   .     A
C1271  C1273   1.421   .     A
C1272  C1274   1.421   .     A
C1272  C1278   1.416   .     A
C1273  C1275   1.413   .     A
C1273  C572    1.392   1_556 S
C1274  C1276   1.413   .     A
C1277  C1301   1.487   .     S
C1277  C549    1.394   1_556 S
C1278  C1312   1.487   .     S
N1289  Zn1299  2.010   .     S
N1290  Zn1300  2.010   .     S
O1291  Zn1299  1.990   .     S
O1292  Zn1300  1.990   .     S
O1293  Zn1299  1.988   .     S
O1294  Zn1300  1.988   .     S
O1295  Zn1299  1.999   .     S
O1296  Zn1300  1.999   .     S
O1297  Zn1299  2.003   .     S
O1298  Zn1300  2.003   .     S
C1301  C1302   1.407   .     A
C1301  C1306   1.405   .     A
C1302  H1307   1.083   .     S
C1303  C1304   1.397   .     A
C1303  H1308   1.082   .     S
C1303  C1380   1.398   .     S
C1304  C1305   1.398   .     A
C1304  H1309   1.083   .     S
C1305  H1310   1.082   .     S
C1305  C1384   1.399   .     S
C1306  H1311   1.083   .     S
C1312  C1317   1.407   .     A
C1312  C1313   1.405   .     A
C1313  H1318   1.083   .     S
C1313  C1392   1.399   .     S
C1314  C1315   1.398   .     A
C1314  H1319   1.082   .     S
C1315  H1320   1.083   .     S
C1315  C1316   1.397   .     A
C1316  H1321   1.082   .     S
C1317  H1322   1.083   .     S
C1317  C1394   1.398   .     S
C1327  O1372   1.280   .     A
C1327  O1369   1.281   .     A
C1327  C1336   1.411   .     S
C1328  O1370   1.281   .     A
C1328  O1371   1.280   .     A
C1328  C1335   1.411   .     S
C1329  C1354   1.397   .     A
C1329  H1361   1.084   .     S
C1330  H1362   1.084   .     S
C1330  C1353   1.397   .     A
C1330  C654    1.394   1_556 S
C1331  H1401   1.084   .     S
C1331  C1336   1.396   .     A
C1332  C1335   1.396   .     A
C1332  H1402   1.084   .     S
C1332  C1178   1.370   1_655 S
C1333  H1403   1.084   .     S
C1333  C1335   1.395   .     A
C1333  C1175   1.370   1_655 S
C1334  H1404   1.084   .     S
C1334  C1336   1.395   .     A
C1337  N1368   1.367   .     A
C1337  H1363   1.082   .     S
C1338  N1367   1.367   .     A
C1338  H1364   1.082   .     S
C1338  C871    1.417   1_565 S
C1339  N1368   1.367   .     A
C1339  H1365   1.082   .     S
C1340  N1367   1.367   .     A
C1340  H1366   1.082   .     S
C1340  C869    1.417   1_565 S
C1341  O1373   1.282   .     A
C1341  O1376   1.282   .     A
C1341  C1346   1.415   .     S
C1342  O1374   1.282   .     A
C1342  O1375   1.282   .     A
C1342  C1345   1.415   .     S
C1343  C1353   1.383   .     A
C1343  H1357   1.086   .     S
C1343  C1345   1.386   .     A
C1344  C1354   1.383   .     A
C1344  H1358   1.086   .     S
C1344  C1346   1.386   .     A
C1345  C1347   1.388   .     A
C1346  C1348   1.388   .     A
C1347  H1359   1.083   .     S
C1347  C1349   1.392   .     A
C1348  H1360   1.083   .     S
C1348  C1350   1.392   .     A
C1349  C1355   1.416   .     A
C1349  C1351   1.421   .     A
C1350  C1352   1.421   .     A
C1350  C1356   1.416   .     A
C1351  C1353   1.413   .     A
C1351  C650    1.392   1_556 S
C1352  C1354   1.413   .     A
C1355  C1379   1.487   .     S
C1355  C627    1.394   1_556 S
C1356  C1390   1.487   .     S
N1367  Zn1377  2.010   .     S
N1368  Zn1378  2.010   .     S
O1369  Zn1377  1.990   .     S
O1370  Zn1378  1.990   .     S
O1371  Zn1377  1.988   .     S
O1372  Zn1378  1.988   .     S
O1373  Zn1377  1.999   .     S
O1374  Zn1378  1.999   .     S
O1375  Zn1377  2.003   .     S
O1376  Zn1378  2.003   .     S
C1379  C1380   1.407   .     A
C1379  C1384   1.405   .     A
C1380  H1385   1.083   .     S
C1381  C1382   1.397   .     A
C1381  H1386   1.082   .     S
C1381  C1224   1.398   1_655 S
C1382  C1383   1.398   .     A
C1382  H1387   1.083   .     S
C1383  H1388   1.082   .     S
C1383  C1228   1.399   1_655 S
C1384  H1389   1.083   .     S
C1390  C1395   1.407   .     A
C1390  C1391   1.405   .     A
C1391  H1396   1.083   .     S
C1391  C1236   1.399   1_655 S
C1392  C1393   1.398   .     A
C1392  H1397   1.082   .     S
C1393  H1398   1.083   .     S
C1393  C1394   1.397   .     A
C1394  H1399   1.082   .     S
C1395  H1400   1.083   .     S
C1395  C1238   1.398   1_655 S
