data_str_m1_o10_o18_pcu_sym.227
_audit_creation_date              2020-01-03
_audit_creation_method            'Materials Studio'
_symmetry_space_group_name_H-M    'P1'
_symmetry_Int_Tables_number       1
_symmetry_cell_setting            triclinic
loop_
_symmetry_equiv_pos_as_xyz
  x,y,z
_cell_length_a                    32.5150
_cell_length_b                    32.6749
_cell_length_c                    35.5887
_cell_angle_alpha                 98.3972
_cell_angle_beta                  73.1490
_cell_angle_gamma                 98.4110
loop_
_atom_site_label
_atom_site_type_symbol
_atom_site_fract_x
_atom_site_fract_y
_atom_site_fract_z
_atom_site_U_iso_or_equiv
_atom_site_adp_type
_atom_site_occupancy
Br1    Br    0.26767   0.04890   0.02229   0.00000  Uiso   1.00
Br2    Br    0.09769   0.32876   0.30159   0.00000  Uiso   1.00
Br3    Br    0.27023   0.08276   0.44241   0.00000  Uiso   1.00
Br4    Br    0.07534   0.14911   0.09282   0.00000  Uiso   1.00
C5     C     0.05246   0.15988   0.25883   0.00000  Uiso   1.00
C6     C     0.19906   0.12752   0.45895   0.00000  Uiso   1.00
C7     C     0.22147   0.10803   0.47793   0.00000  Uiso   1.00
C8     C     0.28102   0.17354   0.24125   0.00000  Uiso   1.00
C9     C     0.21094   0.11247   0.01973   0.00000  Uiso   1.00
C10    C     0.17760   0.13795   0.04106   0.00000  Uiso   1.00
C11    C     0.23245   0.09400   0.04171   0.00000  Uiso   1.00
C12    C     0.22498   0.10560   0.08225   0.00000  Uiso   1.00
C13    C     0.17442   0.15183   0.08095   0.00000  Uiso   1.00
C14    C     0.32697   0.17618   0.23775   0.00000  Uiso   1.00
C15    C     0.00709   0.15753   0.26228   0.00000  Uiso   1.00
C16    C     0.09570   0.21073   0.42240   0.00000  Uiso   1.00
C17    C     0.17991   0.32207   0.23948   0.00000  Uiso   1.00
C18    C     0.15030   0.01286   0.26288   0.00000  Uiso   1.00
C19    C     0.15650   0.05623   0.25838   0.00000  Uiso   1.00
C20    C     0.17654   0.27763   0.24160   0.00000  Uiso   1.00
C21    C     0.18792   0.14541   0.14401   0.00000  Uiso   1.00
C22    C     0.14529   0.18761   0.35635   0.00000  Uiso   1.00
C23    C     0.13281   0.19231   0.39997   0.00000  Uiso   1.00
C24    C     0.19722   0.13530   0.10144   0.00000  Uiso   1.00
C25    C     0.08181   0.20949   0.46315   0.00000  Uiso   1.00
C26    C     0.15656   0.17441   0.41920   0.00000  Uiso   1.00
C27    C     0.14214   0.17116   0.46016   0.00000  Uiso   1.00
C28    C     0.10416   0.18931   0.48216   0.00000  Uiso   1.00
C29    C     0.16427   0.15043   0.47979   0.00000  Uiso   1.00
C30    C     0.15048   0.15175   0.02153   0.00000  Uiso   1.00
C31    C     0.10940   0.16552   0.04192   0.00000  Uiso   1.00
C32    C     0.08767   0.18536   0.02248   0.00000  Uiso   1.00
F33    F     0.04907   0.19926   0.04283   0.00000  Uiso   1.00
F34    F     0.07191   0.22866   0.40498   0.00000  Uiso   1.00
H35    H     0.01665   0.19332   0.21510   0.00000  Uiso   1.00
H36    H     0.31810   0.14030   0.28519   0.00000  Uiso   1.00
H37    H     0.20774   0.00252   0.21806   0.00000  Uiso   1.00
H38    H     0.15492   0.17643   0.09639   0.00000  Uiso   1.00
H39    H     0.24072   0.09112   0.09907   0.00000  Uiso   1.00
H40    H     0.05268   0.22340   0.47965   0.00000  Uiso   1.00
H41    H     0.18629   0.16316   0.40121   0.00000  Uiso   1.00
H42    H     0.20922   0.12300   0.42720   0.00000  Uiso   1.00
O43    O     0.16667   0.16667   0.25000   0.00000  Uiso   1.00
O44    O     0.15693   0.12393   0.16625   0.00000  Uiso   1.00
O45    O     0.12687   0.20646   0.33749   0.00000  Uiso   1.00
O46    O     0.21088   0.17493   0.15877   0.00000  Uiso   1.00
O47    O     0.17198   0.16135   0.33749   0.00000  Uiso   1.00
O48    O     0.17849   0.08101   0.27821   0.00000  Uiso   1.00
O49    O     0.14581   0.26136   0.26767   0.00000  Uiso   1.00
O50    O     0.07452   0.13251   0.23607   0.00000  Uiso   1.00
O51    O     0.26785   0.19179   0.21806   0.00000  Uiso   1.00
O52    O     0.06990   0.18960   0.27820   0.00000  Uiso   1.00
O53    O     0.25440   0.15277   0.26768   0.00000  Uiso   1.00
O54    O     0.13800   0.06903   0.23607   0.00000  Uiso   1.00
O55    O     0.20437   0.25527   0.21806   0.00000  Uiso   1.00
Zn56   Zn    0.19244   0.14090   0.28278   0.00000  Uiso   1.00
Zn57   Zn    0.13459   0.12378   0.22258   0.00000  Uiso   1.00
Zn58   Zn    0.21166   0.19664   0.21188   0.00000  Uiso   1.00
Zn59   Zn    0.12798   0.20535   0.28277   0.00000  Uiso   1.00
Br60   Br    0.60101   0.04890   0.02229   0.00000  Uiso   1.00
Br61   Br    0.43102   0.32876   0.30159   0.00000  Uiso   1.00
Br62   Br    0.60356   0.08276   0.44241   0.00000  Uiso   1.00
Br63   Br    0.40868   0.14911   0.09282   0.00000  Uiso   1.00
C64    C     0.38580   0.15988   0.25883   0.00000  Uiso   1.00
C65    C     0.53240   0.12752   0.45895   0.00000  Uiso   1.00
C66    C     0.55480   0.10803   0.47793   0.00000  Uiso   1.00
C67    C     0.61435   0.17354   0.24125   0.00000  Uiso   1.00
C68    C     0.54428   0.11247   0.01973   0.00000  Uiso   1.00
C69    C     0.51094   0.13795   0.04106   0.00000  Uiso   1.00
C70    C     0.56578   0.09400   0.04171   0.00000  Uiso   1.00
C71    C     0.55831   0.10560   0.08225   0.00000  Uiso   1.00
C72    C     0.50775   0.15183   0.08095   0.00000  Uiso   1.00
C73    C     0.66031   0.17618   0.23775   0.00000  Uiso   1.00
C74    C     0.34042   0.15753   0.26228   0.00000  Uiso   1.00
C75    C     0.42904   0.21073   0.42240   0.00000  Uiso   1.00
C76    C     0.51324   0.32207   0.23948   0.00000  Uiso   1.00
C77    C     0.48363   0.01286   0.26288   0.00000  Uiso   1.00
C78    C     0.48984   0.05623   0.25838   0.00000  Uiso   1.00
C79    C     0.50987   0.27763   0.24160   0.00000  Uiso   1.00
C80    C     0.52125   0.14541   0.14401   0.00000  Uiso   1.00
C81    C     0.47862   0.18761   0.35635   0.00000  Uiso   1.00
C82    C     0.46614   0.19231   0.39997   0.00000  Uiso   1.00
C83    C     0.53055   0.13530   0.10144   0.00000  Uiso   1.00
C84    C     0.41514   0.20949   0.46315   0.00000  Uiso   1.00
C85    C     0.48989   0.17441   0.41920   0.00000  Uiso   1.00
C86    C     0.47547   0.17116   0.46016   0.00000  Uiso   1.00
C87    C     0.43750   0.18931   0.48216   0.00000  Uiso   1.00
C88    C     0.49761   0.15043   0.47979   0.00000  Uiso   1.00
C89    C     0.48382   0.15175   0.02153   0.00000  Uiso   1.00
C90    C     0.44273   0.16552   0.04192   0.00000  Uiso   1.00
C91    C     0.42101   0.18536   0.02248   0.00000  Uiso   1.00
F92    F     0.38240   0.19926   0.04283   0.00000  Uiso   1.00
F93    F     0.40525   0.22866   0.40498   0.00000  Uiso   1.00
H94    H     0.34998   0.19332   0.21510   0.00000  Uiso   1.00
H95    H     0.65144   0.14030   0.28519   0.00000  Uiso   1.00
H96    H     0.54107   0.00252   0.21806   0.00000  Uiso   1.00
H97    H     0.48825   0.17643   0.09639   0.00000  Uiso   1.00
H98    H     0.57405   0.09112   0.09907   0.00000  Uiso   1.00
H99    H     0.38602   0.22340   0.47965   0.00000  Uiso   1.00
H100   H     0.51962   0.16316   0.40121   0.00000  Uiso   1.00
H101   H     0.54256   0.12300   0.42720   0.00000  Uiso   1.00
O102   O     0.50000   0.16667   0.25000   0.00000  Uiso   1.00
O103   O     0.49027   0.12393   0.16625   0.00000  Uiso   1.00
O104   O     0.46020   0.20646   0.33749   0.00000  Uiso   1.00
O105   O     0.54421   0.17493   0.15877   0.00000  Uiso   1.00
O106   O     0.50532   0.16135   0.33749   0.00000  Uiso   1.00
O107   O     0.51182   0.08101   0.27821   0.00000  Uiso   1.00
O108   O     0.47914   0.26136   0.26767   0.00000  Uiso   1.00
O109   O     0.40785   0.13251   0.23607   0.00000  Uiso   1.00
O110   O     0.60119   0.19179   0.21806   0.00000  Uiso   1.00
O111   O     0.40323   0.18960   0.27820   0.00000  Uiso   1.00
O112   O     0.58773   0.15277   0.26768   0.00000  Uiso   1.00
O113   O     0.47133   0.06903   0.23607   0.00000  Uiso   1.00
O114   O     0.53771   0.25527   0.21806   0.00000  Uiso   1.00
Zn115  Zn    0.52577   0.14090   0.28278   0.00000  Uiso   1.00
Zn116  Zn    0.46792   0.12378   0.22258   0.00000  Uiso   1.00
Zn117  Zn    0.54500   0.19664   0.21188   0.00000  Uiso   1.00
Zn118  Zn    0.46131   0.20535   0.28277   0.00000  Uiso   1.00
Br119  Br    0.93434   0.04890   0.02229   0.00000  Uiso   1.00
Br120  Br    0.76435   0.32876   0.30159   0.00000  Uiso   1.00
Br121  Br    0.93690   0.08276   0.44241   0.00000  Uiso   1.00
Br122  Br    0.74201   0.14911   0.09282   0.00000  Uiso   1.00
C123   C     0.71913   0.15988   0.25883   0.00000  Uiso   1.00
C124   C     0.86573   0.12752   0.45895   0.00000  Uiso   1.00
C125   C     0.88814   0.10803   0.47793   0.00000  Uiso   1.00
C126   C     0.94768   0.17354   0.24125   0.00000  Uiso   1.00
C127   C     0.87761   0.11247   0.01973   0.00000  Uiso   1.00
C128   C     0.84427   0.13795   0.04106   0.00000  Uiso   1.00
C129   C     0.89911   0.09400   0.04171   0.00000  Uiso   1.00
C130   C     0.89164   0.10560   0.08225   0.00000  Uiso   1.00
C131   C     0.84108   0.15183   0.08095   0.00000  Uiso   1.00
C132   C     0.99364   0.17618   0.23775   0.00000  Uiso   1.00
C133   C     0.67375   0.15753   0.26228   0.00000  Uiso   1.00
C134   C     0.76237   0.21073   0.42240   0.00000  Uiso   1.00
C135   C     0.84657   0.32207   0.23948   0.00000  Uiso   1.00
C136   C     0.81697   0.01286   0.26288   0.00000  Uiso   1.00
C137   C     0.82317   0.05623   0.25838   0.00000  Uiso   1.00
C138   C     0.84321   0.27763   0.24160   0.00000  Uiso   1.00
C139   C     0.85459   0.14541   0.14401   0.00000  Uiso   1.00
C140   C     0.81196   0.18761   0.35635   0.00000  Uiso   1.00
C141   C     0.79948   0.19231   0.39997   0.00000  Uiso   1.00
C142   C     0.86389   0.13530   0.10144   0.00000  Uiso   1.00
C143   C     0.74847   0.20949   0.46315   0.00000  Uiso   1.00
C144   C     0.82323   0.17441   0.41920   0.00000  Uiso   1.00
C145   C     0.80881   0.17116   0.46016   0.00000  Uiso   1.00
C146   C     0.77083   0.18931   0.48216   0.00000  Uiso   1.00
C147   C     0.83094   0.15043   0.47979   0.00000  Uiso   1.00
C148   C     0.81715   0.15175   0.02153   0.00000  Uiso   1.00
C149   C     0.77606   0.16552   0.04192   0.00000  Uiso   1.00
C150   C     0.75434   0.18536   0.02248   0.00000  Uiso   1.00
F151   F     0.71574   0.19926   0.04283   0.00000  Uiso   1.00
F152   F     0.73858   0.22866   0.40498   0.00000  Uiso   1.00
H153   H     0.68331   0.19332   0.21510   0.00000  Uiso   1.00
H154   H     0.98477   0.14030   0.28519   0.00000  Uiso   1.00
H155   H     0.87441   0.00252   0.21806   0.00000  Uiso   1.00
H156   H     0.82159   0.17643   0.09639   0.00000  Uiso   1.00
H157   H     0.90738   0.09112   0.09907   0.00000  Uiso   1.00
H158   H     0.71935   0.22340   0.47965   0.00000  Uiso   1.00
H159   H     0.85296   0.16316   0.40121   0.00000  Uiso   1.00
H160   H     0.87589   0.12300   0.42720   0.00000  Uiso   1.00
O161   O     0.83333   0.16667   0.25000   0.00000  Uiso   1.00
O162   O     0.82360   0.12393   0.16625   0.00000  Uiso   1.00
O163   O     0.79354   0.20646   0.33749   0.00000  Uiso   1.00
O164   O     0.87755   0.17493   0.15877   0.00000  Uiso   1.00
O165   O     0.83865   0.16135   0.33749   0.00000  Uiso   1.00
O166   O     0.84515   0.08101   0.27821   0.00000  Uiso   1.00
O167   O     0.81247   0.26136   0.26767   0.00000  Uiso   1.00
O168   O     0.74119   0.13251   0.23607   0.00000  Uiso   1.00
O169   O     0.93452   0.19179   0.21806   0.00000  Uiso   1.00
O170   O     0.73656   0.18960   0.27820   0.00000  Uiso   1.00
O171   O     0.92106   0.15277   0.26768   0.00000  Uiso   1.00
O172   O     0.80467   0.06903   0.23607   0.00000  Uiso   1.00
O173   O     0.87104   0.25527   0.21806   0.00000  Uiso   1.00
Zn174  Zn    0.85910   0.14090   0.28278   0.00000  Uiso   1.00
Zn175  Zn    0.80125   0.12378   0.22258   0.00000  Uiso   1.00
Zn176  Zn    0.87833   0.19664   0.21188   0.00000  Uiso   1.00
Zn177  Zn    0.79465   0.20535   0.28277   0.00000  Uiso   1.00
Br178  Br    0.26767   0.38224   0.02229   0.00000  Uiso   1.00
Br179  Br    0.09769   0.66209   0.30159   0.00000  Uiso   1.00
Br180  Br    0.27023   0.41609   0.44241   0.00000  Uiso   1.00
Br181  Br    0.07534   0.48244   0.09282   0.00000  Uiso   1.00
C182   C     0.05246   0.49321   0.25883   0.00000  Uiso   1.00
C183   C     0.19906   0.46086   0.45895   0.00000  Uiso   1.00
C184   C     0.22147   0.44136   0.47793   0.00000  Uiso   1.00
C185   C     0.28102   0.50688   0.24125   0.00000  Uiso   1.00
C186   C     0.21094   0.44580   0.01973   0.00000  Uiso   1.00
C187   C     0.17760   0.47128   0.04106   0.00000  Uiso   1.00
C188   C     0.23245   0.42734   0.04171   0.00000  Uiso   1.00
C189   C     0.22498   0.43893   0.08225   0.00000  Uiso   1.00
C190   C     0.17442   0.48517   0.08095   0.00000  Uiso   1.00
C191   C     0.32697   0.50951   0.23775   0.00000  Uiso   1.00
C192   C     0.00709   0.49086   0.26228   0.00000  Uiso   1.00
C193   C     0.09570   0.54406   0.42240   0.00000  Uiso   1.00
C194   C     0.17991   0.65540   0.23948   0.00000  Uiso   1.00
C195   C     0.15030   0.34620   0.26288   0.00000  Uiso   1.00
C196   C     0.15650   0.38956   0.25838   0.00000  Uiso   1.00
C197   C     0.17654   0.61096   0.24160   0.00000  Uiso   1.00
C198   C     0.18792   0.47874   0.14401   0.00000  Uiso   1.00
C199   C     0.14529   0.52094   0.35635   0.00000  Uiso   1.00
C200   C     0.13281   0.52564   0.39997   0.00000  Uiso   1.00
C201   C     0.19722   0.46863   0.10144   0.00000  Uiso   1.00
C202   C     0.08181   0.54282   0.46315   0.00000  Uiso   1.00
C203   C     0.15656   0.50775   0.41920   0.00000  Uiso   1.00
C204   C     0.14214   0.50449   0.46016   0.00000  Uiso   1.00
C205   C     0.10416   0.52264   0.48216   0.00000  Uiso   1.00
C206   C     0.16427   0.48376   0.47979   0.00000  Uiso   1.00
C207   C     0.15048   0.48508   0.02153   0.00000  Uiso   1.00
C208   C     0.10940   0.49885   0.04192   0.00000  Uiso   1.00
C209   C     0.08767   0.51870   0.02248   0.00000  Uiso   1.00
F210   F     0.04907   0.53259   0.04283   0.00000  Uiso   1.00
F211   F     0.07191   0.56200   0.40498   0.00000  Uiso   1.00
H212   H     0.01665   0.52666   0.21510   0.00000  Uiso   1.00
H213   H     0.31810   0.47363   0.28519   0.00000  Uiso   1.00
H214   H     0.20774   0.33585   0.21806   0.00000  Uiso   1.00
H215   H     0.15492   0.50977   0.09639   0.00000  Uiso   1.00
H216   H     0.24072   0.42445   0.09907   0.00000  Uiso   1.00
H217   H     0.05268   0.55673   0.47965   0.00000  Uiso   1.00
H218   H     0.18629   0.49649   0.40121   0.00000  Uiso   1.00
H219   H     0.20922   0.45633   0.42720   0.00000  Uiso   1.00
O220   O     0.16667   0.50000   0.25000   0.00000  Uiso   1.00
O221   O     0.15693   0.45726   0.16625   0.00000  Uiso   1.00
O222   O     0.12687   0.53979   0.33749   0.00000  Uiso   1.00
O223   O     0.21088   0.50826   0.15877   0.00000  Uiso   1.00
O224   O     0.17198   0.49468   0.33749   0.00000  Uiso   1.00
O225   O     0.17849   0.41434   0.27821   0.00000  Uiso   1.00
O226   O     0.14581   0.59469   0.26767   0.00000  Uiso   1.00
O227   O     0.07452   0.46584   0.23607   0.00000  Uiso   1.00
O228   O     0.26785   0.52512   0.21806   0.00000  Uiso   1.00
O229   O     0.06990   0.52293   0.27820   0.00000  Uiso   1.00
O230   O     0.25440   0.48610   0.26768   0.00000  Uiso   1.00
O231   O     0.13800   0.40236   0.23607   0.00000  Uiso   1.00
O232   O     0.20437   0.58860   0.21806   0.00000  Uiso   1.00
Zn233  Zn    0.19244   0.47423   0.28278   0.00000  Uiso   1.00
Zn234  Zn    0.13459   0.45711   0.22258   0.00000  Uiso   1.00
Zn235  Zn    0.21166   0.52997   0.21188   0.00000  Uiso   1.00
Zn236  Zn    0.12798   0.53868   0.28277   0.00000  Uiso   1.00
Br237  Br    0.60101   0.38224   0.02229   0.00000  Uiso   1.00
Br238  Br    0.43102   0.66209   0.30159   0.00000  Uiso   1.00
Br239  Br    0.60356   0.41609   0.44241   0.00000  Uiso   1.00
Br240  Br    0.40868   0.48244   0.09282   0.00000  Uiso   1.00
C241   C     0.38580   0.49321   0.25883   0.00000  Uiso   1.00
C242   C     0.53240   0.46086   0.45895   0.00000  Uiso   1.00
C243   C     0.55480   0.44136   0.47793   0.00000  Uiso   1.00
C244   C     0.61435   0.50688   0.24125   0.00000  Uiso   1.00
C245   C     0.54428   0.44580   0.01973   0.00000  Uiso   1.00
C246   C     0.51094   0.47128   0.04106   0.00000  Uiso   1.00
C247   C     0.56578   0.42734   0.04171   0.00000  Uiso   1.00
C248   C     0.55831   0.43893   0.08225   0.00000  Uiso   1.00
C249   C     0.50775   0.48517   0.08095   0.00000  Uiso   1.00
C250   C     0.66031   0.50951   0.23775   0.00000  Uiso   1.00
C251   C     0.34042   0.49086   0.26228   0.00000  Uiso   1.00
C252   C     0.42904   0.54406   0.42240   0.00000  Uiso   1.00
C253   C     0.51324   0.65540   0.23948   0.00000  Uiso   1.00
C254   C     0.48363   0.34620   0.26288   0.00000  Uiso   1.00
C255   C     0.48984   0.38956   0.25838   0.00000  Uiso   1.00
C256   C     0.50987   0.61096   0.24160   0.00000  Uiso   1.00
C257   C     0.52125   0.47874   0.14401   0.00000  Uiso   1.00
C258   C     0.47862   0.52094   0.35635   0.00000  Uiso   1.00
C259   C     0.46614   0.52564   0.39997   0.00000  Uiso   1.00
C260   C     0.53055   0.46863   0.10144   0.00000  Uiso   1.00
C261   C     0.41514   0.54282   0.46315   0.00000  Uiso   1.00
C262   C     0.48989   0.50775   0.41920   0.00000  Uiso   1.00
C263   C     0.47547   0.50449   0.46016   0.00000  Uiso   1.00
C264   C     0.43750   0.52264   0.48216   0.00000  Uiso   1.00
C265   C     0.49761   0.48376   0.47979   0.00000  Uiso   1.00
C266   C     0.48382   0.48508   0.02153   0.00000  Uiso   1.00
C267   C     0.44273   0.49885   0.04192   0.00000  Uiso   1.00
C268   C     0.42101   0.51870   0.02248   0.00000  Uiso   1.00
F269   F     0.38240   0.53259   0.04283   0.00000  Uiso   1.00
F270   F     0.40525   0.56200   0.40498   0.00000  Uiso   1.00
H271   H     0.34998   0.52666   0.21510   0.00000  Uiso   1.00
H272   H     0.65144   0.47363   0.28519   0.00000  Uiso   1.00
H273   H     0.54107   0.33585   0.21806   0.00000  Uiso   1.00
H274   H     0.48825   0.50977   0.09639   0.00000  Uiso   1.00
H275   H     0.57405   0.42445   0.09907   0.00000  Uiso   1.00
H276   H     0.38602   0.55673   0.47965   0.00000  Uiso   1.00
H277   H     0.51962   0.49649   0.40121   0.00000  Uiso   1.00
H278   H     0.54256   0.45633   0.42720   0.00000  Uiso   1.00
O279   O     0.50000   0.50000   0.25000   0.00000  Uiso   1.00
O280   O     0.49027   0.45726   0.16625   0.00000  Uiso   1.00
O281   O     0.46020   0.53979   0.33749   0.00000  Uiso   1.00
O282   O     0.54421   0.50826   0.15877   0.00000  Uiso   1.00
O283   O     0.50532   0.49468   0.33749   0.00000  Uiso   1.00
O284   O     0.51182   0.41434   0.27821   0.00000  Uiso   1.00
O285   O     0.47914   0.59469   0.26767   0.00000  Uiso   1.00
O286   O     0.40785   0.46584   0.23607   0.00000  Uiso   1.00
O287   O     0.60119   0.52512   0.21806   0.00000  Uiso   1.00
O288   O     0.40323   0.52293   0.27820   0.00000  Uiso   1.00
O289   O     0.58773   0.48610   0.26768   0.00000  Uiso   1.00
O290   O     0.47133   0.40236   0.23607   0.00000  Uiso   1.00
O291   O     0.53771   0.58860   0.21806   0.00000  Uiso   1.00
Zn292  Zn    0.52577   0.47423   0.28278   0.00000  Uiso   1.00
Zn293  Zn    0.46792   0.45711   0.22258   0.00000  Uiso   1.00
Zn294  Zn    0.54500   0.52997   0.21188   0.00000  Uiso   1.00
Zn295  Zn    0.46131   0.53868   0.28277   0.00000  Uiso   1.00
Br296  Br    0.93434   0.38224   0.02229   0.00000  Uiso   1.00
Br297  Br    0.76435   0.66209   0.30159   0.00000  Uiso   1.00
Br298  Br    0.93690   0.41609   0.44241   0.00000  Uiso   1.00
Br299  Br    0.74201   0.48244   0.09282   0.00000  Uiso   1.00
C300   C     0.71913   0.49321   0.25883   0.00000  Uiso   1.00
C301   C     0.86573   0.46086   0.45895   0.00000  Uiso   1.00
C302   C     0.88814   0.44136   0.47793   0.00000  Uiso   1.00
C303   C     0.94768   0.50688   0.24125   0.00000  Uiso   1.00
C304   C     0.87761   0.44580   0.01973   0.00000  Uiso   1.00
C305   C     0.84427   0.47128   0.04106   0.00000  Uiso   1.00
C306   C     0.89911   0.42734   0.04171   0.00000  Uiso   1.00
C307   C     0.89164   0.43893   0.08225   0.00000  Uiso   1.00
C308   C     0.84108   0.48517   0.08095   0.00000  Uiso   1.00
C309   C     0.99364   0.50951   0.23775   0.00000  Uiso   1.00
C310   C     0.67375   0.49086   0.26228   0.00000  Uiso   1.00
C311   C     0.76237   0.54406   0.42240   0.00000  Uiso   1.00
C312   C     0.84657   0.65540   0.23948   0.00000  Uiso   1.00
C313   C     0.81697   0.34620   0.26288   0.00000  Uiso   1.00
C314   C     0.82317   0.38956   0.25838   0.00000  Uiso   1.00
C315   C     0.84321   0.61096   0.24160   0.00000  Uiso   1.00
C316   C     0.85459   0.47874   0.14401   0.00000  Uiso   1.00
C317   C     0.81196   0.52094   0.35635   0.00000  Uiso   1.00
C318   C     0.79948   0.52564   0.39997   0.00000  Uiso   1.00
C319   C     0.86389   0.46863   0.10144   0.00000  Uiso   1.00
C320   C     0.74847   0.54282   0.46315   0.00000  Uiso   1.00
C321   C     0.82323   0.50775   0.41920   0.00000  Uiso   1.00
C322   C     0.80881   0.50449   0.46016   0.00000  Uiso   1.00
C323   C     0.77083   0.52264   0.48216   0.00000  Uiso   1.00
C324   C     0.83094   0.48376   0.47979   0.00000  Uiso   1.00
C325   C     0.81715   0.48508   0.02153   0.00000  Uiso   1.00
C326   C     0.77606   0.49885   0.04192   0.00000  Uiso   1.00
C327   C     0.75434   0.51870   0.02248   0.00000  Uiso   1.00
F328   F     0.71574   0.53259   0.04283   0.00000  Uiso   1.00
F329   F     0.73858   0.56200   0.40498   0.00000  Uiso   1.00
H330   H     0.68331   0.52666   0.21510   0.00000  Uiso   1.00
H331   H     0.98477   0.47363   0.28519   0.00000  Uiso   1.00
H332   H     0.87441   0.33585   0.21806   0.00000  Uiso   1.00
H333   H     0.82159   0.50977   0.09639   0.00000  Uiso   1.00
H334   H     0.90738   0.42445   0.09907   0.00000  Uiso   1.00
H335   H     0.71935   0.55673   0.47965   0.00000  Uiso   1.00
H336   H     0.85296   0.49649   0.40121   0.00000  Uiso   1.00
H337   H     0.87589   0.45633   0.42720   0.00000  Uiso   1.00
O338   O     0.83333   0.50000   0.25000   0.00000  Uiso   1.00
O339   O     0.82360   0.45726   0.16625   0.00000  Uiso   1.00
O340   O     0.79354   0.53979   0.33749   0.00000  Uiso   1.00
O341   O     0.87755   0.50826   0.15877   0.00000  Uiso   1.00
O342   O     0.83865   0.49468   0.33749   0.00000  Uiso   1.00
O343   O     0.84515   0.41434   0.27821   0.00000  Uiso   1.00
O344   O     0.81247   0.59469   0.26767   0.00000  Uiso   1.00
O345   O     0.74119   0.46584   0.23607   0.00000  Uiso   1.00
O346   O     0.93452   0.52512   0.21806   0.00000  Uiso   1.00
O347   O     0.73656   0.52293   0.27820   0.00000  Uiso   1.00
O348   O     0.92106   0.48610   0.26768   0.00000  Uiso   1.00
O349   O     0.80467   0.40236   0.23607   0.00000  Uiso   1.00
O350   O     0.87104   0.58860   0.21806   0.00000  Uiso   1.00
Zn351  Zn    0.85910   0.47423   0.28278   0.00000  Uiso   1.00
Zn352  Zn    0.80125   0.45711   0.22258   0.00000  Uiso   1.00
Zn353  Zn    0.87833   0.52997   0.21188   0.00000  Uiso   1.00
Zn354  Zn    0.79465   0.53868   0.28277   0.00000  Uiso   1.00
Br355  Br    0.26767   0.71557   0.02229   0.00000  Uiso   1.00
Br356  Br    0.09769   0.99542   0.30159   0.00000  Uiso   1.00
Br357  Br    0.27023   0.74943   0.44241   0.00000  Uiso   1.00
Br358  Br    0.07534   0.81577   0.09282   0.00000  Uiso   1.00
C359   C     0.05246   0.82655   0.25883   0.00000  Uiso   1.00
C360   C     0.19906   0.79419   0.45895   0.00000  Uiso   1.00
C361   C     0.22147   0.77469   0.47793   0.00000  Uiso   1.00
C362   C     0.28102   0.84021   0.24125   0.00000  Uiso   1.00
C363   C     0.21094   0.77913   0.01973   0.00000  Uiso   1.00
C364   C     0.17760   0.80461   0.04106   0.00000  Uiso   1.00
C365   C     0.23245   0.76067   0.04171   0.00000  Uiso   1.00
C366   C     0.22498   0.77226   0.08225   0.00000  Uiso   1.00
C367   C     0.17442   0.81850   0.08095   0.00000  Uiso   1.00
C368   C     0.32697   0.84284   0.23775   0.00000  Uiso   1.00
C369   C     0.00709   0.82420   0.26228   0.00000  Uiso   1.00
C370   C     0.09570   0.87739   0.42240   0.00000  Uiso   1.00
C371   C     0.17991   0.98873   0.23948   0.00000  Uiso   1.00
C372   C     0.15030   0.67953   0.26288   0.00000  Uiso   1.00
C373   C     0.15650   0.72289   0.25838   0.00000  Uiso   1.00
C374   C     0.17654   0.94430   0.24160   0.00000  Uiso   1.00
C375   C     0.18792   0.81208   0.14401   0.00000  Uiso   1.00
C376   C     0.14529   0.85428   0.35635   0.00000  Uiso   1.00
C377   C     0.13281   0.85898   0.39997   0.00000  Uiso   1.00
C378   C     0.19722   0.80197   0.10144   0.00000  Uiso   1.00
C379   C     0.08181   0.87615   0.46315   0.00000  Uiso   1.00
C380   C     0.15656   0.84108   0.41920   0.00000  Uiso   1.00
C381   C     0.14214   0.83782   0.46016   0.00000  Uiso   1.00
C382   C     0.10416   0.85597   0.48216   0.00000  Uiso   1.00
C383   C     0.16427   0.81709   0.47979   0.00000  Uiso   1.00
C384   C     0.15048   0.81842   0.02153   0.00000  Uiso   1.00
C385   C     0.10940   0.83218   0.04192   0.00000  Uiso   1.00
C386   C     0.08767   0.85203   0.02248   0.00000  Uiso   1.00
F387   F     0.04907   0.86593   0.04283   0.00000  Uiso   1.00
F388   F     0.07191   0.89533   0.40498   0.00000  Uiso   1.00
H389   H     0.01665   0.85999   0.21510   0.00000  Uiso   1.00
H390   H     0.31810   0.80696   0.28519   0.00000  Uiso   1.00
H391   H     0.20774   0.66918   0.21806   0.00000  Uiso   1.00
H392   H     0.15492   0.84310   0.09639   0.00000  Uiso   1.00
H393   H     0.24072   0.75778   0.09907   0.00000  Uiso   1.00
H394   H     0.05268   0.89007   0.47965   0.00000  Uiso   1.00
H395   H     0.18629   0.82983   0.40121   0.00000  Uiso   1.00
H396   H     0.20922   0.78966   0.42720   0.00000  Uiso   1.00
O397   O     0.16667   0.83333   0.25000   0.00000  Uiso   1.00
O398   O     0.15693   0.79060   0.16625   0.00000  Uiso   1.00
O399   O     0.12687   0.87313   0.33749   0.00000  Uiso   1.00
O400   O     0.21088   0.84159   0.15877   0.00000  Uiso   1.00
O401   O     0.17198   0.82802   0.33749   0.00000  Uiso   1.00
O402   O     0.17849   0.74768   0.27821   0.00000  Uiso   1.00
O403   O     0.14581   0.92803   0.26767   0.00000  Uiso   1.00
O404   O     0.07452   0.79917   0.23607   0.00000  Uiso   1.00
O405   O     0.26785   0.85845   0.21806   0.00000  Uiso   1.00
O406   O     0.06990   0.85627   0.27820   0.00000  Uiso   1.00
O407   O     0.25440   0.81944   0.26768   0.00000  Uiso   1.00
O408   O     0.13800   0.73570   0.23607   0.00000  Uiso   1.00
O409   O     0.20437   0.92193   0.21806   0.00000  Uiso   1.00
Zn410  Zn    0.19244   0.80756   0.28278   0.00000  Uiso   1.00
Zn411  Zn    0.13459   0.79044   0.22258   0.00000  Uiso   1.00
Zn412  Zn    0.21166   0.86331   0.21188   0.00000  Uiso   1.00
Zn413  Zn    0.12798   0.87202   0.28277   0.00000  Uiso   1.00
Br414  Br    0.60101   0.71557   0.02229   0.00000  Uiso   1.00
Br415  Br    0.43102   0.99542   0.30159   0.00000  Uiso   1.00
Br416  Br    0.60356   0.74943   0.44241   0.00000  Uiso   1.00
Br417  Br    0.40868   0.81577   0.09282   0.00000  Uiso   1.00
C418   C     0.38580   0.82655   0.25883   0.00000  Uiso   1.00
C419   C     0.53240   0.79419   0.45895   0.00000  Uiso   1.00
C420   C     0.55480   0.77469   0.47793   0.00000  Uiso   1.00
C421   C     0.61435   0.84021   0.24125   0.00000  Uiso   1.00
C422   C     0.54428   0.77913   0.01973   0.00000  Uiso   1.00
C423   C     0.51094   0.80461   0.04106   0.00000  Uiso   1.00
C424   C     0.56578   0.76067   0.04171   0.00000  Uiso   1.00
C425   C     0.55831   0.77226   0.08225   0.00000  Uiso   1.00
C426   C     0.50775   0.81850   0.08095   0.00000  Uiso   1.00
C427   C     0.66031   0.84284   0.23775   0.00000  Uiso   1.00
C428   C     0.34042   0.82420   0.26228   0.00000  Uiso   1.00
C429   C     0.42904   0.87739   0.42240   0.00000  Uiso   1.00
C430   C     0.51324   0.98873   0.23948   0.00000  Uiso   1.00
C431   C     0.48363   0.67953   0.26288   0.00000  Uiso   1.00
C432   C     0.48984   0.72289   0.25838   0.00000  Uiso   1.00
C433   C     0.50987   0.94430   0.24160   0.00000  Uiso   1.00
C434   C     0.52125   0.81208   0.14401   0.00000  Uiso   1.00
C435   C     0.47862   0.85428   0.35635   0.00000  Uiso   1.00
C436   C     0.46614   0.85898   0.39997   0.00000  Uiso   1.00
C437   C     0.53055   0.80197   0.10144   0.00000  Uiso   1.00
C438   C     0.41514   0.87615   0.46315   0.00000  Uiso   1.00
C439   C     0.48989   0.84108   0.41920   0.00000  Uiso   1.00
C440   C     0.47547   0.83782   0.46016   0.00000  Uiso   1.00
C441   C     0.43750   0.85597   0.48216   0.00000  Uiso   1.00
C442   C     0.49761   0.81709   0.47979   0.00000  Uiso   1.00
C443   C     0.48382   0.81842   0.02153   0.00000  Uiso   1.00
C444   C     0.44273   0.83218   0.04192   0.00000  Uiso   1.00
C445   C     0.42101   0.85203   0.02248   0.00000  Uiso   1.00
F446   F     0.38240   0.86593   0.04283   0.00000  Uiso   1.00
F447   F     0.40525   0.89533   0.40498   0.00000  Uiso   1.00
H448   H     0.34998   0.85999   0.21510   0.00000  Uiso   1.00
H449   H     0.65144   0.80696   0.28519   0.00000  Uiso   1.00
H450   H     0.54107   0.66918   0.21806   0.00000  Uiso   1.00
H451   H     0.48825   0.84310   0.09639   0.00000  Uiso   1.00
H452   H     0.57405   0.75778   0.09907   0.00000  Uiso   1.00
H453   H     0.38602   0.89007   0.47965   0.00000  Uiso   1.00
H454   H     0.51962   0.82983   0.40121   0.00000  Uiso   1.00
H455   H     0.54256   0.78966   0.42720   0.00000  Uiso   1.00
O456   O     0.50000   0.83333   0.25000   0.00000  Uiso   1.00
O457   O     0.49027   0.79060   0.16625   0.00000  Uiso   1.00
O458   O     0.46020   0.87313   0.33749   0.00000  Uiso   1.00
O459   O     0.54421   0.84159   0.15877   0.00000  Uiso   1.00
O460   O     0.50532   0.82802   0.33749   0.00000  Uiso   1.00
O461   O     0.51182   0.74768   0.27821   0.00000  Uiso   1.00
O462   O     0.47914   0.92803   0.26767   0.00000  Uiso   1.00
O463   O     0.40785   0.79917   0.23607   0.00000  Uiso   1.00
O464   O     0.60119   0.85845   0.21806   0.00000  Uiso   1.00
O465   O     0.40323   0.85627   0.27820   0.00000  Uiso   1.00
O466   O     0.58773   0.81944   0.26768   0.00000  Uiso   1.00
O467   O     0.47133   0.73570   0.23607   0.00000  Uiso   1.00
O468   O     0.53771   0.92193   0.21806   0.00000  Uiso   1.00
Zn469  Zn    0.52577   0.80756   0.28278   0.00000  Uiso   1.00
Zn470  Zn    0.46792   0.79044   0.22258   0.00000  Uiso   1.00
Zn471  Zn    0.54500   0.86331   0.21188   0.00000  Uiso   1.00
Zn472  Zn    0.46131   0.87202   0.28277   0.00000  Uiso   1.00
Br473  Br    0.93434   0.71557   0.02229   0.00000  Uiso   1.00
Br474  Br    0.76435   0.99542   0.30159   0.00000  Uiso   1.00
Br475  Br    0.93690   0.74943   0.44241   0.00000  Uiso   1.00
Br476  Br    0.74201   0.81577   0.09282   0.00000  Uiso   1.00
C477   C     0.71913   0.82655   0.25883   0.00000  Uiso   1.00
C478   C     0.86573   0.79419   0.45895   0.00000  Uiso   1.00
C479   C     0.88814   0.77469   0.47793   0.00000  Uiso   1.00
C480   C     0.94768   0.84021   0.24125   0.00000  Uiso   1.00
C481   C     0.87761   0.77913   0.01973   0.00000  Uiso   1.00
C482   C     0.84427   0.80461   0.04106   0.00000  Uiso   1.00
C483   C     0.89911   0.76067   0.04171   0.00000  Uiso   1.00
C484   C     0.89164   0.77226   0.08225   0.00000  Uiso   1.00
C485   C     0.84108   0.81850   0.08095   0.00000  Uiso   1.00
C486   C     0.99364   0.84284   0.23775   0.00000  Uiso   1.00
C487   C     0.67375   0.82420   0.26228   0.00000  Uiso   1.00
C488   C     0.76237   0.87739   0.42240   0.00000  Uiso   1.00
C489   C     0.84657   0.98873   0.23948   0.00000  Uiso   1.00
C490   C     0.81697   0.67953   0.26288   0.00000  Uiso   1.00
C491   C     0.82317   0.72289   0.25838   0.00000  Uiso   1.00
C492   C     0.84321   0.94430   0.24160   0.00000  Uiso   1.00
C493   C     0.85459   0.81208   0.14401   0.00000  Uiso   1.00
C494   C     0.81196   0.85428   0.35635   0.00000  Uiso   1.00
C495   C     0.79948   0.85898   0.39997   0.00000  Uiso   1.00
C496   C     0.86389   0.80197   0.10144   0.00000  Uiso   1.00
C497   C     0.74847   0.87615   0.46315   0.00000  Uiso   1.00
C498   C     0.82323   0.84108   0.41920   0.00000  Uiso   1.00
C499   C     0.80881   0.83782   0.46016   0.00000  Uiso   1.00
C500   C     0.77083   0.85597   0.48216   0.00000  Uiso   1.00
C501   C     0.83094   0.81709   0.47979   0.00000  Uiso   1.00
C502   C     0.81715   0.81842   0.02153   0.00000  Uiso   1.00
C503   C     0.77606   0.83218   0.04192   0.00000  Uiso   1.00
C504   C     0.75434   0.85203   0.02248   0.00000  Uiso   1.00
F505   F     0.71574   0.86593   0.04283   0.00000  Uiso   1.00
F506   F     0.73858   0.89533   0.40498   0.00000  Uiso   1.00
H507   H     0.68331   0.85999   0.21510   0.00000  Uiso   1.00
H508   H     0.98477   0.80696   0.28519   0.00000  Uiso   1.00
H509   H     0.87441   0.66918   0.21806   0.00000  Uiso   1.00
H510   H     0.82159   0.84310   0.09639   0.00000  Uiso   1.00
H511   H     0.90738   0.75778   0.09907   0.00000  Uiso   1.00
H512   H     0.71935   0.89007   0.47965   0.00000  Uiso   1.00
H513   H     0.85296   0.82983   0.40121   0.00000  Uiso   1.00
H514   H     0.87589   0.78966   0.42720   0.00000  Uiso   1.00
O515   O     0.83333   0.83333   0.25000   0.00000  Uiso   1.00
O516   O     0.82360   0.79060   0.16625   0.00000  Uiso   1.00
O517   O     0.79354   0.87313   0.33749   0.00000  Uiso   1.00
O518   O     0.87755   0.84159   0.15877   0.00000  Uiso   1.00
O519   O     0.83865   0.82802   0.33749   0.00000  Uiso   1.00
O520   O     0.84515   0.74768   0.27821   0.00000  Uiso   1.00
O521   O     0.81247   0.92803   0.26767   0.00000  Uiso   1.00
O522   O     0.74119   0.79917   0.23607   0.00000  Uiso   1.00
O523   O     0.93452   0.85845   0.21806   0.00000  Uiso   1.00
O524   O     0.73656   0.85627   0.27820   0.00000  Uiso   1.00
O525   O     0.92106   0.81944   0.26768   0.00000  Uiso   1.00
O526   O     0.80467   0.73570   0.23607   0.00000  Uiso   1.00
O527   O     0.87104   0.92193   0.21806   0.00000  Uiso   1.00
Zn528  Zn    0.85910   0.80756   0.28278   0.00000  Uiso   1.00
Zn529  Zn    0.80125   0.79044   0.22258   0.00000  Uiso   1.00
Zn530  Zn    0.87833   0.86331   0.21188   0.00000  Uiso   1.00
Zn531  Zn    0.79465   0.87202   0.28277   0.00000  Uiso   1.00
Br532  Br    0.26767   0.04890   0.52229   0.00000  Uiso   1.00
Br533  Br    0.09769   0.32876   0.80159   0.00000  Uiso   1.00
Br534  Br    0.27023   0.08276   0.94241   0.00000  Uiso   1.00
Br535  Br    0.07534   0.14911   0.59282   0.00000  Uiso   1.00
C536   C     0.05246   0.15988   0.75883   0.00000  Uiso   1.00
C537   C     0.19906   0.12752   0.95895   0.00000  Uiso   1.00
C538   C     0.22147   0.10803   0.97793   0.00000  Uiso   1.00
C539   C     0.28102   0.17354   0.74125   0.00000  Uiso   1.00
C540   C     0.21094   0.11247   0.51973   0.00000  Uiso   1.00
C541   C     0.17760   0.13795   0.54106   0.00000  Uiso   1.00
C542   C     0.23245   0.09400   0.54171   0.00000  Uiso   1.00
C543   C     0.22498   0.10560   0.58225   0.00000  Uiso   1.00
C544   C     0.17442   0.15183   0.58095   0.00000  Uiso   1.00
C545   C     0.32697   0.17618   0.73775   0.00000  Uiso   1.00
C546   C     0.00709   0.15753   0.76228   0.00000  Uiso   1.00
C547   C     0.09570   0.21073   0.92240   0.00000  Uiso   1.00
C548   C     0.17991   0.32207   0.73948   0.00000  Uiso   1.00
C549   C     0.15030   0.01286   0.76288   0.00000  Uiso   1.00
C550   C     0.15650   0.05623   0.75838   0.00000  Uiso   1.00
C551   C     0.17654   0.27763   0.74160   0.00000  Uiso   1.00
C552   C     0.18792   0.14541   0.64401   0.00000  Uiso   1.00
C553   C     0.14529   0.18761   0.85635   0.00000  Uiso   1.00
C554   C     0.13281   0.19231   0.89997   0.00000  Uiso   1.00
C555   C     0.19722   0.13530   0.60144   0.00000  Uiso   1.00
C556   C     0.08181   0.20949   0.96315   0.00000  Uiso   1.00
C557   C     0.15656   0.17441   0.91920   0.00000  Uiso   1.00
C558   C     0.14214   0.17116   0.96016   0.00000  Uiso   1.00
C559   C     0.10416   0.18931   0.98216   0.00000  Uiso   1.00
C560   C     0.16427   0.15043   0.97979   0.00000  Uiso   1.00
C561   C     0.15048   0.15175   0.52153   0.00000  Uiso   1.00
C562   C     0.10940   0.16552   0.54192   0.00000  Uiso   1.00
C563   C     0.08767   0.18536   0.52248   0.00000  Uiso   1.00
F564   F     0.04907   0.19926   0.54283   0.00000  Uiso   1.00
F565   F     0.07191   0.22866   0.90498   0.00000  Uiso   1.00
H566   H     0.01665   0.19332   0.71510   0.00000  Uiso   1.00
H567   H     0.31810   0.14030   0.78519   0.00000  Uiso   1.00
H568   H     0.20774   0.00252   0.71806   0.00000  Uiso   1.00
H569   H     0.15492   0.17643   0.59639   0.00000  Uiso   1.00
H570   H     0.24072   0.09112   0.59907   0.00000  Uiso   1.00
H571   H     0.05268   0.22340   0.97965   0.00000  Uiso   1.00
H572   H     0.18629   0.16316   0.90121   0.00000  Uiso   1.00
H573   H     0.20922   0.12300   0.92720   0.00000  Uiso   1.00
O574   O     0.16667   0.16667   0.75000   0.00000  Uiso   1.00
O575   O     0.15693   0.12393   0.66625   0.00000  Uiso   1.00
O576   O     0.12687   0.20646   0.83749   0.00000  Uiso   1.00
O577   O     0.21088   0.17493   0.65877   0.00000  Uiso   1.00
O578   O     0.17198   0.16135   0.83749   0.00000  Uiso   1.00
O579   O     0.17849   0.08101   0.77821   0.00000  Uiso   1.00
O580   O     0.14581   0.26136   0.76767   0.00000  Uiso   1.00
O581   O     0.07452   0.13251   0.73607   0.00000  Uiso   1.00
O582   O     0.26785   0.19179   0.71806   0.00000  Uiso   1.00
O583   O     0.06990   0.18960   0.77820   0.00000  Uiso   1.00
O584   O     0.25440   0.15277   0.76768   0.00000  Uiso   1.00
O585   O     0.13800   0.06903   0.73607   0.00000  Uiso   1.00
O586   O     0.20437   0.25527   0.71806   0.00000  Uiso   1.00
Zn587  Zn    0.19244   0.14090   0.78278   0.00000  Uiso   1.00
Zn588  Zn    0.13459   0.12378   0.72258   0.00000  Uiso   1.00
Zn589  Zn    0.21166   0.19664   0.71188   0.00000  Uiso   1.00
Zn590  Zn    0.12798   0.20535   0.78277   0.00000  Uiso   1.00
Br591  Br    0.60101   0.04890   0.52229   0.00000  Uiso   1.00
Br592  Br    0.43102   0.32876   0.80159   0.00000  Uiso   1.00
Br593  Br    0.60356   0.08276   0.94241   0.00000  Uiso   1.00
Br594  Br    0.40868   0.14911   0.59282   0.00000  Uiso   1.00
C595   C     0.38580   0.15988   0.75883   0.00000  Uiso   1.00
C596   C     0.53240   0.12752   0.95895   0.00000  Uiso   1.00
C597   C     0.55480   0.10803   0.97793   0.00000  Uiso   1.00
C598   C     0.61435   0.17354   0.74125   0.00000  Uiso   1.00
C599   C     0.54428   0.11247   0.51973   0.00000  Uiso   1.00
C600   C     0.51094   0.13795   0.54106   0.00000  Uiso   1.00
C601   C     0.56578   0.09400   0.54171   0.00000  Uiso   1.00
C602   C     0.55831   0.10560   0.58225   0.00000  Uiso   1.00
C603   C     0.50775   0.15183   0.58095   0.00000  Uiso   1.00
C604   C     0.66031   0.17618   0.73775   0.00000  Uiso   1.00
C605   C     0.34042   0.15753   0.76228   0.00000  Uiso   1.00
C606   C     0.42904   0.21073   0.92240   0.00000  Uiso   1.00
C607   C     0.51324   0.32207   0.73948   0.00000  Uiso   1.00
C608   C     0.48363   0.01286   0.76288   0.00000  Uiso   1.00
C609   C     0.48984   0.05623   0.75838   0.00000  Uiso   1.00
C610   C     0.50987   0.27763   0.74160   0.00000  Uiso   1.00
C611   C     0.52125   0.14541   0.64401   0.00000  Uiso   1.00
C612   C     0.47862   0.18761   0.85635   0.00000  Uiso   1.00
C613   C     0.46614   0.19231   0.89997   0.00000  Uiso   1.00
C614   C     0.53055   0.13530   0.60144   0.00000  Uiso   1.00
C615   C     0.41514   0.20949   0.96315   0.00000  Uiso   1.00
C616   C     0.48989   0.17441   0.91920   0.00000  Uiso   1.00
C617   C     0.47547   0.17116   0.96016   0.00000  Uiso   1.00
C618   C     0.43750   0.18931   0.98216   0.00000  Uiso   1.00
C619   C     0.49761   0.15043   0.97979   0.00000  Uiso   1.00
C620   C     0.48382   0.15175   0.52153   0.00000  Uiso   1.00
C621   C     0.44273   0.16552   0.54192   0.00000  Uiso   1.00
C622   C     0.42101   0.18536   0.52248   0.00000  Uiso   1.00
F623   F     0.38240   0.19926   0.54283   0.00000  Uiso   1.00
F624   F     0.40525   0.22866   0.90498   0.00000  Uiso   1.00
H625   H     0.34998   0.19332   0.71510   0.00000  Uiso   1.00
H626   H     0.65144   0.14030   0.78519   0.00000  Uiso   1.00
H627   H     0.54107   0.00252   0.71806   0.00000  Uiso   1.00
H628   H     0.48825   0.17643   0.59639   0.00000  Uiso   1.00
H629   H     0.57405   0.09112   0.59907   0.00000  Uiso   1.00
H630   H     0.38602   0.22340   0.97965   0.00000  Uiso   1.00
H631   H     0.51962   0.16316   0.90121   0.00000  Uiso   1.00
H632   H     0.54256   0.12300   0.92720   0.00000  Uiso   1.00
O633   O     0.50000   0.16667   0.75000   0.00000  Uiso   1.00
O634   O     0.49027   0.12393   0.66625   0.00000  Uiso   1.00
O635   O     0.46020   0.20646   0.83749   0.00000  Uiso   1.00
O636   O     0.54421   0.17493   0.65877   0.00000  Uiso   1.00
O637   O     0.50532   0.16135   0.83749   0.00000  Uiso   1.00
O638   O     0.51182   0.08101   0.77821   0.00000  Uiso   1.00
O639   O     0.47914   0.26136   0.76767   0.00000  Uiso   1.00
O640   O     0.40785   0.13251   0.73607   0.00000  Uiso   1.00
O641   O     0.60119   0.19179   0.71806   0.00000  Uiso   1.00
O642   O     0.40323   0.18960   0.77820   0.00000  Uiso   1.00
O643   O     0.58773   0.15277   0.76768   0.00000  Uiso   1.00
O644   O     0.47133   0.06903   0.73607   0.00000  Uiso   1.00
O645   O     0.53771   0.25527   0.71806   0.00000  Uiso   1.00
Zn646  Zn    0.52577   0.14090   0.78278   0.00000  Uiso   1.00
Zn647  Zn    0.46792   0.12378   0.72258   0.00000  Uiso   1.00
Zn648  Zn    0.54500   0.19664   0.71188   0.00000  Uiso   1.00
Zn649  Zn    0.46131   0.20535   0.78277   0.00000  Uiso   1.00
Br650  Br    0.93434   0.04890   0.52229   0.00000  Uiso   1.00
Br651  Br    0.76435   0.32876   0.80159   0.00000  Uiso   1.00
Br652  Br    0.93690   0.08276   0.94241   0.00000  Uiso   1.00
Br653  Br    0.74201   0.14911   0.59282   0.00000  Uiso   1.00
C654   C     0.71913   0.15988   0.75883   0.00000  Uiso   1.00
C655   C     0.86573   0.12752   0.95895   0.00000  Uiso   1.00
C656   C     0.88814   0.10803   0.97793   0.00000  Uiso   1.00
C657   C     0.94768   0.17354   0.74125   0.00000  Uiso   1.00
C658   C     0.87761   0.11247   0.51973   0.00000  Uiso   1.00
C659   C     0.84427   0.13795   0.54106   0.00000  Uiso   1.00
C660   C     0.89911   0.09400   0.54171   0.00000  Uiso   1.00
C661   C     0.89164   0.10560   0.58225   0.00000  Uiso   1.00
C662   C     0.84108   0.15183   0.58095   0.00000  Uiso   1.00
C663   C     0.99364   0.17618   0.73775   0.00000  Uiso   1.00
C664   C     0.67375   0.15753   0.76228   0.00000  Uiso   1.00
C665   C     0.76237   0.21073   0.92240   0.00000  Uiso   1.00
C666   C     0.84657   0.32207   0.73948   0.00000  Uiso   1.00
C667   C     0.81697   0.01286   0.76288   0.00000  Uiso   1.00
C668   C     0.82317   0.05623   0.75838   0.00000  Uiso   1.00
C669   C     0.84321   0.27763   0.74160   0.00000  Uiso   1.00
C670   C     0.85459   0.14541   0.64401   0.00000  Uiso   1.00
C671   C     0.81196   0.18761   0.85635   0.00000  Uiso   1.00
C672   C     0.79948   0.19231   0.89997   0.00000  Uiso   1.00
C673   C     0.86389   0.13530   0.60144   0.00000  Uiso   1.00
C674   C     0.74847   0.20949   0.96315   0.00000  Uiso   1.00
C675   C     0.82323   0.17441   0.91920   0.00000  Uiso   1.00
C676   C     0.80881   0.17116   0.96016   0.00000  Uiso   1.00
C677   C     0.77083   0.18931   0.98216   0.00000  Uiso   1.00
C678   C     0.83094   0.15043   0.97979   0.00000  Uiso   1.00
C679   C     0.81715   0.15175   0.52153   0.00000  Uiso   1.00
C680   C     0.77606   0.16552   0.54192   0.00000  Uiso   1.00
C681   C     0.75434   0.18536   0.52248   0.00000  Uiso   1.00
F682   F     0.71574   0.19926   0.54283   0.00000  Uiso   1.00
F683   F     0.73858   0.22866   0.90498   0.00000  Uiso   1.00
H684   H     0.68331   0.19332   0.71510   0.00000  Uiso   1.00
H685   H     0.98477   0.14030   0.78519   0.00000  Uiso   1.00
H686   H     0.87441   0.00252   0.71806   0.00000  Uiso   1.00
H687   H     0.82159   0.17643   0.59639   0.00000  Uiso   1.00
H688   H     0.90738   0.09112   0.59907   0.00000  Uiso   1.00
H689   H     0.71935   0.22340   0.97965   0.00000  Uiso   1.00
H690   H     0.85296   0.16316   0.90121   0.00000  Uiso   1.00
H691   H     0.87589   0.12300   0.92720   0.00000  Uiso   1.00
O692   O     0.83333   0.16667   0.75000   0.00000  Uiso   1.00
O693   O     0.82360   0.12393   0.66625   0.00000  Uiso   1.00
O694   O     0.79354   0.20646   0.83749   0.00000  Uiso   1.00
O695   O     0.87755   0.17493   0.65877   0.00000  Uiso   1.00
O696   O     0.83865   0.16135   0.83749   0.00000  Uiso   1.00
O697   O     0.84515   0.08101   0.77821   0.00000  Uiso   1.00
O698   O     0.81247   0.26136   0.76767   0.00000  Uiso   1.00
O699   O     0.74119   0.13251   0.73607   0.00000  Uiso   1.00
O700   O     0.93452   0.19179   0.71806   0.00000  Uiso   1.00
O701   O     0.73656   0.18960   0.77820   0.00000  Uiso   1.00
O702   O     0.92106   0.15277   0.76768   0.00000  Uiso   1.00
O703   O     0.80467   0.06903   0.73607   0.00000  Uiso   1.00
O704   O     0.87104   0.25527   0.71806   0.00000  Uiso   1.00
Zn705  Zn    0.85910   0.14090   0.78278   0.00000  Uiso   1.00
Zn706  Zn    0.80125   0.12378   0.72258   0.00000  Uiso   1.00
Zn707  Zn    0.87833   0.19664   0.71188   0.00000  Uiso   1.00
Zn708  Zn    0.79465   0.20535   0.78277   0.00000  Uiso   1.00
Br709  Br    0.26767   0.38224   0.52229   0.00000  Uiso   1.00
Br710  Br    0.09769   0.66209   0.80159   0.00000  Uiso   1.00
Br711  Br    0.27023   0.41609   0.94241   0.00000  Uiso   1.00
Br712  Br    0.07534   0.48244   0.59282   0.00000  Uiso   1.00
C713   C     0.05246   0.49321   0.75883   0.00000  Uiso   1.00
C714   C     0.19906   0.46086   0.95895   0.00000  Uiso   1.00
C715   C     0.22147   0.44136   0.97793   0.00000  Uiso   1.00
C716   C     0.28102   0.50688   0.74125   0.00000  Uiso   1.00
C717   C     0.21094   0.44580   0.51973   0.00000  Uiso   1.00
C718   C     0.17760   0.47128   0.54106   0.00000  Uiso   1.00
C719   C     0.23245   0.42734   0.54171   0.00000  Uiso   1.00
C720   C     0.22498   0.43893   0.58225   0.00000  Uiso   1.00
C721   C     0.17442   0.48517   0.58095   0.00000  Uiso   1.00
C722   C     0.32697   0.50951   0.73775   0.00000  Uiso   1.00
C723   C     0.00709   0.49086   0.76228   0.00000  Uiso   1.00
C724   C     0.09570   0.54406   0.92240   0.00000  Uiso   1.00
C725   C     0.17991   0.65540   0.73948   0.00000  Uiso   1.00
C726   C     0.15030   0.34620   0.76288   0.00000  Uiso   1.00
C727   C     0.15650   0.38956   0.75838   0.00000  Uiso   1.00
C728   C     0.17654   0.61096   0.74160   0.00000  Uiso   1.00
C729   C     0.18792   0.47874   0.64401   0.00000  Uiso   1.00
C730   C     0.14529   0.52094   0.85635   0.00000  Uiso   1.00
C731   C     0.13281   0.52564   0.89997   0.00000  Uiso   1.00
C732   C     0.19722   0.46863   0.60144   0.00000  Uiso   1.00
C733   C     0.08181   0.54282   0.96315   0.00000  Uiso   1.00
C734   C     0.15656   0.50775   0.91920   0.00000  Uiso   1.00
C735   C     0.14214   0.50449   0.96016   0.00000  Uiso   1.00
C736   C     0.10416   0.52264   0.98216   0.00000  Uiso   1.00
C737   C     0.16427   0.48376   0.97979   0.00000  Uiso   1.00
C738   C     0.15048   0.48508   0.52153   0.00000  Uiso   1.00
C739   C     0.10940   0.49885   0.54192   0.00000  Uiso   1.00
C740   C     0.08767   0.51870   0.52248   0.00000  Uiso   1.00
F741   F     0.04907   0.53259   0.54283   0.00000  Uiso   1.00
F742   F     0.07191   0.56200   0.90498   0.00000  Uiso   1.00
H743   H     0.01665   0.52666   0.71510   0.00000  Uiso   1.00
H744   H     0.31810   0.47363   0.78519   0.00000  Uiso   1.00
H745   H     0.20774   0.33585   0.71806   0.00000  Uiso   1.00
H746   H     0.15492   0.50977   0.59639   0.00000  Uiso   1.00
H747   H     0.24072   0.42445   0.59907   0.00000  Uiso   1.00
H748   H     0.05268   0.55673   0.97965   0.00000  Uiso   1.00
H749   H     0.18629   0.49649   0.90121   0.00000  Uiso   1.00
H750   H     0.20922   0.45633   0.92720   0.00000  Uiso   1.00
O751   O     0.16667   0.50000   0.75000   0.00000  Uiso   1.00
O752   O     0.15693   0.45726   0.66625   0.00000  Uiso   1.00
O753   O     0.12687   0.53979   0.83749   0.00000  Uiso   1.00
O754   O     0.21088   0.50826   0.65877   0.00000  Uiso   1.00
O755   O     0.17198   0.49468   0.83749   0.00000  Uiso   1.00
O756   O     0.17849   0.41434   0.77821   0.00000  Uiso   1.00
O757   O     0.14581   0.59469   0.76767   0.00000  Uiso   1.00
O758   O     0.07452   0.46584   0.73607   0.00000  Uiso   1.00
O759   O     0.26785   0.52512   0.71806   0.00000  Uiso   1.00
O760   O     0.06990   0.52293   0.77820   0.00000  Uiso   1.00
O761   O     0.25440   0.48610   0.76768   0.00000  Uiso   1.00
O762   O     0.13800   0.40236   0.73607   0.00000  Uiso   1.00
O763   O     0.20437   0.58860   0.71806   0.00000  Uiso   1.00
Zn764  Zn    0.19244   0.47423   0.78278   0.00000  Uiso   1.00
Zn765  Zn    0.13459   0.45711   0.72258   0.00000  Uiso   1.00
Zn766  Zn    0.21166   0.52997   0.71188   0.00000  Uiso   1.00
Zn767  Zn    0.12798   0.53868   0.78277   0.00000  Uiso   1.00
Br768  Br    0.60101   0.38224   0.52229   0.00000  Uiso   1.00
Br769  Br    0.43102   0.66209   0.80159   0.00000  Uiso   1.00
Br770  Br    0.60356   0.41609   0.94241   0.00000  Uiso   1.00
Br771  Br    0.40868   0.48244   0.59282   0.00000  Uiso   1.00
C772   C     0.38580   0.49321   0.75883   0.00000  Uiso   1.00
C773   C     0.53240   0.46086   0.95895   0.00000  Uiso   1.00
C774   C     0.55480   0.44136   0.97793   0.00000  Uiso   1.00
C775   C     0.61435   0.50688   0.74125   0.00000  Uiso   1.00
C776   C     0.54428   0.44580   0.51973   0.00000  Uiso   1.00
C777   C     0.51094   0.47128   0.54106   0.00000  Uiso   1.00
C778   C     0.56578   0.42734   0.54171   0.00000  Uiso   1.00
C779   C     0.55831   0.43893   0.58225   0.00000  Uiso   1.00
C780   C     0.50775   0.48517   0.58095   0.00000  Uiso   1.00
C781   C     0.66031   0.50951   0.73775   0.00000  Uiso   1.00
C782   C     0.34042   0.49086   0.76228   0.00000  Uiso   1.00
C783   C     0.42904   0.54406   0.92240   0.00000  Uiso   1.00
C784   C     0.51324   0.65540   0.73948   0.00000  Uiso   1.00
C785   C     0.48363   0.34620   0.76288   0.00000  Uiso   1.00
C786   C     0.48984   0.38956   0.75838   0.00000  Uiso   1.00
C787   C     0.50987   0.61096   0.74160   0.00000  Uiso   1.00
C788   C     0.52125   0.47874   0.64401   0.00000  Uiso   1.00
C789   C     0.47862   0.52094   0.85635   0.00000  Uiso   1.00
C790   C     0.46614   0.52564   0.89997   0.00000  Uiso   1.00
C791   C     0.53055   0.46863   0.60144   0.00000  Uiso   1.00
C792   C     0.41514   0.54282   0.96315   0.00000  Uiso   1.00
C793   C     0.48989   0.50775   0.91920   0.00000  Uiso   1.00
C794   C     0.47547   0.50449   0.96016   0.00000  Uiso   1.00
C795   C     0.43750   0.52264   0.98216   0.00000  Uiso   1.00
C796   C     0.49761   0.48376   0.97979   0.00000  Uiso   1.00
C797   C     0.48382   0.48508   0.52153   0.00000  Uiso   1.00
C798   C     0.44273   0.49885   0.54192   0.00000  Uiso   1.00
C799   C     0.42101   0.51870   0.52248   0.00000  Uiso   1.00
F800   F     0.38240   0.53259   0.54283   0.00000  Uiso   1.00
F801   F     0.40525   0.56200   0.90498   0.00000  Uiso   1.00
H802   H     0.34998   0.52666   0.71510   0.00000  Uiso   1.00
H803   H     0.65144   0.47363   0.78519   0.00000  Uiso   1.00
H804   H     0.54107   0.33585   0.71806   0.00000  Uiso   1.00
H805   H     0.48825   0.50977   0.59639   0.00000  Uiso   1.00
H806   H     0.57405   0.42445   0.59907   0.00000  Uiso   1.00
H807   H     0.38602   0.55673   0.97965   0.00000  Uiso   1.00
H808   H     0.51962   0.49649   0.90121   0.00000  Uiso   1.00
H809   H     0.54256   0.45633   0.92720   0.00000  Uiso   1.00
O810   O     0.50000   0.50000   0.75000   0.00000  Uiso   1.00
O811   O     0.49027   0.45726   0.66625   0.00000  Uiso   1.00
O812   O     0.46020   0.53979   0.83749   0.00000  Uiso   1.00
O813   O     0.54421   0.50826   0.65877   0.00000  Uiso   1.00
O814   O     0.50532   0.49468   0.83749   0.00000  Uiso   1.00
O815   O     0.51182   0.41434   0.77821   0.00000  Uiso   1.00
O816   O     0.47914   0.59469   0.76767   0.00000  Uiso   1.00
O817   O     0.40785   0.46584   0.73607   0.00000  Uiso   1.00
O818   O     0.60119   0.52512   0.71806   0.00000  Uiso   1.00
O819   O     0.40323   0.52293   0.77820   0.00000  Uiso   1.00
O820   O     0.58773   0.48610   0.76768   0.00000  Uiso   1.00
O821   O     0.47133   0.40236   0.73607   0.00000  Uiso   1.00
O822   O     0.53771   0.58860   0.71806   0.00000  Uiso   1.00
Zn823  Zn    0.52577   0.47423   0.78278   0.00000  Uiso   1.00
Zn824  Zn    0.46792   0.45711   0.72258   0.00000  Uiso   1.00
Zn825  Zn    0.54500   0.52997   0.71188   0.00000  Uiso   1.00
Zn826  Zn    0.46131   0.53868   0.78277   0.00000  Uiso   1.00
Br827  Br    0.93434   0.38224   0.52229   0.00000  Uiso   1.00
Br828  Br    0.76435   0.66209   0.80159   0.00000  Uiso   1.00
Br829  Br    0.93690   0.41609   0.94241   0.00000  Uiso   1.00
Br830  Br    0.74201   0.48244   0.59282   0.00000  Uiso   1.00
C831   C     0.71913   0.49321   0.75883   0.00000  Uiso   1.00
C832   C     0.86573   0.46086   0.95895   0.00000  Uiso   1.00
C833   C     0.88814   0.44136   0.97793   0.00000  Uiso   1.00
C834   C     0.94768   0.50688   0.74125   0.00000  Uiso   1.00
C835   C     0.87761   0.44580   0.51973   0.00000  Uiso   1.00
C836   C     0.84427   0.47128   0.54106   0.00000  Uiso   1.00
C837   C     0.89911   0.42734   0.54171   0.00000  Uiso   1.00
C838   C     0.89164   0.43893   0.58225   0.00000  Uiso   1.00
C839   C     0.84108   0.48517   0.58095   0.00000  Uiso   1.00
C840   C     0.99364   0.50951   0.73775   0.00000  Uiso   1.00
C841   C     0.67375   0.49086   0.76228   0.00000  Uiso   1.00
C842   C     0.76237   0.54406   0.92240   0.00000  Uiso   1.00
C843   C     0.84657   0.65540   0.73948   0.00000  Uiso   1.00
C844   C     0.81697   0.34620   0.76288   0.00000  Uiso   1.00
C845   C     0.82317   0.38956   0.75838   0.00000  Uiso   1.00
C846   C     0.84321   0.61096   0.74160   0.00000  Uiso   1.00
C847   C     0.85459   0.47874   0.64401   0.00000  Uiso   1.00
C848   C     0.81196   0.52094   0.85635   0.00000  Uiso   1.00
C849   C     0.79948   0.52564   0.89997   0.00000  Uiso   1.00
C850   C     0.86389   0.46863   0.60144   0.00000  Uiso   1.00
C851   C     0.74847   0.54282   0.96315   0.00000  Uiso   1.00
C852   C     0.82323   0.50775   0.91920   0.00000  Uiso   1.00
C853   C     0.80881   0.50449   0.96016   0.00000  Uiso   1.00
C854   C     0.77083   0.52264   0.98216   0.00000  Uiso   1.00
C855   C     0.83094   0.48376   0.97979   0.00000  Uiso   1.00
C856   C     0.81715   0.48508   0.52153   0.00000  Uiso   1.00
C857   C     0.77606   0.49885   0.54192   0.00000  Uiso   1.00
C858   C     0.75434   0.51870   0.52248   0.00000  Uiso   1.00
F859   F     0.71574   0.53259   0.54283   0.00000  Uiso   1.00
F860   F     0.73858   0.56200   0.90498   0.00000  Uiso   1.00
H861   H     0.68331   0.52666   0.71510   0.00000  Uiso   1.00
H862   H     0.98477   0.47363   0.78519   0.00000  Uiso   1.00
H863   H     0.87441   0.33585   0.71806   0.00000  Uiso   1.00
H864   H     0.82159   0.50977   0.59639   0.00000  Uiso   1.00
H865   H     0.90738   0.42445   0.59907   0.00000  Uiso   1.00
H866   H     0.71935   0.55673   0.97965   0.00000  Uiso   1.00
H867   H     0.85296   0.49649   0.90121   0.00000  Uiso   1.00
H868   H     0.87589   0.45633   0.92720   0.00000  Uiso   1.00
O869   O     0.83333   0.50000   0.75000   0.00000  Uiso   1.00
O870   O     0.82360   0.45726   0.66625   0.00000  Uiso   1.00
O871   O     0.79354   0.53979   0.83749   0.00000  Uiso   1.00
O872   O     0.87755   0.50826   0.65877   0.00000  Uiso   1.00
O873   O     0.83865   0.49468   0.83749   0.00000  Uiso   1.00
O874   O     0.84515   0.41434   0.77821   0.00000  Uiso   1.00
O875   O     0.81247   0.59469   0.76767   0.00000  Uiso   1.00
O876   O     0.74119   0.46584   0.73607   0.00000  Uiso   1.00
O877   O     0.93452   0.52512   0.71806   0.00000  Uiso   1.00
O878   O     0.73656   0.52293   0.77820   0.00000  Uiso   1.00
O879   O     0.92106   0.48610   0.76768   0.00000  Uiso   1.00
O880   O     0.80467   0.40236   0.73607   0.00000  Uiso   1.00
O881   O     0.87104   0.58860   0.71806   0.00000  Uiso   1.00
Zn882  Zn    0.85910   0.47423   0.78278   0.00000  Uiso   1.00
Zn883  Zn    0.80125   0.45711   0.72258   0.00000  Uiso   1.00
Zn884  Zn    0.87833   0.52997   0.71188   0.00000  Uiso   1.00
Zn885  Zn    0.79465   0.53868   0.78277   0.00000  Uiso   1.00
Br886  Br    0.26767   0.71557   0.52229   0.00000  Uiso   1.00
Br887  Br    0.09769   0.99542   0.80159   0.00000  Uiso   1.00
Br888  Br    0.27023   0.74943   0.94241   0.00000  Uiso   1.00
Br889  Br    0.07534   0.81577   0.59282   0.00000  Uiso   1.00
C890   C     0.05246   0.82655   0.75883   0.00000  Uiso   1.00
C891   C     0.19906   0.79419   0.95895   0.00000  Uiso   1.00
C892   C     0.22147   0.77469   0.97793   0.00000  Uiso   1.00
C893   C     0.28102   0.84021   0.74125   0.00000  Uiso   1.00
C894   C     0.21094   0.77913   0.51973   0.00000  Uiso   1.00
C895   C     0.17760   0.80461   0.54106   0.00000  Uiso   1.00
C896   C     0.23245   0.76067   0.54171   0.00000  Uiso   1.00
C897   C     0.22498   0.77226   0.58225   0.00000  Uiso   1.00
C898   C     0.17442   0.81850   0.58095   0.00000  Uiso   1.00
C899   C     0.32697   0.84284   0.73775   0.00000  Uiso   1.00
C900   C     0.00709   0.82420   0.76228   0.00000  Uiso   1.00
C901   C     0.09570   0.87739   0.92240   0.00000  Uiso   1.00
C902   C     0.17991   0.98873   0.73948   0.00000  Uiso   1.00
C903   C     0.15030   0.67953   0.76288   0.00000  Uiso   1.00
C904   C     0.15650   0.72289   0.75838   0.00000  Uiso   1.00
C905   C     0.17654   0.94430   0.74160   0.00000  Uiso   1.00
C906   C     0.18792   0.81208   0.64401   0.00000  Uiso   1.00
C907   C     0.14529   0.85428   0.85635   0.00000  Uiso   1.00
C908   C     0.13281   0.85898   0.89997   0.00000  Uiso   1.00
C909   C     0.19722   0.80197   0.60144   0.00000  Uiso   1.00
C910   C     0.08181   0.87615   0.96315   0.00000  Uiso   1.00
C911   C     0.15656   0.84108   0.91920   0.00000  Uiso   1.00
C912   C     0.14214   0.83782   0.96016   0.00000  Uiso   1.00
C913   C     0.10416   0.85597   0.98216   0.00000  Uiso   1.00
C914   C     0.16427   0.81709   0.97979   0.00000  Uiso   1.00
C915   C     0.15048   0.81842   0.52153   0.00000  Uiso   1.00
C916   C     0.10940   0.83218   0.54192   0.00000  Uiso   1.00
C917   C     0.08767   0.85203   0.52248   0.00000  Uiso   1.00
F918   F     0.04907   0.86593   0.54283   0.00000  Uiso   1.00
F919   F     0.07191   0.89533   0.90498   0.00000  Uiso   1.00
H920   H     0.01665   0.85999   0.71510   0.00000  Uiso   1.00
H921   H     0.31810   0.80696   0.78519   0.00000  Uiso   1.00
H922   H     0.20774   0.66918   0.71806   0.00000  Uiso   1.00
H923   H     0.15492   0.84310   0.59639   0.00000  Uiso   1.00
H924   H     0.24072   0.75778   0.59907   0.00000  Uiso   1.00
H925   H     0.05268   0.89007   0.97965   0.00000  Uiso   1.00
H926   H     0.18629   0.82983   0.90121   0.00000  Uiso   1.00
H927   H     0.20922   0.78966   0.92720   0.00000  Uiso   1.00
O928   O     0.16667   0.83333   0.75000   0.00000  Uiso   1.00
O929   O     0.15693   0.79060   0.66625   0.00000  Uiso   1.00
O930   O     0.12687   0.87313   0.83749   0.00000  Uiso   1.00
O931   O     0.21088   0.84159   0.65877   0.00000  Uiso   1.00
O932   O     0.17198   0.82802   0.83749   0.00000  Uiso   1.00
O933   O     0.17849   0.74768   0.77821   0.00000  Uiso   1.00
O934   O     0.14581   0.92803   0.76767   0.00000  Uiso   1.00
O935   O     0.07452   0.79917   0.73607   0.00000  Uiso   1.00
O936   O     0.26785   0.85845   0.71806   0.00000  Uiso   1.00
O937   O     0.06990   0.85627   0.77820   0.00000  Uiso   1.00
O938   O     0.25440   0.81944   0.76768   0.00000  Uiso   1.00
O939   O     0.13800   0.73570   0.73607   0.00000  Uiso   1.00
O940   O     0.20437   0.92193   0.71806   0.00000  Uiso   1.00
Zn941  Zn    0.19244   0.80756   0.78278   0.00000  Uiso   1.00
Zn942  Zn    0.13459   0.79044   0.72258   0.00000  Uiso   1.00
Zn943  Zn    0.21166   0.86331   0.71188   0.00000  Uiso   1.00
Zn944  Zn    0.12798   0.87202   0.78277   0.00000  Uiso   1.00
Br945  Br    0.60101   0.71557   0.52229   0.00000  Uiso   1.00
Br946  Br    0.43102   0.99542   0.80159   0.00000  Uiso   1.00
Br947  Br    0.60356   0.74943   0.94241   0.00000  Uiso   1.00
Br948  Br    0.40868   0.81577   0.59282   0.00000  Uiso   1.00
C949   C     0.38580   0.82655   0.75883   0.00000  Uiso   1.00
C950   C     0.53240   0.79419   0.95895   0.00000  Uiso   1.00
C951   C     0.55480   0.77469   0.97793   0.00000  Uiso   1.00
C952   C     0.61435   0.84021   0.74125   0.00000  Uiso   1.00
C953   C     0.54428   0.77913   0.51973   0.00000  Uiso   1.00
C954   C     0.51094   0.80461   0.54106   0.00000  Uiso   1.00
C955   C     0.56578   0.76067   0.54171   0.00000  Uiso   1.00
C956   C     0.55831   0.77226   0.58225   0.00000  Uiso   1.00
C957   C     0.50775   0.81850   0.58095   0.00000  Uiso   1.00
C958   C     0.66031   0.84284   0.73775   0.00000  Uiso   1.00
C959   C     0.34042   0.82420   0.76228   0.00000  Uiso   1.00
C960   C     0.42904   0.87739   0.92240   0.00000  Uiso   1.00
C961   C     0.51324   0.98873   0.73948   0.00000  Uiso   1.00
C962   C     0.48363   0.67953   0.76288   0.00000  Uiso   1.00
C963   C     0.48984   0.72289   0.75838   0.00000  Uiso   1.00
C964   C     0.50987   0.94430   0.74160   0.00000  Uiso   1.00
C965   C     0.52125   0.81208   0.64401   0.00000  Uiso   1.00
C966   C     0.47862   0.85428   0.85635   0.00000  Uiso   1.00
C967   C     0.46614   0.85898   0.89997   0.00000  Uiso   1.00
C968   C     0.53055   0.80197   0.60144   0.00000  Uiso   1.00
C969   C     0.41514   0.87615   0.96315   0.00000  Uiso   1.00
C970   C     0.48989   0.84108   0.91920   0.00000  Uiso   1.00
C971   C     0.47547   0.83782   0.96016   0.00000  Uiso   1.00
C972   C     0.43750   0.85597   0.98216   0.00000  Uiso   1.00
C973   C     0.49761   0.81709   0.97979   0.00000  Uiso   1.00
C974   C     0.48382   0.81842   0.52153   0.00000  Uiso   1.00
C975   C     0.44273   0.83218   0.54192   0.00000  Uiso   1.00
C976   C     0.42101   0.85203   0.52248   0.00000  Uiso   1.00
F977   F     0.38240   0.86593   0.54283   0.00000  Uiso   1.00
F978   F     0.40525   0.89533   0.90498   0.00000  Uiso   1.00
H979   H     0.34998   0.85999   0.71510   0.00000  Uiso   1.00
H980   H     0.65144   0.80696   0.78519   0.00000  Uiso   1.00
H981   H     0.54107   0.66918   0.71806   0.00000  Uiso   1.00
H982   H     0.48825   0.84310   0.59639   0.00000  Uiso   1.00
H983   H     0.57405   0.75778   0.59907   0.00000  Uiso   1.00
H984   H     0.38602   0.89007   0.97965   0.00000  Uiso   1.00
H985   H     0.51962   0.82983   0.90121   0.00000  Uiso   1.00
H986   H     0.54256   0.78966   0.92720   0.00000  Uiso   1.00
O987   O     0.50000   0.83333   0.75000   0.00000  Uiso   1.00
O988   O     0.49027   0.79060   0.66625   0.00000  Uiso   1.00
O989   O     0.46020   0.87313   0.83749   0.00000  Uiso   1.00
O990   O     0.54421   0.84159   0.65877   0.00000  Uiso   1.00
O991   O     0.50532   0.82802   0.83749   0.00000  Uiso   1.00
O992   O     0.51182   0.74768   0.77821   0.00000  Uiso   1.00
O993   O     0.47914   0.92803   0.76767   0.00000  Uiso   1.00
O994   O     0.40785   0.79917   0.73607   0.00000  Uiso   1.00
O995   O     0.60119   0.85845   0.71806   0.00000  Uiso   1.00
O996   O     0.40323   0.85627   0.77820   0.00000  Uiso   1.00
O997   O     0.58773   0.81944   0.76768   0.00000  Uiso   1.00
O998   O     0.47133   0.73570   0.73607   0.00000  Uiso   1.00
O999   O     0.53771   0.92193   0.71806   0.00000  Uiso   1.00
Zn1000 Zn    0.52577   0.80756   0.78278   0.00000  Uiso   1.00
Zn1001 Zn    0.46792   0.79044   0.72258   0.00000  Uiso   1.00
Zn1002 Zn    0.54500   0.86331   0.71188   0.00000  Uiso   1.00
Zn1003 Zn    0.46131   0.87202   0.78277   0.00000  Uiso   1.00
Br1004 Br    0.93434   0.71557   0.52229   0.00000  Uiso   1.00
Br1005 Br    0.76435   0.99542   0.80159   0.00000  Uiso   1.00
Br1006 Br    0.93690   0.74943   0.94241   0.00000  Uiso   1.00
Br1007 Br    0.74201   0.81577   0.59282   0.00000  Uiso   1.00
C1008  C     0.71913   0.82655   0.75883   0.00000  Uiso   1.00
C1009  C     0.86573   0.79419   0.95895   0.00000  Uiso   1.00
C1010  C     0.88814   0.77469   0.97793   0.00000  Uiso   1.00
C1011  C     0.94768   0.84021   0.74125   0.00000  Uiso   1.00
C1012  C     0.87761   0.77913   0.51973   0.00000  Uiso   1.00
C1013  C     0.84427   0.80461   0.54106   0.00000  Uiso   1.00
C1014  C     0.89911   0.76067   0.54171   0.00000  Uiso   1.00
C1015  C     0.89164   0.77226   0.58225   0.00000  Uiso   1.00
C1016  C     0.84108   0.81850   0.58095   0.00000  Uiso   1.00
C1017  C     0.99364   0.84284   0.73775   0.00000  Uiso   1.00
C1018  C     0.67375   0.82420   0.76228   0.00000  Uiso   1.00
C1019  C     0.76237   0.87739   0.92240   0.00000  Uiso   1.00
C1020  C     0.84657   0.98873   0.73948   0.00000  Uiso   1.00
C1021  C     0.81697   0.67953   0.76288   0.00000  Uiso   1.00
C1022  C     0.82317   0.72289   0.75838   0.00000  Uiso   1.00
C1023  C     0.84321   0.94430   0.74160   0.00000  Uiso   1.00
C1024  C     0.85459   0.81208   0.64401   0.00000  Uiso   1.00
C1025  C     0.81196   0.85428   0.85635   0.00000  Uiso   1.00
C1026  C     0.79948   0.85898   0.89997   0.00000  Uiso   1.00
C1027  C     0.86389   0.80197   0.60144   0.00000  Uiso   1.00
C1028  C     0.74847   0.87615   0.96315   0.00000  Uiso   1.00
C1029  C     0.82323   0.84108   0.91920   0.00000  Uiso   1.00
C1030  C     0.80881   0.83782   0.96016   0.00000  Uiso   1.00
C1031  C     0.77083   0.85597   0.98216   0.00000  Uiso   1.00
C1032  C     0.83094   0.81709   0.97979   0.00000  Uiso   1.00
C1033  C     0.81715   0.81842   0.52153   0.00000  Uiso   1.00
C1034  C     0.77606   0.83218   0.54192   0.00000  Uiso   1.00
C1035  C     0.75434   0.85203   0.52248   0.00000  Uiso   1.00
F1036  F     0.71574   0.86593   0.54283   0.00000  Uiso   1.00
F1037  F     0.73858   0.89533   0.90498   0.00000  Uiso   1.00
H1038  H     0.68331   0.85999   0.71510   0.00000  Uiso   1.00
H1039  H     0.98477   0.80696   0.78519   0.00000  Uiso   1.00
H1040  H     0.87441   0.66918   0.71806   0.00000  Uiso   1.00
H1041  H     0.82159   0.84310   0.59639   0.00000  Uiso   1.00
H1042  H     0.90738   0.75778   0.59907   0.00000  Uiso   1.00
H1043  H     0.71935   0.89007   0.97965   0.00000  Uiso   1.00
H1044  H     0.85296   0.82983   0.90121   0.00000  Uiso   1.00
H1045  H     0.87589   0.78966   0.92720   0.00000  Uiso   1.00
O1046  O     0.83333   0.83333   0.75000   0.00000  Uiso   1.00
O1047  O     0.82360   0.79060   0.66625   0.00000  Uiso   1.00
O1048  O     0.79354   0.87313   0.83749   0.00000  Uiso   1.00
O1049  O     0.87755   0.84159   0.65877   0.00000  Uiso   1.00
O1050  O     0.83865   0.82802   0.83749   0.00000  Uiso   1.00
O1051  O     0.84515   0.74768   0.77821   0.00000  Uiso   1.00
O1052  O     0.81247   0.92803   0.76767   0.00000  Uiso   1.00
O1053  O     0.74119   0.79917   0.73607   0.00000  Uiso   1.00
O1054  O     0.93452   0.85845   0.71806   0.00000  Uiso   1.00
O1055  O     0.73656   0.85627   0.77820   0.00000  Uiso   1.00
O1056  O     0.92106   0.81944   0.76768   0.00000  Uiso   1.00
O1057  O     0.80467   0.73570   0.73607   0.00000  Uiso   1.00
O1058  O     0.87104   0.92193   0.71806   0.00000  Uiso   1.00
Zn1059 Zn    0.85910   0.80756   0.78278   0.00000  Uiso   1.00
Zn1060 Zn    0.80125   0.79044   0.72258   0.00000  Uiso   1.00
Zn1061 Zn    0.87833   0.86331   0.71188   0.00000  Uiso   1.00
Zn1062 Zn    0.79465   0.87202   0.78277   0.00000  Uiso   1.00
loop_
_geom_bond_atom_site_label_1
_geom_bond_atom_site_label_2
_geom_bond_distance
_geom_bond_site_symmetry_2
_ccdc_geom_bond_type
Br1    C11     1.923   .     S
Br2    C195    1.931   .     S
Br3    C7      1.926   .     S
Br4    C31     1.934   .     S
C5     O52     1.269   .     A
C5     O50     1.269   .     A
C5     C15     1.436   .     S
C6     C7      1.393   .     A
C6     C29     1.410   .     A
C6     H42     1.075   .     S
C7     C540    1.417   .     S
C8     O53     1.279   .     A
C8     O51     1.282   .     A
C8     C14     1.454   .     S
C9     C10     1.431   .     A
C9     C11     1.429   .     A
C9     C538    1.417   1_554 S
C10    C30     1.424   .     A
C10    C13     1.405   .     A
C11    C12     1.396   .     A
C12    H39     1.084   .     S
C12    C24     1.389   .     A
C13    H38     1.081   .     S
C13    C24     1.385   .     A
C14    C74     1.334   .     S
C14    H94     1.088   .     S
C15    C132    1.334   1_455 S
C15    H154    1.086   1_455 S
C16    C23     1.403   .     A
C16    C25     1.393   .     A
C16    F34     1.357   .     S
C17    C20     1.451   .     S
C17    C195    1.344   .     S
C17    H214    1.088   .     S
C18    C19     1.427   .     S
C18    C371    1.344   1_545 S
C18    Br356   1.931   1_545 S
C19    O54     1.271   .     A
C19    O48     1.273   .     A
C20    O55     1.277   .     A
C20    O49     1.262   .     A
C21    O44     1.276   .     A
C21    C24     1.454   .     S
C21    O46     1.278   .     A
C22    O47     1.285   .     A
C22    C23     1.477   .     S
C22    O45     1.285   .     A
C23    C26     1.401   .     A
C25    C28     1.406   .     A
C25    H40     1.083   .     S
C26    C27     1.411   .     A
C26    H41     1.075   .     S
C27    C29     1.427   .     A
C27    C28     1.417   .     A
C28    C563    1.397   .     S
C29    C561    1.418   .     S
C30    C31     1.425   .     A
C30    C560    1.418   1_554 S
C31    C32     1.395   .     A
C32    F33     1.360   .     S
C32    C559    1.397   1_554 S
H35    C132    1.088   1_455 S
H36    C74     1.086   .     S
H37    C371    1.088   1_545 S
O43    Zn59    1.930   .     S
O43    Zn56    1.957   .     S
O43    Zn57    1.941   .     S
O43    Zn58    1.939   .     S
O44    Zn57    1.924   .     S
O45    Zn59    1.932   .     S
O46    Zn58    1.925   .     S
O47    Zn56    1.918   .     S
O48    Zn56    1.937   .     S
O49    Zn59    1.942   .     S
O50    Zn57    1.925   .     S
O51    Zn58    1.934   .     S
O52    Zn59    1.931   .     S
O53    Zn56    1.924   .     S
O54    Zn57    1.945   .     S
O55    Zn58    1.937   .     S
Br60   C70     1.923   .     S
Br61   C254    1.931   .     S
Br62   C66     1.926   .     S
Br63   C90     1.934   .     S
C64    O111    1.269   .     A
C64    O109    1.269   .     A
C64    C74     1.436   .     S
C65    C66     1.393   .     A
C65    C88     1.410   .     A
C65    H101    1.075   .     S
C66    C599    1.417   .     S
C67    O112    1.279   .     A
C67    O110    1.282   .     A
C67    C73     1.454   .     S
C68    C69     1.431   .     A
C68    C70     1.429   .     A
C68    C597    1.417   1_554 S
C69    C89     1.424   .     A
C69    C72     1.405   .     A
C70    C71     1.396   .     A
C71    H98     1.084   .     S
C71    C83     1.389   .     A
C72    H97     1.081   .     S
C72    C83     1.385   .     A
C73    C133    1.334   .     S
C73    H153    1.088   .     S
C75    C82     1.403   .     A
C75    C84     1.393   .     A
C75    F93     1.357   .     S
C76    C79     1.451   .     S
C76    C254    1.344   .     S
C76    H273    1.088   .     S
C77    C78     1.427   .     S
C77    C430    1.344   1_545 S
C77    Br415   1.931   1_545 S
C78    O113    1.271   .     A
C78    O107    1.273   .     A
C79    O114    1.277   .     A
C79    O108    1.262   .     A
C80    O103    1.276   .     A
C80    C83     1.454   .     S
C80    O105    1.278   .     A
C81    O106    1.285   .     A
C81    C82     1.477   .     S
C81    O104    1.285   .     A
C82    C85     1.401   .     A
C84    C87     1.406   .     A
C84    H99     1.083   .     S
C85    C86     1.411   .     A
C85    H100    1.075   .     S
C86    C88     1.427   .     A
C86    C87     1.417   .     A
C87    C622    1.397   .     S
C88    C620    1.418   .     S
C89    C90     1.425   .     A
C89    C619    1.418   1_554 S
C90    C91     1.395   .     A
C91    F92     1.360   .     S
C91    C618    1.397   1_554 S
H95    C133    1.086   .     S
H96    C430    1.088   1_545 S
O102   Zn118   1.930   .     S
O102   Zn115   1.957   .     S
O102   Zn116   1.941   .     S
O102   Zn117   1.939   .     S
O103   Zn116   1.924   .     S
O104   Zn118   1.932   .     S
O105   Zn117   1.925   .     S
O106   Zn115   1.918   .     S
O107   Zn115   1.937   .     S
O108   Zn118   1.942   .     S
O109   Zn116   1.925   .     S
O110   Zn117   1.934   .     S
O111   Zn118   1.931   .     S
O112   Zn115   1.924   .     S
O113   Zn116   1.945   .     S
O114   Zn117   1.937   .     S
Br119  C129    1.923   .     S
Br120  C313    1.931   .     S
Br121  C125    1.926   .     S
Br122  C149    1.934   .     S
C123   O170    1.269   .     A
C123   O168    1.269   .     A
C123   C133    1.436   .     S
C124   C125    1.393   .     A
C124   C147    1.410   .     A
C124   H160    1.075   .     S
C125   C658    1.417   .     S
C126   O171    1.279   .     A
C126   O169    1.282   .     A
C126   C132    1.454   .     S
C127   C128    1.431   .     A
C127   C129    1.429   .     A
C127   C656    1.417   1_554 S
C128   C148    1.424   .     A
C128   C131    1.405   .     A
C129   C130    1.396   .     A
C130   H157    1.084   .     S
C130   C142    1.389   .     A
C131   H156    1.081   .     S
C131   C142    1.385   .     A
C132   C15     1.334   1_655 S
C132   H35     1.088   1_655 S
C134   C141    1.403   .     A
C134   C143    1.393   .     A
C134   F152    1.357   .     S
C135   C138    1.451   .     S
C135   C313    1.344   .     S
C135   H332    1.088   .     S
C136   C137    1.427   .     S
C136   C489    1.344   1_545 S
C136   Br474   1.931   1_545 S
C137   O172    1.271   .     A
C137   O166    1.273   .     A
C138   O173    1.277   .     A
C138   O167    1.262   .     A
C139   O162    1.276   .     A
C139   C142    1.454   .     S
C139   O164    1.278   .     A
C140   O165    1.285   .     A
C140   C141    1.477   .     S
C140   O163    1.285   .     A
C141   C144    1.401   .     A
C143   C146    1.406   .     A
C143   H158    1.083   .     S
C144   C145    1.411   .     A
C144   H159    1.075   .     S
C145   C147    1.427   .     A
C145   C146    1.417   .     A
C146   C681    1.397   .     S
C147   C679    1.418   .     S
C148   C149    1.425   .     A
C148   C678    1.418   1_554 S
C149   C150    1.395   .     A
C150   F151    1.360   .     S
C150   C677    1.397   1_554 S
H154   C15     1.086   1_655 S
H155   C489    1.088   1_545 S
O161   Zn177   1.930   .     S
O161   Zn174   1.957   .     S
O161   Zn175   1.941   .     S
O161   Zn176   1.939   .     S
O162   Zn175   1.924   .     S
O163   Zn177   1.932   .     S
O164   Zn176   1.925   .     S
O165   Zn174   1.918   .     S
O166   Zn174   1.937   .     S
O167   Zn177   1.942   .     S
O168   Zn175   1.925   .     S
O169   Zn176   1.934   .     S
O170   Zn177   1.931   .     S
O171   Zn174   1.924   .     S
O172   Zn175   1.945   .     S
O173   Zn176   1.937   .     S
Br178  C188    1.923   .     S
Br179  C372    1.931   .     S
Br180  C184    1.926   .     S
Br181  C208    1.934   .     S
C182   O229    1.269   .     A
C182   O227    1.269   .     A
C182   C192    1.436   .     S
C183   C184    1.393   .     A
C183   C206    1.410   .     A
C183   H219    1.075   .     S
C184   C717    1.417   .     S
C185   O230    1.279   .     A
C185   O228    1.282   .     A
C185   C191    1.454   .     S
C186   C187    1.431   .     A
C186   C188    1.429   .     A
C186   C715    1.417   1_554 S
C187   C207    1.424   .     A
C187   C190    1.405   .     A
C188   C189    1.396   .     A
C189   H216    1.084   .     S
C189   C201    1.389   .     A
C190   H215    1.081   .     S
C190   C201    1.385   .     A
C191   C251    1.334   .     S
C191   H271    1.088   .     S
C192   C309    1.334   1_455 S
C192   H331    1.086   1_455 S
C193   C200    1.403   .     A
C193   C202    1.393   .     A
C193   F211    1.357   .     S
C194   C197    1.451   .     S
C194   C372    1.344   .     S
C194   H391    1.088   .     S
C195   C196    1.427   .     S
C196   O231    1.271   .     A
C196   O225    1.273   .     A
C197   O232    1.277   .     A
C197   O226    1.262   .     A
C198   O221    1.276   .     A
C198   C201    1.454   .     S
C198   O223    1.278   .     A
C199   O224    1.285   .     A
C199   C200    1.477   .     S
C199   O222    1.285   .     A
C200   C203    1.401   .     A
C202   C205    1.406   .     A
C202   H217    1.083   .     S
C203   C204    1.411   .     A
C203   H218    1.075   .     S
C204   C206    1.427   .     A
C204   C205    1.417   .     A
C205   C740    1.397   .     S
C206   C738    1.418   .     S
C207   C208    1.425   .     A
C207   C737    1.418   1_554 S
C208   C209    1.395   .     A
C209   F210    1.360   .     S
C209   C736    1.397   1_554 S
H212   C309    1.088   1_455 S
H213   C251    1.086   .     S
O220   Zn236   1.930   .     S
O220   Zn233   1.957   .     S
O220   Zn234   1.941   .     S
O220   Zn235   1.939   .     S
O221   Zn234   1.924   .     S
O222   Zn236   1.932   .     S
O223   Zn235   1.925   .     S
O224   Zn233   1.918   .     S
O225   Zn233   1.937   .     S
O226   Zn236   1.942   .     S
O227   Zn234   1.925   .     S
O228   Zn235   1.934   .     S
O229   Zn236   1.931   .     S
O230   Zn233   1.924   .     S
O231   Zn234   1.945   .     S
O232   Zn235   1.937   .     S
Br237  C247    1.923   .     S
Br238  C431    1.931   .     S
Br239  C243    1.926   .     S
Br240  C267    1.934   .     S
C241   O288    1.269   .     A
C241   O286    1.269   .     A
C241   C251    1.436   .     S
C242   C243    1.393   .     A
C242   C265    1.410   .     A
C242   H278    1.075   .     S
C243   C776    1.417   .     S
C244   O289    1.279   .     A
C244   O287    1.282   .     A
C244   C250    1.454   .     S
C245   C246    1.431   .     A
C245   C247    1.429   .     A
C245   C774    1.417   1_554 S
C246   C266    1.424   .     A
C246   C249    1.405   .     A
C247   C248    1.396   .     A
C248   H275    1.084   .     S
C248   C260    1.389   .     A
C249   H274    1.081   .     S
C249   C260    1.385   .     A
C250   C310    1.334   .     S
C250   H330    1.088   .     S
C252   C259    1.403   .     A
C252   C261    1.393   .     A
C252   F270    1.357   .     S
C253   C256    1.451   .     S
C253   C431    1.344   .     S
C253   H450    1.088   .     S
C254   C255    1.427   .     S
C255   O290    1.271   .     A
C255   O284    1.273   .     A
C256   O291    1.277   .     A
C256   O285    1.262   .     A
C257   O280    1.276   .     A
C257   C260    1.454   .     S
C257   O282    1.278   .     A
C258   O283    1.285   .     A
C258   C259    1.477   .     S
C258   O281    1.285   .     A
C259   C262    1.401   .     A
C261   C264    1.406   .     A
C261   H276    1.083   .     S
C262   C263    1.411   .     A
C262   H277    1.075   .     S
C263   C265    1.427   .     A
C263   C264    1.417   .     A
C264   C799    1.397   .     S
C265   C797    1.418   .     S
C266   C267    1.425   .     A
C266   C796    1.418   1_554 S
C267   C268    1.395   .     A
C268   F269    1.360   .     S
C268   C795    1.397   1_554 S
H272   C310    1.086   .     S
O279   Zn295   1.930   .     S
O279   Zn292   1.957   .     S
O279   Zn293   1.941   .     S
O279   Zn294   1.939   .     S
O280   Zn293   1.924   .     S
O281   Zn295   1.932   .     S
O282   Zn294   1.925   .     S
O283   Zn292   1.918   .     S
O284   Zn292   1.937   .     S
O285   Zn295   1.942   .     S
O286   Zn293   1.925   .     S
O287   Zn294   1.934   .     S
O288   Zn295   1.931   .     S
O289   Zn292   1.924   .     S
O290   Zn293   1.945   .     S
O291   Zn294   1.937   .     S
Br296  C306    1.923   .     S
Br297  C490    1.931   .     S
Br298  C302    1.926   .     S
Br299  C326    1.934   .     S
C300   O347    1.269   .     A
C300   O345    1.269   .     A
C300   C310    1.436   .     S
C301   C302    1.393   .     A
C301   C324    1.410   .     A
C301   H337    1.075   .     S
C302   C835    1.417   .     S
C303   O348    1.279   .     A
C303   O346    1.282   .     A
C303   C309    1.454   .     S
C304   C305    1.431   .     A
C304   C306    1.429   .     A
C304   C833    1.417   1_554 S
C305   C325    1.424   .     A
C305   C308    1.405   .     A
C306   C307    1.396   .     A
C307   H334    1.084   .     S
C307   C319    1.389   .     A
C308   H333    1.081   .     S
C308   C319    1.385   .     A
C309   C192    1.334   1_655 S
C309   H212    1.088   1_655 S
C311   C318    1.403   .     A
C311   C320    1.393   .     A
C311   F329    1.357   .     S
C312   C315    1.451   .     S
C312   C490    1.344   .     S
C312   H509    1.088   .     S
C313   C314    1.427   .     S
C314   O349    1.271   .     A
C314   O343    1.273   .     A
C315   O350    1.277   .     A
C315   O344    1.262   .     A
C316   O339    1.276   .     A
C316   C319    1.454   .     S
C316   O341    1.278   .     A
C317   O342    1.285   .     A
C317   C318    1.477   .     S
C317   O340    1.285   .     A
C318   C321    1.401   .     A
C320   C323    1.406   .     A
C320   H335    1.083   .     S
C321   C322    1.411   .     A
C321   H336    1.075   .     S
C322   C324    1.427   .     A
C322   C323    1.417   .     A
C323   C858    1.397   .     S
C324   C856    1.418   .     S
C325   C326    1.425   .     A
C325   C855    1.418   1_554 S
C326   C327    1.395   .     A
C327   F328    1.360   .     S
C327   C854    1.397   1_554 S
H331   C192    1.086   1_655 S
O338   Zn354   1.930   .     S
O338   Zn351   1.957   .     S
O338   Zn352   1.941   .     S
O338   Zn353   1.939   .     S
O339   Zn352   1.924   .     S
O340   Zn354   1.932   .     S
O341   Zn353   1.925   .     S
O342   Zn351   1.918   .     S
O343   Zn351   1.937   .     S
O344   Zn354   1.942   .     S
O345   Zn352   1.925   .     S
O346   Zn353   1.934   .     S
O347   Zn354   1.931   .     S
O348   Zn351   1.924   .     S
O349   Zn352   1.945   .     S
O350   Zn353   1.937   .     S
Br355  C365    1.923   .     S
Br356  C18     1.931   1_565 S
Br357  C361    1.926   .     S
Br358  C385    1.934   .     S
C359   O406    1.269   .     A
C359   O404    1.269   .     A
C359   C369    1.436   .     S
C360   C361    1.393   .     A
C360   C383    1.410   .     A
C360   H396    1.075   .     S
C361   C894    1.417   .     S
C362   O407    1.279   .     A
C362   O405    1.282   .     A
C362   C368    1.454   .     S
C363   C364    1.431   .     A
C363   C365    1.429   .     A
C363   C892    1.417   1_554 S
C364   C384    1.424   .     A
C364   C367    1.405   .     A
C365   C366    1.396   .     A
C366   H393    1.084   .     S
C366   C378    1.389   .     A
C367   H392    1.081   .     S
C367   C378    1.385   .     A
C368   C428    1.334   .     S
C368   H448    1.088   .     S
C369   C486    1.334   1_455 S
C369   H508    1.086   1_455 S
C370   C377    1.403   .     A
C370   C379    1.393   .     A
C370   F388    1.357   .     S
C371   C374    1.451   .     S
C371   C18     1.344   1_565 S
C371   H37     1.088   1_565 S
C372   C373    1.427   .     S
C373   O408    1.271   .     A
C373   O402    1.273   .     A
C374   O409    1.277   .     A
C374   O403    1.262   .     A
C375   O398    1.276   .     A
C375   C378    1.454   .     S
C375   O400    1.278   .     A
C376   O401    1.285   .     A
C376   C377    1.477   .     S
C376   O399    1.285   .     A
C377   C380    1.401   .     A
C379   C382    1.406   .     A
C379   H394    1.083   .     S
C380   C381    1.411   .     A
C380   H395    1.075   .     S
C381   C383    1.427   .     A
C381   C382    1.417   .     A
C382   C917    1.397   .     S
C383   C915    1.418   .     S
C384   C385    1.425   .     A
C384   C914    1.418   1_554 S
C385   C386    1.395   .     A
C386   F387    1.360   .     S
C386   C913    1.397   1_554 S
H389   C486    1.088   1_455 S
H390   C428    1.086   .     S
O397   Zn413   1.930   .     S
O397   Zn410   1.957   .     S
O397   Zn411   1.941   .     S
O397   Zn412   1.939   .     S
O398   Zn411   1.924   .     S
O399   Zn413   1.932   .     S
O400   Zn412   1.925   .     S
O401   Zn410   1.918   .     S
O402   Zn410   1.937   .     S
O403   Zn413   1.942   .     S
O404   Zn411   1.925   .     S
O405   Zn412   1.934   .     S
O406   Zn413   1.931   .     S
O407   Zn410   1.924   .     S
O408   Zn411   1.945   .     S
O409   Zn412   1.937   .     S
Br414  C424    1.923   .     S
Br415  C77     1.931   1_565 S
Br416  C420    1.926   .     S
Br417  C444    1.934   .     S
C418   O465    1.269   .     A
C418   O463    1.269   .     A
C418   C428    1.436   .     S
C419   C420    1.393   .     A
C419   C442    1.410   .     A
C419   H455    1.075   .     S
C420   C953    1.417   .     S
C421   O466    1.279   .     A
C421   O464    1.282   .     A
C421   C427    1.454   .     S
C422   C423    1.431   .     A
C422   C424    1.429   .     A
C422   C951    1.417   1_554 S
C423   C443    1.424   .     A
C423   C426    1.405   .     A
C424   C425    1.396   .     A
C425   H452    1.084   .     S
C425   C437    1.389   .     A
C426   H451    1.081   .     S
C426   C437    1.385   .     A
C427   C487    1.334   .     S
C427   H507    1.088   .     S
C429   C436    1.403   .     A
C429   C438    1.393   .     A
C429   F447    1.357   .     S
C430   C433    1.451   .     S
C430   C77     1.344   1_565 S
C430   H96     1.088   1_565 S
C431   C432    1.427   .     S
C432   O467    1.271   .     A
C432   O461    1.273   .     A
C433   O468    1.277   .     A
C433   O462    1.262   .     A
C434   O457    1.276   .     A
C434   C437    1.454   .     S
C434   O459    1.278   .     A
C435   O460    1.285   .     A
C435   C436    1.477   .     S
C435   O458    1.285   .     A
C436   C439    1.401   .     A
C438   C441    1.406   .     A
C438   H453    1.083   .     S
C439   C440    1.411   .     A
C439   H454    1.075   .     S
C440   C442    1.427   .     A
C440   C441    1.417   .     A
C441   C976    1.397   .     S
C442   C974    1.418   .     S
C443   C444    1.425   .     A
C443   C973    1.418   1_554 S
C444   C445    1.395   .     A
C445   F446    1.360   .     S
C445   C972    1.397   1_554 S
H449   C487    1.086   .     S
O456   Zn472   1.930   .     S
O456   Zn469   1.957   .     S
O456   Zn470   1.941   .     S
O456   Zn471   1.939   .     S
O457   Zn470   1.924   .     S
O458   Zn472   1.932   .     S
O459   Zn471   1.925   .     S
O460   Zn469   1.918   .     S
O461   Zn469   1.937   .     S
O462   Zn472   1.942   .     S
O463   Zn470   1.925   .     S
O464   Zn471   1.934   .     S
O465   Zn472   1.931   .     S
O466   Zn469   1.924   .     S
O467   Zn470   1.945   .     S
O468   Zn471   1.937   .     S
Br473  C483    1.923   .     S
Br474  C136    1.931   1_565 S
Br475  C479    1.926   .     S
Br476  C503    1.934   .     S
C477   O524    1.269   .     A
C477   O522    1.269   .     A
C477   C487    1.436   .     S
C478   C479    1.393   .     A
C478   C501    1.410   .     A
C478   H514    1.075   .     S
C479   C1012   1.417   .     S
C480   O525    1.279   .     A
C480   O523    1.282   .     A
C480   C486    1.454   .     S
C481   C482    1.431   .     A
C481   C483    1.429   .     A
C481   C1010   1.417   1_554 S
C482   C502    1.424   .     A
C482   C485    1.405   .     A
C483   C484    1.396   .     A
C484   H511    1.084   .     S
C484   C496    1.389   .     A
C485   H510    1.081   .     S
C485   C496    1.385   .     A
C486   C369    1.334   1_655 S
C486   H389    1.088   1_655 S
C488   C495    1.403   .     A
C488   C497    1.393   .     A
C488   F506    1.357   .     S
C489   C492    1.451   .     S
C489   C136    1.344   1_565 S
C489   H155    1.088   1_565 S
C490   C491    1.427   .     S
C491   O526    1.271   .     A
C491   O520    1.273   .     A
C492   O527    1.277   .     A
C492   O521    1.262   .     A
C493   O516    1.276   .     A
C493   C496    1.454   .     S
C493   O518    1.278   .     A
C494   O519    1.285   .     A
C494   C495    1.477   .     S
C494   O517    1.285   .     A
C495   C498    1.401   .     A
C497   C500    1.406   .     A
C497   H512    1.083   .     S
C498   C499    1.411   .     A
C498   H513    1.075   .     S
C499   C501    1.427   .     A
C499   C500    1.417   .     A
C500   C1035   1.397   .     S
C501   C1033   1.418   .     S
C502   C503    1.425   .     A
C502   C1032   1.418   1_554 S
C503   C504    1.395   .     A
C504   F505    1.360   .     S
C504   C1031   1.397   1_554 S
H508   C369    1.086   1_655 S
O515   Zn531   1.930   .     S
O515   Zn528   1.957   .     S
O515   Zn529   1.941   .     S
O515   Zn530   1.939   .     S
O516   Zn529   1.924   .     S
O517   Zn531   1.932   .     S
O518   Zn530   1.925   .     S
O519   Zn528   1.918   .     S
O520   Zn528   1.937   .     S
O521   Zn531   1.942   .     S
O522   Zn529   1.925   .     S
O523   Zn530   1.934   .     S
O524   Zn531   1.931   .     S
O525   Zn528   1.924   .     S
O526   Zn529   1.945   .     S
O527   Zn530   1.937   .     S
Br532  C542    1.923   .     S
Br533  C726    1.931   .     S
Br534  C538    1.926   .     S
Br535  C562    1.934   .     S
C536   O583    1.269   .     A
C536   O581    1.269   .     A
C536   C546    1.436   .     S
C537   C538    1.393   .     A
C537   C560    1.410   .     A
C537   H573    1.075   .     S
C538   C9      1.417   1_556 S
C539   O584    1.279   .     A
C539   O582    1.282   .     A
C539   C545    1.454   .     S
C540   C541    1.431   .     A
C540   C542    1.429   .     A
C541   C561    1.424   .     A
C541   C544    1.405   .     A
C542   C543    1.396   .     A
C543   H570    1.084   .     S
C543   C555    1.389   .     A
C544   H569    1.081   .     S
C544   C555    1.385   .     A
C545   C605    1.334   .     S
C545   H625    1.088   .     S
C546   C663    1.334   1_455 S
C546   H685    1.086   1_455 S
C547   C554    1.403   .     A
C547   C556    1.393   .     A
C547   F565    1.357   .     S
C548   C551    1.451   .     S
C548   C726    1.344   .     S
C548   H745    1.088   .     S
C549   C550    1.427   .     S
C549   C902    1.344   1_545 S
C549   Br887   1.931   1_545 S
C550   O585    1.271   .     A
C550   O579    1.273   .     A
C551   O586    1.277   .     A
C551   O580    1.262   .     A
C552   O575    1.276   .     A
C552   C555    1.454   .     S
C552   O577    1.278   .     A
C553   O578    1.285   .     A
C553   C554    1.477   .     S
C553   O576    1.285   .     A
C554   C557    1.401   .     A
C556   C559    1.406   .     A
C556   H571    1.083   .     S
C557   C558    1.411   .     A
C557   H572    1.075   .     S
C558   C560    1.427   .     A
C558   C559    1.417   .     A
C559   C32     1.397   1_556 S
C560   C30     1.418   1_556 S
C561   C562    1.425   .     A
C562   C563    1.395   .     A
C563   F564    1.360   .     S
H566   C663    1.088   1_455 S
H567   C605    1.086   .     S
H568   C902    1.088   1_545 S
O574   Zn590   1.930   .     S
O574   Zn587   1.957   .     S
O574   Zn588   1.941   .     S
O574   Zn589   1.939   .     S
O575   Zn588   1.924   .     S
O576   Zn590   1.932   .     S
O577   Zn589   1.925   .     S
O578   Zn587   1.918   .     S
O579   Zn587   1.937   .     S
O580   Zn590   1.942   .     S
O581   Zn588   1.925   .     S
O582   Zn589   1.934   .     S
O583   Zn590   1.931   .     S
O584   Zn587   1.924   .     S
O585   Zn588   1.945   .     S
O586   Zn589   1.937   .     S
Br591  C601    1.923   .     S
Br592  C785    1.931   .     S
Br593  C597    1.926   .     S
Br594  C621    1.934   .     S
C595   O642    1.269   .     A
C595   O640    1.269   .     A
C595   C605    1.436   .     S
C596   C597    1.393   .     A
C596   C619    1.410   .     A
C596   H632    1.075   .     S
C597   C68     1.417   1_556 S
C598   O643    1.279   .     A
C598   O641    1.282   .     A
C598   C604    1.454   .     S
C599   C600    1.431   .     A
C599   C601    1.429   .     A
C600   C620    1.424   .     A
C600   C603    1.405   .     A
C601   C602    1.396   .     A
C602   H629    1.084   .     S
C602   C614    1.389   .     A
C603   H628    1.081   .     S
C603   C614    1.385   .     A
C604   C664    1.334   .     S
C604   H684    1.088   .     S
C606   C613    1.403   .     A
C606   C615    1.393   .     A
C606   F624    1.357   .     S
C607   C610    1.451   .     S
C607   C785    1.344   .     S
C607   H804    1.088   .     S
C608   C609    1.427   .     S
C608   C961    1.344   1_545 S
C608   Br946   1.931   1_545 S
C609   O644    1.271   .     A
C609   O638    1.273   .     A
C610   O645    1.277   .     A
C610   O639    1.262   .     A
C611   O634    1.276   .     A
C611   C614    1.454   .     S
C611   O636    1.278   .     A
C612   O637    1.285   .     A
C612   C613    1.477   .     S
C612   O635    1.285   .     A
C613   C616    1.401   .     A
C615   C618    1.406   .     A
C615   H630    1.083   .     S
C616   C617    1.411   .     A
C616   H631    1.075   .     S
C617   C619    1.427   .     A
C617   C618    1.417   .     A
C618   C91     1.397   1_556 S
C619   C89     1.418   1_556 S
C620   C621    1.425   .     A
C621   C622    1.395   .     A
C622   F623    1.360   .     S
H626   C664    1.086   .     S
H627   C961    1.088   1_545 S
O633   Zn649   1.930   .     S
O633   Zn646   1.957   .     S
O633   Zn647   1.941   .     S
O633   Zn648   1.939   .     S
O634   Zn647   1.924   .     S
O635   Zn649   1.932   .     S
O636   Zn648   1.925   .     S
O637   Zn646   1.918   .     S
O638   Zn646   1.937   .     S
O639   Zn649   1.942   .     S
O640   Zn647   1.925   .     S
O641   Zn648   1.934   .     S
O642   Zn649   1.931   .     S
O643   Zn646   1.924   .     S
O644   Zn647   1.945   .     S
O645   Zn648   1.937   .     S
Br650  C660    1.923   .     S
Br651  C844    1.931   .     S
Br652  C656    1.926   .     S
Br653  C680    1.934   .     S
C654   O701    1.269   .     A
C654   O699    1.269   .     A
C654   C664    1.436   .     S
C655   C656    1.393   .     A
C655   C678    1.410   .     A
C655   H691    1.075   .     S
C656   C127    1.417   1_556 S
C657   O702    1.279   .     A
C657   O700    1.282   .     A
C657   C663    1.454   .     S
C658   C659    1.431   .     A
C658   C660    1.429   .     A
C659   C679    1.424   .     A
C659   C662    1.405   .     A
C660   C661    1.396   .     A
C661   H688    1.084   .     S
C661   C673    1.389   .     A
C662   H687    1.081   .     S
C662   C673    1.385   .     A
C663   C546    1.334   1_655 S
C663   H566    1.088   1_655 S
C665   C672    1.403   .     A
C665   C674    1.393   .     A
C665   F683    1.357   .     S
C666   C669    1.451   .     S
C666   C844    1.344   .     S
C666   H863    1.088   .     S
C667   C668    1.427   .     S
C667   C1020   1.344   1_545 S
C667   Br1005  1.931   1_545 S
C668   O703    1.271   .     A
C668   O697    1.273   .     A
C669   O704    1.277   .     A
C669   O698    1.262   .     A
C670   O693    1.276   .     A
C670   C673    1.454   .     S
C670   O695    1.278   .     A
C671   O696    1.285   .     A
C671   C672    1.477   .     S
C671   O694    1.285   .     A
C672   C675    1.401   .     A
C674   C677    1.406   .     A
C674   H689    1.083   .     S
C675   C676    1.411   .     A
C675   H690    1.075   .     S
C676   C678    1.427   .     A
C676   C677    1.417   .     A
C677   C150    1.397   1_556 S
C678   C148    1.418   1_556 S
C679   C680    1.425   .     A
C680   C681    1.395   .     A
C681   F682    1.360   .     S
H685   C546    1.086   1_655 S
H686   C1020   1.088   1_545 S
O692   Zn708   1.930   .     S
O692   Zn705   1.957   .     S
O692   Zn706   1.941   .     S
O692   Zn707   1.939   .     S
O693   Zn706   1.924   .     S
O694   Zn708   1.932   .     S
O695   Zn707   1.925   .     S
O696   Zn705   1.918   .     S
O697   Zn705   1.937   .     S
O698   Zn708   1.942   .     S
O699   Zn706   1.925   .     S
O700   Zn707   1.934   .     S
O701   Zn708   1.931   .     S
O702   Zn705   1.924   .     S
O703   Zn706   1.945   .     S
O704   Zn707   1.937   .     S
Br709  C719    1.923   .     S
Br710  C903    1.931   .     S
Br711  C715    1.926   .     S
Br712  C739    1.934   .     S
C713   O760    1.269   .     A
C713   O758    1.269   .     A
C713   C723    1.436   .     S
C714   C715    1.393   .     A
C714   C737    1.410   .     A
C714   H750    1.075   .     S
C715   C186    1.417   1_556 S
C716   O761    1.279   .     A
C716   O759    1.282   .     A
C716   C722    1.454   .     S
C717   C718    1.431   .     A
C717   C719    1.429   .     A
C718   C738    1.424   .     A
C718   C721    1.405   .     A
C719   C720    1.396   .     A
C720   H747    1.084   .     S
C720   C732    1.389   .     A
C721   H746    1.081   .     S
C721   C732    1.385   .     A
C722   C782    1.334   .     S
C722   H802    1.088   .     S
C723   C840    1.334   1_455 S
C723   H862    1.086   1_455 S
C724   C731    1.403   .     A
C724   C733    1.393   .     A
C724   F742    1.357   .     S
C725   C728    1.451   .     S
C725   C903    1.344   .     S
C725   H922    1.088   .     S
C726   C727    1.427   .     S
C727   O762    1.271   .     A
C727   O756    1.273   .     A
C728   O763    1.277   .     A
C728   O757    1.262   .     A
C729   O752    1.276   .     A
C729   C732    1.454   .     S
C729   O754    1.278   .     A
C730   O755    1.285   .     A
C730   C731    1.477   .     S
C730   O753    1.285   .     A
C731   C734    1.401   .     A
C733   C736    1.406   .     A
C733   H748    1.083   .     S
C734   C735    1.411   .     A
C734   H749    1.075   .     S
C735   C737    1.427   .     A
C735   C736    1.417   .     A
C736   C209    1.397   1_556 S
C737   C207    1.418   1_556 S
C738   C739    1.425   .     A
C739   C740    1.395   .     A
C740   F741    1.360   .     S
H743   C840    1.088   1_455 S
H744   C782    1.086   .     S
O751   Zn767   1.930   .     S
O751   Zn764   1.957   .     S
O751   Zn765   1.941   .     S
O751   Zn766   1.939   .     S
O752   Zn765   1.924   .     S
O753   Zn767   1.932   .     S
O754   Zn766   1.925   .     S
O755   Zn764   1.918   .     S
O756   Zn764   1.937   .     S
O757   Zn767   1.942   .     S
O758   Zn765   1.925   .     S
O759   Zn766   1.934   .     S
O760   Zn767   1.931   .     S
O761   Zn764   1.924   .     S
O762   Zn765   1.945   .     S
O763   Zn766   1.937   .     S
Br768  C778    1.923   .     S
Br769  C962    1.931   .     S
Br770  C774    1.926   .     S
Br771  C798    1.934   .     S
C772   O819    1.269   .     A
C772   O817    1.269   .     A
C772   C782    1.436   .     S
C773   C774    1.393   .     A
C773   C796    1.410   .     A
C773   H809    1.075   .     S
C774   C245    1.417   1_556 S
C775   O820    1.279   .     A
C775   O818    1.282   .     A
C775   C781    1.454   .     S
C776   C777    1.431   .     A
C776   C778    1.429   .     A
C777   C797    1.424   .     A
C777   C780    1.405   .     A
C778   C779    1.396   .     A
C779   H806    1.084   .     S
C779   C791    1.389   .     A
C780   H805    1.081   .     S
C780   C791    1.385   .     A
C781   C841    1.334   .     S
C781   H861    1.088   .     S
C783   C790    1.403   .     A
C783   C792    1.393   .     A
C783   F801    1.357   .     S
C784   C787    1.451   .     S
C784   C962    1.344   .     S
C784   H981    1.088   .     S
C785   C786    1.427   .     S
C786   O821    1.271   .     A
C786   O815    1.273   .     A
C787   O822    1.277   .     A
C787   O816    1.262   .     A
C788   O811    1.276   .     A
C788   C791    1.454   .     S
C788   O813    1.278   .     A
C789   O814    1.285   .     A
C789   C790    1.477   .     S
C789   O812    1.285   .     A
C790   C793    1.401   .     A
C792   C795    1.406   .     A
C792   H807    1.083   .     S
C793   C794    1.411   .     A
C793   H808    1.075   .     S
C794   C796    1.427   .     A
C794   C795    1.417   .     A
C795   C268    1.397   1_556 S
C796   C266    1.418   1_556 S
C797   C798    1.425   .     A
C798   C799    1.395   .     A
C799   F800    1.360   .     S
H803   C841    1.086   .     S
O810   Zn826   1.930   .     S
O810   Zn823   1.957   .     S
O810   Zn824   1.941   .     S
O810   Zn825   1.939   .     S
O811   Zn824   1.924   .     S
O812   Zn826   1.932   .     S
O813   Zn825   1.925   .     S
O814   Zn823   1.918   .     S
O815   Zn823   1.937   .     S
O816   Zn826   1.942   .     S
O817   Zn824   1.925   .     S
O818   Zn825   1.934   .     S
O819   Zn826   1.931   .     S
O820   Zn823   1.924   .     S
O821   Zn824   1.945   .     S
O822   Zn825   1.937   .     S
Br827  C837    1.923   .     S
Br828  C1021   1.931   .     S
Br829  C833    1.926   .     S
Br830  C857    1.934   .     S
C831   O878    1.269   .     A
C831   O876    1.269   .     A
C831   C841    1.436   .     S
C832   C833    1.393   .     A
C832   C855    1.410   .     A
C832   H868    1.075   .     S
C833   C304    1.417   1_556 S
C834   O879    1.279   .     A
C834   O877    1.282   .     A
C834   C840    1.454   .     S
C835   C836    1.431   .     A
C835   C837    1.429   .     A
C836   C856    1.424   .     A
C836   C839    1.405   .     A
C837   C838    1.396   .     A
C838   H865    1.084   .     S
C838   C850    1.389   .     A
C839   H864    1.081   .     S
C839   C850    1.385   .     A
C840   C723    1.334   1_655 S
C840   H743    1.088   1_655 S
C842   C849    1.403   .     A
C842   C851    1.393   .     A
C842   F860    1.357   .     S
C843   C846    1.451   .     S
C843   C1021   1.344   .     S
C843   H1040   1.088   .     S
C844   C845    1.427   .     S
C845   O880    1.271   .     A
C845   O874    1.273   .     A
C846   O881    1.277   .     A
C846   O875    1.262   .     A
C847   O870    1.276   .     A
C847   C850    1.454   .     S
C847   O872    1.278   .     A
C848   O873    1.285   .     A
C848   C849    1.477   .     S
C848   O871    1.285   .     A
C849   C852    1.401   .     A
C851   C854    1.406   .     A
C851   H866    1.083   .     S
C852   C853    1.411   .     A
C852   H867    1.075   .     S
C853   C855    1.427   .     A
C853   C854    1.417   .     A
C854   C327    1.397   1_556 S
C855   C325    1.418   1_556 S
C856   C857    1.425   .     A
C857   C858    1.395   .     A
C858   F859    1.360   .     S
H862   C723    1.086   1_655 S
O869   Zn885   1.930   .     S
O869   Zn882   1.957   .     S
O869   Zn883   1.941   .     S
O869   Zn884   1.939   .     S
O870   Zn883   1.924   .     S
O871   Zn885   1.932   .     S
O872   Zn884   1.925   .     S
O873   Zn882   1.918   .     S
O874   Zn882   1.937   .     S
O875   Zn885   1.942   .     S
O876   Zn883   1.925   .     S
O877   Zn884   1.934   .     S
O878   Zn885   1.931   .     S
O879   Zn882   1.924   .     S
O880   Zn883   1.945   .     S
O881   Zn884   1.937   .     S
Br886  C896    1.923   .     S
Br887  C549    1.931   1_565 S
Br888  C892    1.926   .     S
Br889  C916    1.934   .     S
C890   O937    1.269   .     A
C890   O935    1.269   .     A
C890   C900    1.436   .     S
C891   C892    1.393   .     A
C891   C914    1.410   .     A
C891   H927    1.075   .     S
C892   C363    1.417   1_556 S
C893   O938    1.279   .     A
C893   O936    1.282   .     A
C893   C899    1.454   .     S
C894   C895    1.431   .     A
C894   C896    1.429   .     A
C895   C915    1.424   .     A
C895   C898    1.405   .     A
C896   C897    1.396   .     A
C897   H924    1.084   .     S
C897   C909    1.389   .     A
C898   H923    1.081   .     S
C898   C909    1.385   .     A
C899   C959    1.334   .     S
C899   H979    1.088   .     S
C900   C1017   1.334   1_455 S
C900   H1039   1.086   1_455 S
C901   C908    1.403   .     A
C901   C910    1.393   .     A
C901   F919    1.357   .     S
C902   C905    1.451   .     S
C902   C549    1.344   1_565 S
C902   H568    1.088   1_565 S
C903   C904    1.427   .     S
C904   O939    1.271   .     A
C904   O933    1.273   .     A
C905   O940    1.277   .     A
C905   O934    1.262   .     A
C906   O929    1.276   .     A
C906   C909    1.454   .     S
C906   O931    1.278   .     A
C907   O932    1.285   .     A
C907   C908    1.477   .     S
C907   O930    1.285   .     A
C908   C911    1.401   .     A
C910   C913    1.406   .     A
C910   H925    1.083   .     S
C911   C912    1.411   .     A
C911   H926    1.075   .     S
C912   C914    1.427   .     A
C912   C913    1.417   .     A
C913   C386    1.397   1_556 S
C914   C384    1.418   1_556 S
C915   C916    1.425   .     A
C916   C917    1.395   .     A
C917   F918    1.360   .     S
H920   C1017   1.088   1_455 S
H921   C959    1.086   .     S
O928   Zn944   1.930   .     S
O928   Zn941   1.957   .     S
O928   Zn942   1.941   .     S
O928   Zn943   1.939   .     S
O929   Zn942   1.924   .     S
O930   Zn944   1.932   .     S
O931   Zn943   1.925   .     S
O932   Zn941   1.918   .     S
O933   Zn941   1.937   .     S
O934   Zn944   1.942   .     S
O935   Zn942   1.925   .     S
O936   Zn943   1.934   .     S
O937   Zn944   1.931   .     S
O938   Zn941   1.924   .     S
O939   Zn942   1.945   .     S
O940   Zn943   1.937   .     S
Br945  C955    1.923   .     S
Br946  C608    1.931   1_565 S
Br947  C951    1.926   .     S
Br948  C975    1.934   .     S
C949   O996    1.269   .     A
C949   O994    1.269   .     A
C949   C959    1.436   .     S
C950   C951    1.393   .     A
C950   C973    1.410   .     A
C950   H986    1.075   .     S
C951   C422    1.417   1_556 S
C952   O997    1.279   .     A
C952   O995    1.282   .     A
C952   C958    1.454   .     S
C953   C954    1.431   .     A
C953   C955    1.429   .     A
C954   C974    1.424   .     A
C954   C957    1.405   .     A
C955   C956    1.396   .     A
C956   H983    1.084   .     S
C956   C968    1.389   .     A
C957   H982    1.081   .     S
C957   C968    1.385   .     A
C958   C1018   1.334   .     S
C958   H1038   1.088   .     S
C960   C967    1.403   .     A
C960   C969    1.393   .     A
C960   F978    1.357   .     S
C961   C964    1.451   .     S
C961   C608    1.344   1_565 S
C961   H627    1.088   1_565 S
C962   C963    1.427   .     S
C963   O998    1.271   .     A
C963   O992    1.273   .     A
C964   O999    1.277   .     A
C964   O993    1.262   .     A
C965   O988    1.276   .     A
C965   C968    1.454   .     S
C965   O990    1.278   .     A
C966   O991    1.285   .     A
C966   C967    1.477   .     S
C966   O989    1.285   .     A
C967   C970    1.401   .     A
C969   C972    1.406   .     A
C969   H984    1.083   .     S
C970   C971    1.411   .     A
C970   H985    1.075   .     S
C971   C973    1.427   .     A
C971   C972    1.417   .     A
C972   C445    1.397   1_556 S
C973   C443    1.418   1_556 S
C974   C975    1.425   .     A
C975   C976    1.395   .     A
C976   F977    1.360   .     S
H980   C1018   1.086   .     S
O987   Zn1003  1.930   .     S
O987   Zn1000  1.957   .     S
O987   Zn1001  1.941   .     S
O987   Zn1002  1.939   .     S
O988   Zn1001  1.924   .     S
O989   Zn1003  1.932   .     S
O990   Zn1002  1.925   .     S
O991   Zn1000  1.918   .     S
O992   Zn1000  1.937   .     S
O993   Zn1003  1.942   .     S
O994   Zn1001  1.925   .     S
O995   Zn1002  1.934   .     S
O996   Zn1003  1.931   .     S
O997   Zn1000  1.924   .     S
O998   Zn1001  1.945   .     S
O999   Zn1002  1.937   .     S
Br1004 C1014   1.923   .     S
Br1005 C667    1.931   1_565 S
Br1006 C1010   1.926   .     S
Br1007 C1034   1.934   .     S
C1008  O1055   1.269   .     A
C1008  O1053   1.269   .     A
C1008  C1018   1.436   .     S
C1009  C1010   1.393   .     A
C1009  C1032   1.410   .     A
C1009  H1045   1.075   .     S
C1010  C481    1.417   1_556 S
C1011  O1056   1.279   .     A
C1011  O1054   1.282   .     A
C1011  C1017   1.454   .     S
C1012  C1013   1.431   .     A
C1012  C1014   1.429   .     A
C1013  C1033   1.424   .     A
C1013  C1016   1.405   .     A
C1014  C1015   1.396   .     A
C1015  H1042   1.084   .     S
C1015  C1027   1.389   .     A
C1016  H1041   1.081   .     S
C1016  C1027   1.385   .     A
C1017  C900    1.334   1_655 S
C1017  H920    1.088   1_655 S
C1019  C1026   1.403   .     A
C1019  C1028   1.393   .     A
C1019  F1037   1.357   .     S
C1020  C1023   1.451   .     S
C1020  C667    1.344   1_565 S
C1020  H686    1.088   1_565 S
C1021  C1022   1.427   .     S
C1022  O1057   1.271   .     A
C1022  O1051   1.273   .     A
C1023  O1058   1.277   .     A
C1023  O1052   1.262   .     A
C1024  O1047   1.276   .     A
C1024  C1027   1.454   .     S
C1024  O1049   1.278   .     A
C1025  O1050   1.285   .     A
C1025  C1026   1.477   .     S
C1025  O1048   1.285   .     A
C1026  C1029   1.401   .     A
C1028  C1031   1.406   .     A
C1028  H1043   1.083   .     S
C1029  C1030   1.411   .     A
C1029  H1044   1.075   .     S
C1030  C1032   1.427   .     A
C1030  C1031   1.417   .     A
C1031  C504    1.397   1_556 S
C1032  C502    1.418   1_556 S
C1033  C1034   1.425   .     A
C1034  C1035   1.395   .     A
C1035  F1036   1.360   .     S
H1039  C900    1.086   1_655 S
O1046  Zn1062  1.930   .     S
O1046  Zn1059  1.957   .     S
O1046  Zn1060  1.941   .     S
O1046  Zn1061  1.939   .     S
O1047  Zn1060  1.924   .     S
O1048  Zn1062  1.932   .     S
O1049  Zn1061  1.925   .     S
O1050  Zn1059  1.918   .     S
O1051  Zn1059  1.937   .     S
O1052  Zn1062  1.942   .     S
O1053  Zn1060  1.925   .     S
O1054  Zn1061  1.934   .     S
O1055  Zn1062  1.931   .     S
O1056  Zn1059  1.924   .     S
O1057  Zn1060  1.945   .     S
O1058  Zn1061  1.937   .     S
