data_str_m2_o1_o10_pcu_sym.88
_audit_creation_date              2020-01-03
_audit_creation_method            'Materials Studio'
_symmetry_space_group_name_H-M    'P1'
_symmetry_Int_Tables_number       1
_symmetry_cell_setting            triclinic
loop_
_symmetry_equiv_pos_as_xyz
  x,y,z
_cell_length_a                    26.4105
_cell_length_b                    32.4999
_cell_length_c                    28.5702
_cell_angle_alpha                 90.1340
_cell_angle_beta                  97.9072
_cell_angle_gamma                 90.3267
loop_
_atom_site_label
_atom_site_type_symbol
_atom_site_fract_x
_atom_site_fract_y
_atom_site_fract_z
_atom_site_U_iso_or_equiv
_atom_site_adp_type
_atom_site_occupancy
C1     C     0.16661   0.08736   0.16662   0.00000  Uiso   1.00
C2     C     0.16694   0.02139   0.20921   0.00000  Uiso   1.00
C3     C     0.16673   0.29059   0.16672   0.00000  Uiso   1.00
C4     C     0.16660   0.04274   0.16661   0.00000  Uiso   1.00
C5     C     0.13440   0.14107   0.02077   0.00000  Uiso   1.00
C6     C     0.19893   0.19226   0.31256   0.00000  Uiso   1.00
C7     C     0.13465   0.14125   0.30423   0.00000  Uiso   1.00
C8     C     0.19869   0.19208   0.02910   0.00000  Uiso   1.00
C9     C     0.16673   0.24597   0.16672   0.00000  Uiso   1.00
C10    C     0.06806   0.16757   0.15470   0.00000  Uiso   1.00
C11    C     0.26527   0.16576   0.17864   0.00000  Uiso   1.00
C12    C     0.01299   0.17205   0.14872   0.00000  Uiso   1.00
C13    C     0.32034   0.16128   0.18462   0.00000  Uiso   1.00
C14    C     0.16631   0.02118   0.12406   0.00000  Uiso   1.00
C15    C     0.16702   0.31215   0.20927   0.00000  Uiso   1.00
C16    C     0.16639   0.31195   0.12412   0.00000  Uiso   1.00
Cu17   Cu    0.16667   0.16667   0.21355   0.00000  Uiso   1.00
Cu18   Cu    0.16667   0.16666   0.11978   0.00000  Uiso   1.00
H19    H     0.16602   0.03711   0.09076   0.00000  Uiso   1.00
H20    H     0.25187   0.23437   0.31726   0.00000  Uiso   1.00
H21    H     0.16731   0.29622   0.24257   0.00000  Uiso   1.00
H22    H     0.16617   0.29586   0.09084   0.00000  Uiso   1.00
H23    H     0.16716   0.03747   0.24249   0.00000  Uiso   1.00
H24    H     0.10928   0.12099   0.28172   0.00000  Uiso   1.00
H25    H     0.22405   0.21235   0.05161   0.00000  Uiso   1.00
H26    H     0.01322   0.19835   0.08703   0.00000  Uiso   1.00
H27    H     0.32011   0.13498   0.24630   0.00000  Uiso   1.00
H28    H     0.08146   0.09896   0.01608   0.00000  Uiso   1.00
N29    N     0.16668   0.16668   0.28403   0.00000  Uiso   1.00
N30    N     0.16665   0.16666   0.04931   0.00000  Uiso   1.00
O31    O     0.16666   0.10655   0.20625   0.00000  Uiso   1.00
O32    O     0.01203   0.14397   0.22575   0.00000  Uiso   1.00
O33    O     0.10209   0.11535   0.04121   0.00000  Uiso   1.00
O34    O     0.23124   0.21799   0.29212   0.00000  Uiso   1.00
O35    O     0.16667   0.22678   0.12709   0.00000  Uiso   1.00
O36    O     0.16666   0.10654   0.12706   0.00000  Uiso   1.00
O37    O     0.16667   0.22679   0.20628   0.00000  Uiso   1.00
O38    O     0.09161   0.16667   0.19712   0.00000  Uiso   1.00
O39    O     0.24172   0.16666   0.13621   0.00000  Uiso   1.00
O40    O     0.09161   0.16666   0.11793   0.00000  Uiso   1.00
O41    O     0.24172   0.16667   0.21540   0.00000  Uiso   1.00
O42    O     0.32130   0.18936   0.10758   0.00000  Uiso   1.00
C43    C     0.49994   0.08736   0.16662   0.00000  Uiso   1.00
C44    C     0.50027   0.02139   0.20921   0.00000  Uiso   1.00
C45    C     0.50006   0.29059   0.16672   0.00000  Uiso   1.00
C46    C     0.49994   0.04274   0.16661   0.00000  Uiso   1.00
C47    C     0.46774   0.14107   0.02077   0.00000  Uiso   1.00
C48    C     0.53226   0.19226   0.31256   0.00000  Uiso   1.00
C49    C     0.46798   0.14125   0.30423   0.00000  Uiso   1.00
C50    C     0.53202   0.19208   0.02910   0.00000  Uiso   1.00
C51    C     0.50006   0.24597   0.16672   0.00000  Uiso   1.00
C52    C     0.40139   0.16757   0.15470   0.00000  Uiso   1.00
C53    C     0.59861   0.16576   0.17864   0.00000  Uiso   1.00
C54    C     0.34633   0.17205   0.14872   0.00000  Uiso   1.00
C55    C     0.65368   0.16128   0.18462   0.00000  Uiso   1.00
C56    C     0.49965   0.02118   0.12406   0.00000  Uiso   1.00
C57    C     0.50035   0.31215   0.20927   0.00000  Uiso   1.00
C58    C     0.49973   0.31195   0.12412   0.00000  Uiso   1.00
Cu59   Cu    0.50000   0.16667   0.21355   0.00000  Uiso   1.00
Cu60   Cu    0.50000   0.16666   0.11978   0.00000  Uiso   1.00
H61    H     0.49935   0.03711   0.09076   0.00000  Uiso   1.00
H62    H     0.58521   0.23437   0.31726   0.00000  Uiso   1.00
H63    H     0.50065   0.29622   0.24257   0.00000  Uiso   1.00
H64    H     0.49951   0.29586   0.09084   0.00000  Uiso   1.00
H65    H     0.50049   0.03747   0.24249   0.00000  Uiso   1.00
H66    H     0.44262   0.12099   0.28172   0.00000  Uiso   1.00
H67    H     0.55738   0.21235   0.05161   0.00000  Uiso   1.00
H68    H     0.34656   0.19835   0.08703   0.00000  Uiso   1.00
H69    H     0.65344   0.13498   0.24630   0.00000  Uiso   1.00
H70    H     0.41479   0.09896   0.01608   0.00000  Uiso   1.00
N71    N     0.50001   0.16668   0.28403   0.00000  Uiso   1.00
N72    N     0.49999   0.16666   0.04931   0.00000  Uiso   1.00
O73    O     0.50000   0.10655   0.20625   0.00000  Uiso   1.00
O74    O     0.34536   0.14397   0.22575   0.00000  Uiso   1.00
O75    O     0.43542   0.11535   0.04121   0.00000  Uiso   1.00
O76    O     0.56458   0.21799   0.29212   0.00000  Uiso   1.00
O77    O     0.50000   0.22678   0.12709   0.00000  Uiso   1.00
O78    O     0.50000   0.10654   0.12706   0.00000  Uiso   1.00
O79    O     0.50000   0.22679   0.20628   0.00000  Uiso   1.00
O80    O     0.42495   0.16667   0.19712   0.00000  Uiso   1.00
O81    O     0.57505   0.16666   0.13621   0.00000  Uiso   1.00
O82    O     0.42494   0.16666   0.11793   0.00000  Uiso   1.00
O83    O     0.57506   0.16667   0.21540   0.00000  Uiso   1.00
O84    O     0.65464   0.18936   0.10758   0.00000  Uiso   1.00
C85    C     0.83328   0.08736   0.16662   0.00000  Uiso   1.00
C86    C     0.83361   0.02139   0.20921   0.00000  Uiso   1.00
C87    C     0.83340   0.29059   0.16672   0.00000  Uiso   1.00
C88    C     0.83327   0.04274   0.16661   0.00000  Uiso   1.00
C89    C     0.80107   0.14107   0.02077   0.00000  Uiso   1.00
C90    C     0.86560   0.19226   0.31256   0.00000  Uiso   1.00
C91    C     0.80132   0.14125   0.30423   0.00000  Uiso   1.00
C92    C     0.86535   0.19208   0.02910   0.00000  Uiso   1.00
C93    C     0.83339   0.24597   0.16672   0.00000  Uiso   1.00
C94    C     0.73473   0.16757   0.15470   0.00000  Uiso   1.00
C95    C     0.93194   0.16576   0.17864   0.00000  Uiso   1.00
C96    C     0.67966   0.17205   0.14872   0.00000  Uiso   1.00
C97    C     0.98701   0.16128   0.18462   0.00000  Uiso   1.00
C98    C     0.83298   0.02118   0.12406   0.00000  Uiso   1.00
C99    C     0.83369   0.31215   0.20927   0.00000  Uiso   1.00
C100   C     0.83306   0.31195   0.12412   0.00000  Uiso   1.00
Cu101  Cu    0.83333   0.16667   0.21355   0.00000  Uiso   1.00
Cu102  Cu    0.83333   0.16666   0.11978   0.00000  Uiso   1.00
H103   H     0.83269   0.03711   0.09076   0.00000  Uiso   1.00
H104   H     0.91854   0.23437   0.31726   0.00000  Uiso   1.00
H105   H     0.83398   0.29622   0.24257   0.00000  Uiso   1.00
H106   H     0.83284   0.29586   0.09084   0.00000  Uiso   1.00
H107   H     0.83383   0.03747   0.24249   0.00000  Uiso   1.00
H108   H     0.77595   0.12099   0.28172   0.00000  Uiso   1.00
H109   H     0.89072   0.21235   0.05161   0.00000  Uiso   1.00
H110   H     0.67989   0.19835   0.08703   0.00000  Uiso   1.00
H111   H     0.98678   0.13498   0.24630   0.00000  Uiso   1.00
H112   H     0.74813   0.09896   0.01608   0.00000  Uiso   1.00
N113   N     0.83335   0.16668   0.28403   0.00000  Uiso   1.00
N114   N     0.83332   0.16666   0.04931   0.00000  Uiso   1.00
O115   O     0.83333   0.10655   0.20625   0.00000  Uiso   1.00
O116   O     0.67870   0.14397   0.22575   0.00000  Uiso   1.00
O117   O     0.76876   0.11535   0.04121   0.00000  Uiso   1.00
O118   O     0.89791   0.21799   0.29212   0.00000  Uiso   1.00
O119   O     0.83334   0.22678   0.12709   0.00000  Uiso   1.00
O120   O     0.83333   0.10654   0.12706   0.00000  Uiso   1.00
O121   O     0.83334   0.22679   0.20628   0.00000  Uiso   1.00
O122   O     0.75828   0.16667   0.19712   0.00000  Uiso   1.00
O123   O     0.90839   0.16666   0.13621   0.00000  Uiso   1.00
O124   O     0.75828   0.16666   0.11793   0.00000  Uiso   1.00
O125   O     0.90839   0.16667   0.21540   0.00000  Uiso   1.00
O126   O     0.98797   0.18936   0.10758   0.00000  Uiso   1.00
C127   C     0.16661   0.42070   0.16662   0.00000  Uiso   1.00
C128   C     0.16694   0.35472   0.20921   0.00000  Uiso   1.00
C129   C     0.16673   0.62392   0.16672   0.00000  Uiso   1.00
C130   C     0.16660   0.37608   0.16661   0.00000  Uiso   1.00
C131   C     0.13440   0.47441   0.02077   0.00000  Uiso   1.00
C132   C     0.19893   0.52559   0.31256   0.00000  Uiso   1.00
C133   C     0.13465   0.47459   0.30423   0.00000  Uiso   1.00
C134   C     0.19869   0.52541   0.02910   0.00000  Uiso   1.00
C135   C     0.16673   0.57930   0.16672   0.00000  Uiso   1.00
C136   C     0.06806   0.50091   0.15470   0.00000  Uiso   1.00
C137   C     0.26527   0.49909   0.17864   0.00000  Uiso   1.00
C138   C     0.01299   0.50539   0.14872   0.00000  Uiso   1.00
C139   C     0.32034   0.49461   0.18462   0.00000  Uiso   1.00
C140   C     0.16631   0.35452   0.12406   0.00000  Uiso   1.00
C141   C     0.16702   0.64548   0.20927   0.00000  Uiso   1.00
C142   C     0.16639   0.64528   0.12412   0.00000  Uiso   1.00
Cu143  Cu    0.16667   0.50001   0.21355   0.00000  Uiso   1.00
Cu144  Cu    0.16667   0.49999   0.11978   0.00000  Uiso   1.00
H145   H     0.16602   0.37045   0.09076   0.00000  Uiso   1.00
H146   H     0.25187   0.56771   0.31726   0.00000  Uiso   1.00
H147   H     0.16731   0.62955   0.24257   0.00000  Uiso   1.00
H148   H     0.16617   0.62919   0.09084   0.00000  Uiso   1.00
H149   H     0.16716   0.37081   0.24249   0.00000  Uiso   1.00
H150   H     0.10928   0.45432   0.28172   0.00000  Uiso   1.00
H151   H     0.22405   0.54568   0.05161   0.00000  Uiso   1.00
H152   H     0.01322   0.53168   0.08703   0.00000  Uiso   1.00
H153   H     0.32011   0.46832   0.24630   0.00000  Uiso   1.00
H154   H     0.08146   0.43229   0.01608   0.00000  Uiso   1.00
N155   N     0.16668   0.50001   0.28403   0.00000  Uiso   1.00
N156   N     0.16665   0.49999   0.04931   0.00000  Uiso   1.00
O157   O     0.16666   0.43989   0.20625   0.00000  Uiso   1.00
O158   O     0.01203   0.47731   0.22575   0.00000  Uiso   1.00
O159   O     0.10209   0.44868   0.04121   0.00000  Uiso   1.00
O160   O     0.23124   0.55132   0.29212   0.00000  Uiso   1.00
O161   O     0.16667   0.56011   0.12709   0.00000  Uiso   1.00
O162   O     0.16666   0.43988   0.12706   0.00000  Uiso   1.00
O163   O     0.16667   0.56012   0.20628   0.00000  Uiso   1.00
O164   O     0.09161   0.50000   0.19712   0.00000  Uiso   1.00
O165   O     0.24172   0.50000   0.13621   0.00000  Uiso   1.00
O166   O     0.09161   0.49999   0.11793   0.00000  Uiso   1.00
O167   O     0.24172   0.50001   0.21540   0.00000  Uiso   1.00
O168   O     0.32130   0.52269   0.10758   0.00000  Uiso   1.00
C169   C     0.49994   0.42070   0.16662   0.00000  Uiso   1.00
C170   C     0.50027   0.35472   0.20921   0.00000  Uiso   1.00
C171   C     0.50006   0.62392   0.16672   0.00000  Uiso   1.00
C172   C     0.49994   0.37608   0.16661   0.00000  Uiso   1.00
C173   C     0.46774   0.47441   0.02077   0.00000  Uiso   1.00
C174   C     0.53226   0.52559   0.31256   0.00000  Uiso   1.00
C175   C     0.46798   0.47459   0.30423   0.00000  Uiso   1.00
C176   C     0.53202   0.52541   0.02910   0.00000  Uiso   1.00
C177   C     0.50006   0.57930   0.16672   0.00000  Uiso   1.00
C178   C     0.40139   0.50091   0.15470   0.00000  Uiso   1.00
C179   C     0.59861   0.49909   0.17864   0.00000  Uiso   1.00
C180   C     0.34633   0.50539   0.14872   0.00000  Uiso   1.00
C181   C     0.65368   0.49461   0.18462   0.00000  Uiso   1.00
C182   C     0.49965   0.35452   0.12406   0.00000  Uiso   1.00
C183   C     0.50035   0.64548   0.20927   0.00000  Uiso   1.00
C184   C     0.49973   0.64528   0.12412   0.00000  Uiso   1.00
Cu185  Cu    0.50000   0.50001   0.21355   0.00000  Uiso   1.00
Cu186  Cu    0.50000   0.49999   0.11978   0.00000  Uiso   1.00
H187   H     0.49935   0.37045   0.09076   0.00000  Uiso   1.00
H188   H     0.58521   0.56771   0.31726   0.00000  Uiso   1.00
H189   H     0.50065   0.62955   0.24257   0.00000  Uiso   1.00
H190   H     0.49951   0.62919   0.09084   0.00000  Uiso   1.00
H191   H     0.50049   0.37081   0.24249   0.00000  Uiso   1.00
H192   H     0.44262   0.45432   0.28172   0.00000  Uiso   1.00
H193   H     0.55738   0.54568   0.05161   0.00000  Uiso   1.00
H194   H     0.34656   0.53168   0.08703   0.00000  Uiso   1.00
H195   H     0.65344   0.46832   0.24630   0.00000  Uiso   1.00
H196   H     0.41479   0.43229   0.01608   0.00000  Uiso   1.00
N197   N     0.50001   0.50001   0.28403   0.00000  Uiso   1.00
N198   N     0.49999   0.49999   0.04931   0.00000  Uiso   1.00
O199   O     0.50000   0.43989   0.20625   0.00000  Uiso   1.00
O200   O     0.34536   0.47731   0.22575   0.00000  Uiso   1.00
O201   O     0.43542   0.44868   0.04121   0.00000  Uiso   1.00
O202   O     0.56458   0.55132   0.29212   0.00000  Uiso   1.00
O203   O     0.50000   0.56011   0.12709   0.00000  Uiso   1.00
O204   O     0.50000   0.43988   0.12706   0.00000  Uiso   1.00
O205   O     0.50000   0.56012   0.20628   0.00000  Uiso   1.00
O206   O     0.42495   0.50000   0.19712   0.00000  Uiso   1.00
O207   O     0.57505   0.50000   0.13621   0.00000  Uiso   1.00
O208   O     0.42494   0.49999   0.11793   0.00000  Uiso   1.00
O209   O     0.57506   0.50001   0.21540   0.00000  Uiso   1.00
O210   O     0.65464   0.52269   0.10758   0.00000  Uiso   1.00
C211   C     0.83328   0.42070   0.16662   0.00000  Uiso   1.00
C212   C     0.83361   0.35472   0.20921   0.00000  Uiso   1.00
C213   C     0.83340   0.62392   0.16672   0.00000  Uiso   1.00
C214   C     0.83327   0.37608   0.16661   0.00000  Uiso   1.00
C215   C     0.80107   0.47441   0.02077   0.00000  Uiso   1.00
C216   C     0.86560   0.52559   0.31256   0.00000  Uiso   1.00
C217   C     0.80132   0.47459   0.30423   0.00000  Uiso   1.00
C218   C     0.86535   0.52541   0.02910   0.00000  Uiso   1.00
C219   C     0.83339   0.57930   0.16672   0.00000  Uiso   1.00
C220   C     0.73473   0.50091   0.15470   0.00000  Uiso   1.00
C221   C     0.93194   0.49909   0.17864   0.00000  Uiso   1.00
C222   C     0.67966   0.50539   0.14872   0.00000  Uiso   1.00
C223   C     0.98701   0.49461   0.18462   0.00000  Uiso   1.00
C224   C     0.83298   0.35452   0.12406   0.00000  Uiso   1.00
C225   C     0.83369   0.64548   0.20927   0.00000  Uiso   1.00
C226   C     0.83306   0.64528   0.12412   0.00000  Uiso   1.00
Cu227  Cu    0.83333   0.50001   0.21355   0.00000  Uiso   1.00
Cu228  Cu    0.83333   0.49999   0.11978   0.00000  Uiso   1.00
H229   H     0.83269   0.37045   0.09076   0.00000  Uiso   1.00
H230   H     0.91854   0.56771   0.31726   0.00000  Uiso   1.00
H231   H     0.83398   0.62955   0.24257   0.00000  Uiso   1.00
H232   H     0.83284   0.62919   0.09084   0.00000  Uiso   1.00
H233   H     0.83383   0.37081   0.24249   0.00000  Uiso   1.00
H234   H     0.77595   0.45432   0.28172   0.00000  Uiso   1.00
H235   H     0.89072   0.54568   0.05161   0.00000  Uiso   1.00
H236   H     0.67989   0.53168   0.08703   0.00000  Uiso   1.00
H237   H     0.98678   0.46832   0.24630   0.00000  Uiso   1.00
H238   H     0.74813   0.43229   0.01608   0.00000  Uiso   1.00
N239   N     0.83335   0.50001   0.28403   0.00000  Uiso   1.00
N240   N     0.83332   0.49999   0.04931   0.00000  Uiso   1.00
O241   O     0.83333   0.43989   0.20625   0.00000  Uiso   1.00
O242   O     0.67870   0.47731   0.22575   0.00000  Uiso   1.00
O243   O     0.76876   0.44868   0.04121   0.00000  Uiso   1.00
O244   O     0.89791   0.55132   0.29212   0.00000  Uiso   1.00
O245   O     0.83334   0.56011   0.12709   0.00000  Uiso   1.00
O246   O     0.83333   0.43988   0.12706   0.00000  Uiso   1.00
O247   O     0.83334   0.56012   0.20628   0.00000  Uiso   1.00
O248   O     0.75828   0.50000   0.19712   0.00000  Uiso   1.00
O249   O     0.90839   0.50000   0.13621   0.00000  Uiso   1.00
O250   O     0.75828   0.49999   0.11793   0.00000  Uiso   1.00
O251   O     0.90839   0.50001   0.21540   0.00000  Uiso   1.00
O252   O     0.98797   0.52269   0.10758   0.00000  Uiso   1.00
C253   C     0.16661   0.75403   0.16662   0.00000  Uiso   1.00
C254   C     0.16694   0.68805   0.20921   0.00000  Uiso   1.00
C255   C     0.16673   0.95726   0.16672   0.00000  Uiso   1.00
C256   C     0.16660   0.70941   0.16661   0.00000  Uiso   1.00
C257   C     0.13440   0.80774   0.02077   0.00000  Uiso   1.00
C258   C     0.19893   0.85893   0.31256   0.00000  Uiso   1.00
C259   C     0.13465   0.80792   0.30423   0.00000  Uiso   1.00
C260   C     0.19869   0.85875   0.02910   0.00000  Uiso   1.00
C261   C     0.16673   0.91264   0.16672   0.00000  Uiso   1.00
C262   C     0.06806   0.83424   0.15470   0.00000  Uiso   1.00
C263   C     0.26527   0.83243   0.17864   0.00000  Uiso   1.00
C264   C     0.01299   0.83872   0.14872   0.00000  Uiso   1.00
C265   C     0.32034   0.82795   0.18462   0.00000  Uiso   1.00
C266   C     0.16631   0.68785   0.12406   0.00000  Uiso   1.00
C267   C     0.16702   0.97882   0.20927   0.00000  Uiso   1.00
C268   C     0.16639   0.97861   0.12412   0.00000  Uiso   1.00
Cu269  Cu    0.16667   0.83334   0.21355   0.00000  Uiso   1.00
Cu270  Cu    0.16667   0.83333   0.11978   0.00000  Uiso   1.00
H271   H     0.16602   0.70378   0.09076   0.00000  Uiso   1.00
H272   H     0.25187   0.90104   0.31726   0.00000  Uiso   1.00
H273   H     0.16731   0.96289   0.24257   0.00000  Uiso   1.00
H274   H     0.16617   0.96253   0.09084   0.00000  Uiso   1.00
H275   H     0.16716   0.70414   0.24249   0.00000  Uiso   1.00
H276   H     0.10928   0.78765   0.28172   0.00000  Uiso   1.00
H277   H     0.22405   0.87901   0.05161   0.00000  Uiso   1.00
H278   H     0.01322   0.86502   0.08703   0.00000  Uiso   1.00
H279   H     0.32011   0.80165   0.24630   0.00000  Uiso   1.00
H280   H     0.08146   0.76563   0.01608   0.00000  Uiso   1.00
N281   N     0.16668   0.83334   0.28403   0.00000  Uiso   1.00
N282   N     0.16665   0.83332   0.04931   0.00000  Uiso   1.00
O283   O     0.16666   0.77322   0.20625   0.00000  Uiso   1.00
O284   O     0.01203   0.81064   0.22575   0.00000  Uiso   1.00
O285   O     0.10209   0.78201   0.04121   0.00000  Uiso   1.00
O286   O     0.23124   0.88465   0.29212   0.00000  Uiso   1.00
O287   O     0.16667   0.89345   0.12709   0.00000  Uiso   1.00
O288   O     0.16666   0.77321   0.12706   0.00000  Uiso   1.00
O289   O     0.16667   0.89346   0.20628   0.00000  Uiso   1.00
O290   O     0.09161   0.83334   0.19712   0.00000  Uiso   1.00
O291   O     0.24172   0.83333   0.13621   0.00000  Uiso   1.00
O292   O     0.09161   0.83333   0.11793   0.00000  Uiso   1.00
O293   O     0.24172   0.83334   0.21540   0.00000  Uiso   1.00
O294   O     0.32130   0.85603   0.10758   0.00000  Uiso   1.00
C295   C     0.49994   0.75403   0.16662   0.00000  Uiso   1.00
C296   C     0.50027   0.68805   0.20921   0.00000  Uiso   1.00
C297   C     0.50006   0.95726   0.16672   0.00000  Uiso   1.00
C298   C     0.49994   0.70941   0.16661   0.00000  Uiso   1.00
C299   C     0.46774   0.80774   0.02077   0.00000  Uiso   1.00
C300   C     0.53226   0.85893   0.31256   0.00000  Uiso   1.00
C301   C     0.46798   0.80792   0.30423   0.00000  Uiso   1.00
C302   C     0.53202   0.85875   0.02910   0.00000  Uiso   1.00
C303   C     0.50006   0.91264   0.16672   0.00000  Uiso   1.00
C304   C     0.40139   0.83424   0.15470   0.00000  Uiso   1.00
C305   C     0.59861   0.83243   0.17864   0.00000  Uiso   1.00
C306   C     0.34633   0.83872   0.14872   0.00000  Uiso   1.00
C307   C     0.65368   0.82795   0.18462   0.00000  Uiso   1.00
C308   C     0.49965   0.68785   0.12406   0.00000  Uiso   1.00
C309   C     0.50035   0.97882   0.20927   0.00000  Uiso   1.00
C310   C     0.49973   0.97861   0.12412   0.00000  Uiso   1.00
Cu311  Cu    0.50000   0.83334   0.21355   0.00000  Uiso   1.00
Cu312  Cu    0.50000   0.83333   0.11978   0.00000  Uiso   1.00
H313   H     0.49935   0.70378   0.09076   0.00000  Uiso   1.00
H314   H     0.58521   0.90104   0.31726   0.00000  Uiso   1.00
H315   H     0.50065   0.96289   0.24257   0.00000  Uiso   1.00
H316   H     0.49951   0.96253   0.09084   0.00000  Uiso   1.00
H317   H     0.50049   0.70414   0.24249   0.00000  Uiso   1.00
H318   H     0.44262   0.78765   0.28172   0.00000  Uiso   1.00
H319   H     0.55738   0.87901   0.05161   0.00000  Uiso   1.00
H320   H     0.34656   0.86502   0.08703   0.00000  Uiso   1.00
H321   H     0.65344   0.80165   0.24630   0.00000  Uiso   1.00
H322   H     0.41479   0.76563   0.01608   0.00000  Uiso   1.00
N323   N     0.50001   0.83334   0.28403   0.00000  Uiso   1.00
N324   N     0.49999   0.83332   0.04931   0.00000  Uiso   1.00
O325   O     0.50000   0.77322   0.20625   0.00000  Uiso   1.00
O326   O     0.34536   0.81064   0.22575   0.00000  Uiso   1.00
O327   O     0.43542   0.78201   0.04121   0.00000  Uiso   1.00
O328   O     0.56458   0.88465   0.29212   0.00000  Uiso   1.00
O329   O     0.50000   0.89345   0.12709   0.00000  Uiso   1.00
O330   O     0.50000   0.77321   0.12706   0.00000  Uiso   1.00
O331   O     0.50000   0.89346   0.20628   0.00000  Uiso   1.00
O332   O     0.42495   0.83334   0.19712   0.00000  Uiso   1.00
O333   O     0.57505   0.83333   0.13621   0.00000  Uiso   1.00
O334   O     0.42494   0.83333   0.11793   0.00000  Uiso   1.00
O335   O     0.57506   0.83334   0.21540   0.00000  Uiso   1.00
O336   O     0.65464   0.85603   0.10758   0.00000  Uiso   1.00
C337   C     0.83328   0.75403   0.16662   0.00000  Uiso   1.00
C338   C     0.83361   0.68805   0.20921   0.00000  Uiso   1.00
C339   C     0.83340   0.95726   0.16672   0.00000  Uiso   1.00
C340   C     0.83327   0.70941   0.16661   0.00000  Uiso   1.00
C341   C     0.80107   0.80774   0.02077   0.00000  Uiso   1.00
C342   C     0.86560   0.85893   0.31256   0.00000  Uiso   1.00
C343   C     0.80132   0.80792   0.30423   0.00000  Uiso   1.00
C344   C     0.86535   0.85875   0.02910   0.00000  Uiso   1.00
C345   C     0.83339   0.91264   0.16672   0.00000  Uiso   1.00
C346   C     0.73473   0.83424   0.15470   0.00000  Uiso   1.00
C347   C     0.93194   0.83243   0.17864   0.00000  Uiso   1.00
C348   C     0.67966   0.83872   0.14872   0.00000  Uiso   1.00
C349   C     0.98701   0.82795   0.18462   0.00000  Uiso   1.00
C350   C     0.83298   0.68785   0.12406   0.00000  Uiso   1.00
C351   C     0.83369   0.97882   0.20927   0.00000  Uiso   1.00
C352   C     0.83306   0.97861   0.12412   0.00000  Uiso   1.00
Cu353  Cu    0.83333   0.83334   0.21355   0.00000  Uiso   1.00
Cu354  Cu    0.83333   0.83333   0.11978   0.00000  Uiso   1.00
H355   H     0.83269   0.70378   0.09076   0.00000  Uiso   1.00
H356   H     0.91854   0.90104   0.31726   0.00000  Uiso   1.00
H357   H     0.83398   0.96289   0.24257   0.00000  Uiso   1.00
H358   H     0.83284   0.96253   0.09084   0.00000  Uiso   1.00
H359   H     0.83383   0.70414   0.24249   0.00000  Uiso   1.00
H360   H     0.77595   0.78765   0.28172   0.00000  Uiso   1.00
H361   H     0.89072   0.87901   0.05161   0.00000  Uiso   1.00
H362   H     0.67989   0.86502   0.08703   0.00000  Uiso   1.00
H363   H     0.98678   0.80165   0.24630   0.00000  Uiso   1.00
H364   H     0.74813   0.76563   0.01608   0.00000  Uiso   1.00
N365   N     0.83335   0.83334   0.28403   0.00000  Uiso   1.00
N366   N     0.83332   0.83332   0.04931   0.00000  Uiso   1.00
O367   O     0.83333   0.77322   0.20625   0.00000  Uiso   1.00
O368   O     0.67870   0.81064   0.22575   0.00000  Uiso   1.00
O369   O     0.76876   0.78201   0.04121   0.00000  Uiso   1.00
O370   O     0.89791   0.88465   0.29212   0.00000  Uiso   1.00
O371   O     0.83334   0.89345   0.12709   0.00000  Uiso   1.00
O372   O     0.83333   0.77321   0.12706   0.00000  Uiso   1.00
O373   O     0.83334   0.89346   0.20628   0.00000  Uiso   1.00
O374   O     0.75828   0.83334   0.19712   0.00000  Uiso   1.00
O375   O     0.90839   0.83333   0.13621   0.00000  Uiso   1.00
O376   O     0.75828   0.83333   0.11793   0.00000  Uiso   1.00
O377   O     0.90839   0.83334   0.21540   0.00000  Uiso   1.00
O378   O     0.98797   0.85603   0.10758   0.00000  Uiso   1.00
C379   C     0.16661   0.08736   0.49995   0.00000  Uiso   1.00
C380   C     0.16694   0.02139   0.54255   0.00000  Uiso   1.00
C381   C     0.16673   0.29059   0.50005   0.00000  Uiso   1.00
C382   C     0.16660   0.04274   0.49995   0.00000  Uiso   1.00
C383   C     0.13440   0.14107   0.35411   0.00000  Uiso   1.00
C384   C     0.19893   0.19226   0.64589   0.00000  Uiso   1.00
C385   C     0.13465   0.14125   0.63757   0.00000  Uiso   1.00
C386   C     0.19869   0.19208   0.36243   0.00000  Uiso   1.00
C387   C     0.16673   0.24597   0.50005   0.00000  Uiso   1.00
C388   C     0.06806   0.16757   0.48803   0.00000  Uiso   1.00
C389   C     0.26527   0.16576   0.51197   0.00000  Uiso   1.00
C390   C     0.01299   0.17205   0.48205   0.00000  Uiso   1.00
C391   C     0.32034   0.16128   0.51795   0.00000  Uiso   1.00
C392   C     0.16631   0.02118   0.45740   0.00000  Uiso   1.00
C393   C     0.16702   0.31215   0.54260   0.00000  Uiso   1.00
C394   C     0.16639   0.31195   0.45745   0.00000  Uiso   1.00
Cu395  Cu    0.16667   0.16667   0.54689   0.00000  Uiso   1.00
Cu396  Cu    0.16667   0.16666   0.45311   0.00000  Uiso   1.00
H397   H     0.16602   0.03711   0.42410   0.00000  Uiso   1.00
H398   H     0.25187   0.23437   0.65059   0.00000  Uiso   1.00
H399   H     0.16731   0.29622   0.57590   0.00000  Uiso   1.00
H400   H     0.16617   0.29586   0.42417   0.00000  Uiso   1.00
H401   H     0.16716   0.03747   0.57583   0.00000  Uiso   1.00
H402   H     0.10928   0.12099   0.61506   0.00000  Uiso   1.00
H403   H     0.22405   0.21235   0.38494   0.00000  Uiso   1.00
H404   H     0.01322   0.19835   0.42037   0.00000  Uiso   1.00
H405   H     0.32011   0.13498   0.57963   0.00000  Uiso   1.00
H406   H     0.08146   0.09896   0.34941   0.00000  Uiso   1.00
N407   N     0.16668   0.16668   0.61736   0.00000  Uiso   1.00
N408   N     0.16665   0.16666   0.38264   0.00000  Uiso   1.00
O409   O     0.16666   0.10655   0.53958   0.00000  Uiso   1.00
O410   O     0.01203   0.14397   0.55909   0.00000  Uiso   1.00
O411   O     0.10209   0.11535   0.37454   0.00000  Uiso   1.00
O412   O     0.23124   0.21799   0.62546   0.00000  Uiso   1.00
O413   O     0.16667   0.22678   0.46042   0.00000  Uiso   1.00
O414   O     0.16666   0.10654   0.46039   0.00000  Uiso   1.00
O415   O     0.16667   0.22679   0.53961   0.00000  Uiso   1.00
O416   O     0.09161   0.16667   0.53046   0.00000  Uiso   1.00
O417   O     0.24172   0.16666   0.46954   0.00000  Uiso   1.00
O418   O     0.09161   0.16666   0.45127   0.00000  Uiso   1.00
O419   O     0.24172   0.16667   0.54873   0.00000  Uiso   1.00
O420   O     0.32130   0.18936   0.44091   0.00000  Uiso   1.00
C421   C     0.49994   0.08736   0.49995   0.00000  Uiso   1.00
C422   C     0.50027   0.02139   0.54255   0.00000  Uiso   1.00
C423   C     0.50006   0.29059   0.50005   0.00000  Uiso   1.00
C424   C     0.49994   0.04274   0.49995   0.00000  Uiso   1.00
C425   C     0.46774   0.14107   0.35411   0.00000  Uiso   1.00
C426   C     0.53226   0.19226   0.64589   0.00000  Uiso   1.00
C427   C     0.46798   0.14125   0.63757   0.00000  Uiso   1.00
C428   C     0.53202   0.19208   0.36243   0.00000  Uiso   1.00
C429   C     0.50006   0.24597   0.50005   0.00000  Uiso   1.00
C430   C     0.40139   0.16757   0.48803   0.00000  Uiso   1.00
C431   C     0.59861   0.16576   0.51197   0.00000  Uiso   1.00
C432   C     0.34633   0.17205   0.48205   0.00000  Uiso   1.00
C433   C     0.65368   0.16128   0.51795   0.00000  Uiso   1.00
C434   C     0.49965   0.02118   0.45740   0.00000  Uiso   1.00
C435   C     0.50035   0.31215   0.54260   0.00000  Uiso   1.00
C436   C     0.49973   0.31195   0.45745   0.00000  Uiso   1.00
Cu437  Cu    0.50000   0.16667   0.54689   0.00000  Uiso   1.00
Cu438  Cu    0.50000   0.16666   0.45311   0.00000  Uiso   1.00
H439   H     0.49935   0.03711   0.42410   0.00000  Uiso   1.00
H440   H     0.58521   0.23437   0.65059   0.00000  Uiso   1.00
H441   H     0.50065   0.29622   0.57590   0.00000  Uiso   1.00
H442   H     0.49951   0.29586   0.42417   0.00000  Uiso   1.00
H443   H     0.50049   0.03747   0.57583   0.00000  Uiso   1.00
H444   H     0.44262   0.12099   0.61506   0.00000  Uiso   1.00
H445   H     0.55738   0.21235   0.38494   0.00000  Uiso   1.00
H446   H     0.34656   0.19835   0.42037   0.00000  Uiso   1.00
H447   H     0.65344   0.13498   0.57963   0.00000  Uiso   1.00
H448   H     0.41479   0.09896   0.34941   0.00000  Uiso   1.00
N449   N     0.50001   0.16668   0.61736   0.00000  Uiso   1.00
N450   N     0.49999   0.16666   0.38264   0.00000  Uiso   1.00
O451   O     0.50000   0.10655   0.53958   0.00000  Uiso   1.00
O452   O     0.34536   0.14397   0.55909   0.00000  Uiso   1.00
O453   O     0.43542   0.11535   0.37454   0.00000  Uiso   1.00
O454   O     0.56458   0.21799   0.62546   0.00000  Uiso   1.00
O455   O     0.50000   0.22678   0.46042   0.00000  Uiso   1.00
O456   O     0.50000   0.10654   0.46039   0.00000  Uiso   1.00
O457   O     0.50000   0.22679   0.53961   0.00000  Uiso   1.00
O458   O     0.42495   0.16667   0.53046   0.00000  Uiso   1.00
O459   O     0.57505   0.16666   0.46954   0.00000  Uiso   1.00
O460   O     0.42494   0.16666   0.45127   0.00000  Uiso   1.00
O461   O     0.57506   0.16667   0.54873   0.00000  Uiso   1.00
O462   O     0.65464   0.18936   0.44091   0.00000  Uiso   1.00
C463   C     0.83328   0.08736   0.49995   0.00000  Uiso   1.00
C464   C     0.83361   0.02139   0.54255   0.00000  Uiso   1.00
C465   C     0.83340   0.29059   0.50005   0.00000  Uiso   1.00
C466   C     0.83327   0.04274   0.49995   0.00000  Uiso   1.00
C467   C     0.80107   0.14107   0.35411   0.00000  Uiso   1.00
C468   C     0.86560   0.19226   0.64589   0.00000  Uiso   1.00
C469   C     0.80132   0.14125   0.63757   0.00000  Uiso   1.00
C470   C     0.86535   0.19208   0.36243   0.00000  Uiso   1.00
C471   C     0.83339   0.24597   0.50005   0.00000  Uiso   1.00
C472   C     0.73473   0.16757   0.48803   0.00000  Uiso   1.00
C473   C     0.93194   0.16576   0.51197   0.00000  Uiso   1.00
C474   C     0.67966   0.17205   0.48205   0.00000  Uiso   1.00
C475   C     0.98701   0.16128   0.51795   0.00000  Uiso   1.00
C476   C     0.83298   0.02118   0.45740   0.00000  Uiso   1.00
C477   C     0.83369   0.31215   0.54260   0.00000  Uiso   1.00
C478   C     0.83306   0.31195   0.45745   0.00000  Uiso   1.00
Cu479  Cu    0.83333   0.16667   0.54689   0.00000  Uiso   1.00
Cu480  Cu    0.83333   0.16666   0.45311   0.00000  Uiso   1.00
H481   H     0.83269   0.03711   0.42410   0.00000  Uiso   1.00
H482   H     0.91854   0.23437   0.65059   0.00000  Uiso   1.00
H483   H     0.83398   0.29622   0.57590   0.00000  Uiso   1.00
H484   H     0.83284   0.29586   0.42417   0.00000  Uiso   1.00
H485   H     0.83383   0.03747   0.57583   0.00000  Uiso   1.00
H486   H     0.77595   0.12099   0.61506   0.00000  Uiso   1.00
H487   H     0.89072   0.21235   0.38494   0.00000  Uiso   1.00
H488   H     0.67989   0.19835   0.42037   0.00000  Uiso   1.00
H489   H     0.98678   0.13498   0.57963   0.00000  Uiso   1.00
H490   H     0.74813   0.09896   0.34941   0.00000  Uiso   1.00
N491   N     0.83335   0.16668   0.61736   0.00000  Uiso   1.00
N492   N     0.83332   0.16666   0.38264   0.00000  Uiso   1.00
O493   O     0.83333   0.10655   0.53958   0.00000  Uiso   1.00
O494   O     0.67870   0.14397   0.55909   0.00000  Uiso   1.00
O495   O     0.76876   0.11535   0.37454   0.00000  Uiso   1.00
O496   O     0.89791   0.21799   0.62546   0.00000  Uiso   1.00
O497   O     0.83334   0.22678   0.46042   0.00000  Uiso   1.00
O498   O     0.83333   0.10654   0.46039   0.00000  Uiso   1.00
O499   O     0.83334   0.22679   0.53961   0.00000  Uiso   1.00
O500   O     0.75828   0.16667   0.53046   0.00000  Uiso   1.00
O501   O     0.90839   0.16666   0.46954   0.00000  Uiso   1.00
O502   O     0.75828   0.16666   0.45127   0.00000  Uiso   1.00
O503   O     0.90839   0.16667   0.54873   0.00000  Uiso   1.00
O504   O     0.98797   0.18936   0.44091   0.00000  Uiso   1.00
C505   C     0.16661   0.42070   0.49995   0.00000  Uiso   1.00
C506   C     0.16694   0.35472   0.54255   0.00000  Uiso   1.00
C507   C     0.16673   0.62392   0.50005   0.00000  Uiso   1.00
C508   C     0.16660   0.37608   0.49995   0.00000  Uiso   1.00
C509   C     0.13440   0.47441   0.35411   0.00000  Uiso   1.00
C510   C     0.19893   0.52559   0.64589   0.00000  Uiso   1.00
C511   C     0.13465   0.47459   0.63757   0.00000  Uiso   1.00
C512   C     0.19869   0.52541   0.36243   0.00000  Uiso   1.00
C513   C     0.16673   0.57930   0.50005   0.00000  Uiso   1.00
C514   C     0.06806   0.50091   0.48803   0.00000  Uiso   1.00
C515   C     0.26527   0.49909   0.51197   0.00000  Uiso   1.00
C516   C     0.01299   0.50539   0.48205   0.00000  Uiso   1.00
C517   C     0.32034   0.49461   0.51795   0.00000  Uiso   1.00
C518   C     0.16631   0.35452   0.45740   0.00000  Uiso   1.00
C519   C     0.16702   0.64548   0.54260   0.00000  Uiso   1.00
C520   C     0.16639   0.64528   0.45745   0.00000  Uiso   1.00
Cu521  Cu    0.16667   0.50001   0.54689   0.00000  Uiso   1.00
Cu522  Cu    0.16667   0.49999   0.45311   0.00000  Uiso   1.00
H523   H     0.16602   0.37045   0.42410   0.00000  Uiso   1.00
H524   H     0.25187   0.56771   0.65059   0.00000  Uiso   1.00
H525   H     0.16731   0.62955   0.57590   0.00000  Uiso   1.00
H526   H     0.16617   0.62919   0.42417   0.00000  Uiso   1.00
H527   H     0.16716   0.37081   0.57583   0.00000  Uiso   1.00
H528   H     0.10928   0.45432   0.61506   0.00000  Uiso   1.00
H529   H     0.22405   0.54568   0.38494   0.00000  Uiso   1.00
H530   H     0.01322   0.53168   0.42037   0.00000  Uiso   1.00
H531   H     0.32011   0.46832   0.57963   0.00000  Uiso   1.00
H532   H     0.08146   0.43229   0.34941   0.00000  Uiso   1.00
N533   N     0.16668   0.50001   0.61736   0.00000  Uiso   1.00
N534   N     0.16665   0.49999   0.38264   0.00000  Uiso   1.00
O535   O     0.16666   0.43989   0.53958   0.00000  Uiso   1.00
O536   O     0.01203   0.47731   0.55909   0.00000  Uiso   1.00
O537   O     0.10209   0.44868   0.37454   0.00000  Uiso   1.00
O538   O     0.23124   0.55132   0.62546   0.00000  Uiso   1.00
O539   O     0.16667   0.56011   0.46042   0.00000  Uiso   1.00
O540   O     0.16666   0.43988   0.46039   0.00000  Uiso   1.00
O541   O     0.16667   0.56012   0.53961   0.00000  Uiso   1.00
O542   O     0.09161   0.50000   0.53046   0.00000  Uiso   1.00
O543   O     0.24172   0.50000   0.46954   0.00000  Uiso   1.00
O544   O     0.09161   0.49999   0.45127   0.00000  Uiso   1.00
O545   O     0.24172   0.50001   0.54873   0.00000  Uiso   1.00
O546   O     0.32130   0.52269   0.44091   0.00000  Uiso   1.00
C547   C     0.49994   0.42070   0.49995   0.00000  Uiso   1.00
C548   C     0.50027   0.35472   0.54255   0.00000  Uiso   1.00
C549   C     0.50006   0.62392   0.50005   0.00000  Uiso   1.00
C550   C     0.49994   0.37608   0.49995   0.00000  Uiso   1.00
C551   C     0.46774   0.47441   0.35411   0.00000  Uiso   1.00
C552   C     0.53226   0.52559   0.64589   0.00000  Uiso   1.00
C553   C     0.46798   0.47459   0.63757   0.00000  Uiso   1.00
C554   C     0.53202   0.52541   0.36243   0.00000  Uiso   1.00
C555   C     0.50006   0.57930   0.50005   0.00000  Uiso   1.00
C556   C     0.40139   0.50091   0.48803   0.00000  Uiso   1.00
C557   C     0.59861   0.49909   0.51197   0.00000  Uiso   1.00
C558   C     0.34633   0.50539   0.48205   0.00000  Uiso   1.00
C559   C     0.65368   0.49461   0.51795   0.00000  Uiso   1.00
C560   C     0.49965   0.35452   0.45740   0.00000  Uiso   1.00
C561   C     0.50035   0.64548   0.54260   0.00000  Uiso   1.00
C562   C     0.49973   0.64528   0.45745   0.00000  Uiso   1.00
Cu563  Cu    0.50000   0.50001   0.54689   0.00000  Uiso   1.00
Cu564  Cu    0.50000   0.49999   0.45311   0.00000  Uiso   1.00
H565   H     0.49935   0.37045   0.42410   0.00000  Uiso   1.00
H566   H     0.58521   0.56771   0.65059   0.00000  Uiso   1.00
H567   H     0.50065   0.62955   0.57590   0.00000  Uiso   1.00
H568   H     0.49951   0.62919   0.42417   0.00000  Uiso   1.00
H569   H     0.50049   0.37081   0.57583   0.00000  Uiso   1.00
H570   H     0.44262   0.45432   0.61506   0.00000  Uiso   1.00
H571   H     0.55738   0.54568   0.38494   0.00000  Uiso   1.00
H572   H     0.34656   0.53168   0.42037   0.00000  Uiso   1.00
H573   H     0.65344   0.46832   0.57963   0.00000  Uiso   1.00
H574   H     0.41479   0.43229   0.34941   0.00000  Uiso   1.00
N575   N     0.50001   0.50001   0.61736   0.00000  Uiso   1.00
N576   N     0.49999   0.49999   0.38264   0.00000  Uiso   1.00
O577   O     0.50000   0.43989   0.53958   0.00000  Uiso   1.00
O578   O     0.34536   0.47731   0.55909   0.00000  Uiso   1.00
O579   O     0.43542   0.44868   0.37454   0.00000  Uiso   1.00
O580   O     0.56458   0.55132   0.62546   0.00000  Uiso   1.00
O581   O     0.50000   0.56011   0.46042   0.00000  Uiso   1.00
O582   O     0.50000   0.43988   0.46039   0.00000  Uiso   1.00
O583   O     0.50000   0.56012   0.53961   0.00000  Uiso   1.00
O584   O     0.42495   0.50000   0.53046   0.00000  Uiso   1.00
O585   O     0.57505   0.50000   0.46954   0.00000  Uiso   1.00
O586   O     0.42494   0.49999   0.45127   0.00000  Uiso   1.00
O587   O     0.57506   0.50001   0.54873   0.00000  Uiso   1.00
O588   O     0.65464   0.52269   0.44091   0.00000  Uiso   1.00
C589   C     0.83328   0.42070   0.49995   0.00000  Uiso   1.00
C590   C     0.83361   0.35472   0.54255   0.00000  Uiso   1.00
C591   C     0.83340   0.62392   0.50005   0.00000  Uiso   1.00
C592   C     0.83327   0.37608   0.49995   0.00000  Uiso   1.00
C593   C     0.80107   0.47441   0.35411   0.00000  Uiso   1.00
C594   C     0.86560   0.52559   0.64589   0.00000  Uiso   1.00
C595   C     0.80132   0.47459   0.63757   0.00000  Uiso   1.00
C596   C     0.86535   0.52541   0.36243   0.00000  Uiso   1.00
C597   C     0.83339   0.57930   0.50005   0.00000  Uiso   1.00
C598   C     0.73473   0.50091   0.48803   0.00000  Uiso   1.00
C599   C     0.93194   0.49909   0.51197   0.00000  Uiso   1.00
C600   C     0.67966   0.50539   0.48205   0.00000  Uiso   1.00
C601   C     0.98701   0.49461   0.51795   0.00000  Uiso   1.00
C602   C     0.83298   0.35452   0.45740   0.00000  Uiso   1.00
C603   C     0.83369   0.64548   0.54260   0.00000  Uiso   1.00
C604   C     0.83306   0.64528   0.45745   0.00000  Uiso   1.00
Cu605  Cu    0.83333   0.50001   0.54689   0.00000  Uiso   1.00
Cu606  Cu    0.83333   0.49999   0.45311   0.00000  Uiso   1.00
H607   H     0.83269   0.37045   0.42410   0.00000  Uiso   1.00
H608   H     0.91854   0.56771   0.65059   0.00000  Uiso   1.00
H609   H     0.83398   0.62955   0.57590   0.00000  Uiso   1.00
H610   H     0.83284   0.62919   0.42417   0.00000  Uiso   1.00
H611   H     0.83383   0.37081   0.57583   0.00000  Uiso   1.00
H612   H     0.77595   0.45432   0.61506   0.00000  Uiso   1.00
H613   H     0.89072   0.54568   0.38494   0.00000  Uiso   1.00
H614   H     0.67989   0.53168   0.42037   0.00000  Uiso   1.00
H615   H     0.98678   0.46832   0.57963   0.00000  Uiso   1.00
H616   H     0.74813   0.43229   0.34941   0.00000  Uiso   1.00
N617   N     0.83335   0.50001   0.61736   0.00000  Uiso   1.00
N618   N     0.83332   0.49999   0.38264   0.00000  Uiso   1.00
O619   O     0.83333   0.43989   0.53958   0.00000  Uiso   1.00
O620   O     0.67870   0.47731   0.55909   0.00000  Uiso   1.00
O621   O     0.76876   0.44868   0.37454   0.00000  Uiso   1.00
O622   O     0.89791   0.55132   0.62546   0.00000  Uiso   1.00
O623   O     0.83334   0.56011   0.46042   0.00000  Uiso   1.00
O624   O     0.83333   0.43988   0.46039   0.00000  Uiso   1.00
O625   O     0.83334   0.56012   0.53961   0.00000  Uiso   1.00
O626   O     0.75828   0.50000   0.53046   0.00000  Uiso   1.00
O627   O     0.90839   0.50000   0.46954   0.00000  Uiso   1.00
O628   O     0.75828   0.49999   0.45127   0.00000  Uiso   1.00
O629   O     0.90839   0.50001   0.54873   0.00000  Uiso   1.00
O630   O     0.98797   0.52269   0.44091   0.00000  Uiso   1.00
C631   C     0.16661   0.75403   0.49995   0.00000  Uiso   1.00
C632   C     0.16694   0.68805   0.54255   0.00000  Uiso   1.00
C633   C     0.16673   0.95726   0.50005   0.00000  Uiso   1.00
C634   C     0.16660   0.70941   0.49995   0.00000  Uiso   1.00
C635   C     0.13440   0.80774   0.35411   0.00000  Uiso   1.00
C636   C     0.19893   0.85893   0.64589   0.00000  Uiso   1.00
C637   C     0.13465   0.80792   0.63757   0.00000  Uiso   1.00
C638   C     0.19869   0.85875   0.36243   0.00000  Uiso   1.00
C639   C     0.16673   0.91264   0.50005   0.00000  Uiso   1.00
C640   C     0.06806   0.83424   0.48803   0.00000  Uiso   1.00
C641   C     0.26527   0.83243   0.51197   0.00000  Uiso   1.00
C642   C     0.01299   0.83872   0.48205   0.00000  Uiso   1.00
C643   C     0.32034   0.82795   0.51795   0.00000  Uiso   1.00
C644   C     0.16631   0.68785   0.45740   0.00000  Uiso   1.00
C645   C     0.16702   0.97882   0.54260   0.00000  Uiso   1.00
C646   C     0.16639   0.97861   0.45745   0.00000  Uiso   1.00
Cu647  Cu    0.16667   0.83334   0.54689   0.00000  Uiso   1.00
Cu648  Cu    0.16667   0.83333   0.45311   0.00000  Uiso   1.00
H649   H     0.16602   0.70378   0.42410   0.00000  Uiso   1.00
H650   H     0.25187   0.90104   0.65059   0.00000  Uiso   1.00
H651   H     0.16731   0.96289   0.57590   0.00000  Uiso   1.00
H652   H     0.16617   0.96253   0.42417   0.00000  Uiso   1.00
H653   H     0.16716   0.70414   0.57583   0.00000  Uiso   1.00
H654   H     0.10928   0.78765   0.61506   0.00000  Uiso   1.00
H655   H     0.22405   0.87901   0.38494   0.00000  Uiso   1.00
H656   H     0.01322   0.86502   0.42037   0.00000  Uiso   1.00
H657   H     0.32011   0.80165   0.57963   0.00000  Uiso   1.00
H658   H     0.08146   0.76563   0.34941   0.00000  Uiso   1.00
N659   N     0.16668   0.83334   0.61736   0.00000  Uiso   1.00
N660   N     0.16665   0.83332   0.38264   0.00000  Uiso   1.00
O661   O     0.16666   0.77322   0.53958   0.00000  Uiso   1.00
O662   O     0.01203   0.81064   0.55909   0.00000  Uiso   1.00
O663   O     0.10209   0.78201   0.37454   0.00000  Uiso   1.00
O664   O     0.23124   0.88465   0.62546   0.00000  Uiso   1.00
O665   O     0.16667   0.89345   0.46042   0.00000  Uiso   1.00
O666   O     0.16666   0.77321   0.46039   0.00000  Uiso   1.00
O667   O     0.16667   0.89346   0.53961   0.00000  Uiso   1.00
O668   O     0.09161   0.83334   0.53046   0.00000  Uiso   1.00
O669   O     0.24172   0.83333   0.46954   0.00000  Uiso   1.00
O670   O     0.09161   0.83333   0.45127   0.00000  Uiso   1.00
O671   O     0.24172   0.83334   0.54873   0.00000  Uiso   1.00
O672   O     0.32130   0.85603   0.44091   0.00000  Uiso   1.00
C673   C     0.49994   0.75403   0.49995   0.00000  Uiso   1.00
C674   C     0.50027   0.68805   0.54255   0.00000  Uiso   1.00
C675   C     0.50006   0.95726   0.50005   0.00000  Uiso   1.00
C676   C     0.49994   0.70941   0.49995   0.00000  Uiso   1.00
C677   C     0.46774   0.80774   0.35411   0.00000  Uiso   1.00
C678   C     0.53226   0.85893   0.64589   0.00000  Uiso   1.00
C679   C     0.46798   0.80792   0.63757   0.00000  Uiso   1.00
C680   C     0.53202   0.85875   0.36243   0.00000  Uiso   1.00
C681   C     0.50006   0.91264   0.50005   0.00000  Uiso   1.00
C682   C     0.40139   0.83424   0.48803   0.00000  Uiso   1.00
C683   C     0.59861   0.83243   0.51197   0.00000  Uiso   1.00
C684   C     0.34633   0.83872   0.48205   0.00000  Uiso   1.00
C685   C     0.65368   0.82795   0.51795   0.00000  Uiso   1.00
C686   C     0.49965   0.68785   0.45740   0.00000  Uiso   1.00
C687   C     0.50035   0.97882   0.54260   0.00000  Uiso   1.00
C688   C     0.49973   0.97861   0.45745   0.00000  Uiso   1.00
Cu689  Cu    0.50000   0.83334   0.54689   0.00000  Uiso   1.00
Cu690  Cu    0.50000   0.83333   0.45311   0.00000  Uiso   1.00
H691   H     0.49935   0.70378   0.42410   0.00000  Uiso   1.00
H692   H     0.58521   0.90104   0.65059   0.00000  Uiso   1.00
H693   H     0.50065   0.96289   0.57590   0.00000  Uiso   1.00
H694   H     0.49951   0.96253   0.42417   0.00000  Uiso   1.00
H695   H     0.50049   0.70414   0.57583   0.00000  Uiso   1.00
H696   H     0.44262   0.78765   0.61506   0.00000  Uiso   1.00
H697   H     0.55738   0.87901   0.38494   0.00000  Uiso   1.00
H698   H     0.34656   0.86502   0.42037   0.00000  Uiso   1.00
H699   H     0.65344   0.80165   0.57963   0.00000  Uiso   1.00
H700   H     0.41479   0.76563   0.34941   0.00000  Uiso   1.00
N701   N     0.50001   0.83334   0.61736   0.00000  Uiso   1.00
N702   N     0.49999   0.83332   0.38264   0.00000  Uiso   1.00
O703   O     0.50000   0.77322   0.53958   0.00000  Uiso   1.00
O704   O     0.34536   0.81064   0.55909   0.00000  Uiso   1.00
O705   O     0.43542   0.78201   0.37454   0.00000  Uiso   1.00
O706   O     0.56458   0.88465   0.62546   0.00000  Uiso   1.00
O707   O     0.50000   0.89345   0.46042   0.00000  Uiso   1.00
O708   O     0.50000   0.77321   0.46039   0.00000  Uiso   1.00
O709   O     0.50000   0.89346   0.53961   0.00000  Uiso   1.00
O710   O     0.42495   0.83334   0.53046   0.00000  Uiso   1.00
O711   O     0.57505   0.83333   0.46954   0.00000  Uiso   1.00
O712   O     0.42494   0.83333   0.45127   0.00000  Uiso   1.00
O713   O     0.57506   0.83334   0.54873   0.00000  Uiso   1.00
O714   O     0.65464   0.85603   0.44091   0.00000  Uiso   1.00
C715   C     0.83328   0.75403   0.49995   0.00000  Uiso   1.00
C716   C     0.83361   0.68805   0.54255   0.00000  Uiso   1.00
C717   C     0.83340   0.95726   0.50005   0.00000  Uiso   1.00
C718   C     0.83327   0.70941   0.49995   0.00000  Uiso   1.00
C719   C     0.80107   0.80774   0.35411   0.00000  Uiso   1.00
C720   C     0.86560   0.85893   0.64589   0.00000  Uiso   1.00
C721   C     0.80132   0.80792   0.63757   0.00000  Uiso   1.00
C722   C     0.86535   0.85875   0.36243   0.00000  Uiso   1.00
C723   C     0.83339   0.91264   0.50005   0.00000  Uiso   1.00
C724   C     0.73473   0.83424   0.48803   0.00000  Uiso   1.00
C725   C     0.93194   0.83243   0.51197   0.00000  Uiso   1.00
C726   C     0.67966   0.83872   0.48205   0.00000  Uiso   1.00
C727   C     0.98701   0.82795   0.51795   0.00000  Uiso   1.00
C728   C     0.83298   0.68785   0.45740   0.00000  Uiso   1.00
C729   C     0.83369   0.97882   0.54260   0.00000  Uiso   1.00
C730   C     0.83306   0.97861   0.45745   0.00000  Uiso   1.00
Cu731  Cu    0.83333   0.83334   0.54689   0.00000  Uiso   1.00
Cu732  Cu    0.83333   0.83333   0.45311   0.00000  Uiso   1.00
H733   H     0.83269   0.70378   0.42410   0.00000  Uiso   1.00
H734   H     0.91854   0.90104   0.65059   0.00000  Uiso   1.00
H735   H     0.83398   0.96289   0.57590   0.00000  Uiso   1.00
H736   H     0.83284   0.96253   0.42417   0.00000  Uiso   1.00
H737   H     0.83383   0.70414   0.57583   0.00000  Uiso   1.00
H738   H     0.77595   0.78765   0.61506   0.00000  Uiso   1.00
H739   H     0.89072   0.87901   0.38494   0.00000  Uiso   1.00
H740   H     0.67989   0.86502   0.42037   0.00000  Uiso   1.00
H741   H     0.98678   0.80165   0.57963   0.00000  Uiso   1.00
H742   H     0.74813   0.76563   0.34941   0.00000  Uiso   1.00
N743   N     0.83335   0.83334   0.61736   0.00000  Uiso   1.00
N744   N     0.83332   0.83332   0.38264   0.00000  Uiso   1.00
O745   O     0.83333   0.77322   0.53958   0.00000  Uiso   1.00
O746   O     0.67870   0.81064   0.55909   0.00000  Uiso   1.00
O747   O     0.76876   0.78201   0.37454   0.00000  Uiso   1.00
O748   O     0.89791   0.88465   0.62546   0.00000  Uiso   1.00
O749   O     0.83334   0.89345   0.46042   0.00000  Uiso   1.00
O750   O     0.83333   0.77321   0.46039   0.00000  Uiso   1.00
O751   O     0.83334   0.89346   0.53961   0.00000  Uiso   1.00
O752   O     0.75828   0.83334   0.53046   0.00000  Uiso   1.00
O753   O     0.90839   0.83333   0.46954   0.00000  Uiso   1.00
O754   O     0.75828   0.83333   0.45127   0.00000  Uiso   1.00
O755   O     0.90839   0.83334   0.54873   0.00000  Uiso   1.00
O756   O     0.98797   0.85603   0.44091   0.00000  Uiso   1.00
C757   C     0.16661   0.08736   0.83328   0.00000  Uiso   1.00
C758   C     0.16694   0.02139   0.87588   0.00000  Uiso   1.00
C759   C     0.16673   0.29059   0.83339   0.00000  Uiso   1.00
C760   C     0.16660   0.04274   0.83328   0.00000  Uiso   1.00
C761   C     0.13440   0.14107   0.68744   0.00000  Uiso   1.00
C762   C     0.19893   0.19226   0.97923   0.00000  Uiso   1.00
C763   C     0.13465   0.14125   0.97090   0.00000  Uiso   1.00
C764   C     0.19869   0.19208   0.69577   0.00000  Uiso   1.00
C765   C     0.16673   0.24597   0.83338   0.00000  Uiso   1.00
C766   C     0.06806   0.16757   0.82136   0.00000  Uiso   1.00
C767   C     0.26527   0.16576   0.84530   0.00000  Uiso   1.00
C768   C     0.01299   0.17205   0.81538   0.00000  Uiso   1.00
C769   C     0.32034   0.16128   0.85128   0.00000  Uiso   1.00
C770   C     0.16631   0.02118   0.79073   0.00000  Uiso   1.00
C771   C     0.16702   0.31215   0.87593   0.00000  Uiso   1.00
C772   C     0.16639   0.31195   0.79078   0.00000  Uiso   1.00
Cu773  Cu    0.16667   0.16667   0.88022   0.00000  Uiso   1.00
Cu774  Cu    0.16667   0.16666   0.78645   0.00000  Uiso   1.00
H775   H     0.16602   0.03711   0.75743   0.00000  Uiso   1.00
H776   H     0.25187   0.23437   0.98392   0.00000  Uiso   1.00
H777   H     0.16731   0.29622   0.90924   0.00000  Uiso   1.00
H778   H     0.16617   0.29586   0.75751   0.00000  Uiso   1.00
H779   H     0.16716   0.03747   0.90916   0.00000  Uiso   1.00
H780   H     0.10928   0.12099   0.94839   0.00000  Uiso   1.00
H781   H     0.22405   0.21235   0.71828   0.00000  Uiso   1.00
H782   H     0.01322   0.19835   0.75370   0.00000  Uiso   1.00
H783   H     0.32011   0.13498   0.91297   0.00000  Uiso   1.00
H784   H     0.08146   0.09896   0.68274   0.00000  Uiso   1.00
N785   N     0.16668   0.16668   0.95069   0.00000  Uiso   1.00
N786   N     0.16665   0.16666   0.71597   0.00000  Uiso   1.00
O787   O     0.16666   0.10655   0.87291   0.00000  Uiso   1.00
O788   O     0.01203   0.14397   0.89242   0.00000  Uiso   1.00
O789   O     0.10209   0.11535   0.70788   0.00000  Uiso   1.00
O790   O     0.23124   0.21799   0.95879   0.00000  Uiso   1.00
O791   O     0.16667   0.22678   0.79375   0.00000  Uiso   1.00
O792   O     0.16666   0.10654   0.79372   0.00000  Uiso   1.00
O793   O     0.16667   0.22679   0.87294   0.00000  Uiso   1.00
O794   O     0.09161   0.16667   0.86379   0.00000  Uiso   1.00
O795   O     0.24172   0.16666   0.80288   0.00000  Uiso   1.00
O796   O     0.09161   0.16666   0.78460   0.00000  Uiso   1.00
O797   O     0.24172   0.16667   0.88207   0.00000  Uiso   1.00
O798   O     0.32130   0.18936   0.77425   0.00000  Uiso   1.00
C799   C     0.49994   0.08736   0.83328   0.00000  Uiso   1.00
C800   C     0.50027   0.02139   0.87588   0.00000  Uiso   1.00
C801   C     0.50006   0.29059   0.83339   0.00000  Uiso   1.00
C802   C     0.49994   0.04274   0.83328   0.00000  Uiso   1.00
C803   C     0.46774   0.14107   0.68744   0.00000  Uiso   1.00
C804   C     0.53226   0.19226   0.97923   0.00000  Uiso   1.00
C805   C     0.46798   0.14125   0.97090   0.00000  Uiso   1.00
C806   C     0.53202   0.19208   0.69577   0.00000  Uiso   1.00
C807   C     0.50006   0.24597   0.83338   0.00000  Uiso   1.00
C808   C     0.40139   0.16757   0.82136   0.00000  Uiso   1.00
C809   C     0.59861   0.16576   0.84530   0.00000  Uiso   1.00
C810   C     0.34633   0.17205   0.81538   0.00000  Uiso   1.00
C811   C     0.65368   0.16128   0.85128   0.00000  Uiso   1.00
C812   C     0.49965   0.02118   0.79073   0.00000  Uiso   1.00
C813   C     0.50035   0.31215   0.87593   0.00000  Uiso   1.00
C814   C     0.49973   0.31195   0.79078   0.00000  Uiso   1.00
Cu815  Cu    0.50000   0.16667   0.88022   0.00000  Uiso   1.00
Cu816  Cu    0.50000   0.16666   0.78645   0.00000  Uiso   1.00
H817   H     0.49935   0.03711   0.75743   0.00000  Uiso   1.00
H818   H     0.58521   0.23437   0.98392   0.00000  Uiso   1.00
H819   H     0.50065   0.29622   0.90924   0.00000  Uiso   1.00
H820   H     0.49951   0.29586   0.75751   0.00000  Uiso   1.00
H821   H     0.50049   0.03747   0.90916   0.00000  Uiso   1.00
H822   H     0.44262   0.12099   0.94839   0.00000  Uiso   1.00
H823   H     0.55738   0.21235   0.71828   0.00000  Uiso   1.00
H824   H     0.34656   0.19835   0.75370   0.00000  Uiso   1.00
H825   H     0.65344   0.13498   0.91297   0.00000  Uiso   1.00
H826   H     0.41479   0.09896   0.68274   0.00000  Uiso   1.00
N827   N     0.50001   0.16668   0.95069   0.00000  Uiso   1.00
N828   N     0.49999   0.16666   0.71597   0.00000  Uiso   1.00
O829   O     0.50000   0.10655   0.87291   0.00000  Uiso   1.00
O830   O     0.34536   0.14397   0.89242   0.00000  Uiso   1.00
O831   O     0.43542   0.11535   0.70788   0.00000  Uiso   1.00
O832   O     0.56458   0.21799   0.95879   0.00000  Uiso   1.00
O833   O     0.50000   0.22678   0.79375   0.00000  Uiso   1.00
O834   O     0.50000   0.10654   0.79372   0.00000  Uiso   1.00
O835   O     0.50000   0.22679   0.87294   0.00000  Uiso   1.00
O836   O     0.42495   0.16667   0.86379   0.00000  Uiso   1.00
O837   O     0.57505   0.16666   0.80288   0.00000  Uiso   1.00
O838   O     0.42494   0.16666   0.78460   0.00000  Uiso   1.00
O839   O     0.57506   0.16667   0.88207   0.00000  Uiso   1.00
O840   O     0.65464   0.18936   0.77425   0.00000  Uiso   1.00
C841   C     0.83328   0.08736   0.83328   0.00000  Uiso   1.00
C842   C     0.83361   0.02139   0.87588   0.00000  Uiso   1.00
C843   C     0.83340   0.29059   0.83339   0.00000  Uiso   1.00
C844   C     0.83327   0.04274   0.83328   0.00000  Uiso   1.00
C845   C     0.80107   0.14107   0.68744   0.00000  Uiso   1.00
C846   C     0.86560   0.19226   0.97923   0.00000  Uiso   1.00
C847   C     0.80132   0.14125   0.97090   0.00000  Uiso   1.00
C848   C     0.86535   0.19208   0.69577   0.00000  Uiso   1.00
C849   C     0.83339   0.24597   0.83338   0.00000  Uiso   1.00
C850   C     0.73473   0.16757   0.82136   0.00000  Uiso   1.00
C851   C     0.93194   0.16576   0.84530   0.00000  Uiso   1.00
C852   C     0.67966   0.17205   0.81538   0.00000  Uiso   1.00
C853   C     0.98701   0.16128   0.85128   0.00000  Uiso   1.00
C854   C     0.83298   0.02118   0.79073   0.00000  Uiso   1.00
C855   C     0.83369   0.31215   0.87593   0.00000  Uiso   1.00
C856   C     0.83306   0.31195   0.79078   0.00000  Uiso   1.00
Cu857  Cu    0.83333   0.16667   0.88022   0.00000  Uiso   1.00
Cu858  Cu    0.83333   0.16666   0.78645   0.00000  Uiso   1.00
H859   H     0.83269   0.03711   0.75743   0.00000  Uiso   1.00
H860   H     0.91854   0.23437   0.98392   0.00000  Uiso   1.00
H861   H     0.83398   0.29622   0.90924   0.00000  Uiso   1.00
H862   H     0.83284   0.29586   0.75751   0.00000  Uiso   1.00
H863   H     0.83383   0.03747   0.90916   0.00000  Uiso   1.00
H864   H     0.77595   0.12099   0.94839   0.00000  Uiso   1.00
H865   H     0.89072   0.21235   0.71828   0.00000  Uiso   1.00
H866   H     0.67989   0.19835   0.75370   0.00000  Uiso   1.00
H867   H     0.98678   0.13498   0.91297   0.00000  Uiso   1.00
H868   H     0.74813   0.09896   0.68274   0.00000  Uiso   1.00
N869   N     0.83335   0.16668   0.95069   0.00000  Uiso   1.00
N870   N     0.83332   0.16666   0.71597   0.00000  Uiso   1.00
O871   O     0.83333   0.10655   0.87291   0.00000  Uiso   1.00
O872   O     0.67870   0.14397   0.89242   0.00000  Uiso   1.00
O873   O     0.76876   0.11535   0.70788   0.00000  Uiso   1.00
O874   O     0.89791   0.21799   0.95879   0.00000  Uiso   1.00
O875   O     0.83334   0.22678   0.79375   0.00000  Uiso   1.00
O876   O     0.83333   0.10654   0.79372   0.00000  Uiso   1.00
O877   O     0.83334   0.22679   0.87294   0.00000  Uiso   1.00
O878   O     0.75828   0.16667   0.86379   0.00000  Uiso   1.00
O879   O     0.90839   0.16666   0.80288   0.00000  Uiso   1.00
O880   O     0.75828   0.16666   0.78460   0.00000  Uiso   1.00
O881   O     0.90839   0.16667   0.88207   0.00000  Uiso   1.00
O882   O     0.98797   0.18936   0.77425   0.00000  Uiso   1.00
C883   C     0.16661   0.42070   0.83328   0.00000  Uiso   1.00
C884   C     0.16694   0.35472   0.87588   0.00000  Uiso   1.00
C885   C     0.16673   0.62392   0.83339   0.00000  Uiso   1.00
C886   C     0.16660   0.37608   0.83328   0.00000  Uiso   1.00
C887   C     0.13440   0.47441   0.68744   0.00000  Uiso   1.00
C888   C     0.19893   0.52559   0.97923   0.00000  Uiso   1.00
C889   C     0.13465   0.47459   0.97090   0.00000  Uiso   1.00
C890   C     0.19869   0.52541   0.69577   0.00000  Uiso   1.00
C891   C     0.16673   0.57930   0.83338   0.00000  Uiso   1.00
C892   C     0.06806   0.50091   0.82136   0.00000  Uiso   1.00
C893   C     0.26527   0.49909   0.84530   0.00000  Uiso   1.00
C894   C     0.01299   0.50539   0.81538   0.00000  Uiso   1.00
C895   C     0.32034   0.49461   0.85128   0.00000  Uiso   1.00
C896   C     0.16631   0.35452   0.79073   0.00000  Uiso   1.00
C897   C     0.16702   0.64548   0.87593   0.00000  Uiso   1.00
C898   C     0.16639   0.64528   0.79078   0.00000  Uiso   1.00
Cu899  Cu    0.16667   0.50001   0.88022   0.00000  Uiso   1.00
Cu900  Cu    0.16667   0.49999   0.78645   0.00000  Uiso   1.00
H901   H     0.16602   0.37045   0.75743   0.00000  Uiso   1.00
H902   H     0.25187   0.56771   0.98392   0.00000  Uiso   1.00
H903   H     0.16731   0.62955   0.90924   0.00000  Uiso   1.00
H904   H     0.16617   0.62919   0.75751   0.00000  Uiso   1.00
H905   H     0.16716   0.37081   0.90916   0.00000  Uiso   1.00
H906   H     0.10928   0.45432   0.94839   0.00000  Uiso   1.00
H907   H     0.22405   0.54568   0.71828   0.00000  Uiso   1.00
H908   H     0.01322   0.53168   0.75370   0.00000  Uiso   1.00
H909   H     0.32011   0.46832   0.91297   0.00000  Uiso   1.00
H910   H     0.08146   0.43229   0.68274   0.00000  Uiso   1.00
N911   N     0.16668   0.50001   0.95069   0.00000  Uiso   1.00
N912   N     0.16665   0.49999   0.71597   0.00000  Uiso   1.00
O913   O     0.16666   0.43989   0.87291   0.00000  Uiso   1.00
O914   O     0.01203   0.47731   0.89242   0.00000  Uiso   1.00
O915   O     0.10209   0.44868   0.70788   0.00000  Uiso   1.00
O916   O     0.23124   0.55132   0.95879   0.00000  Uiso   1.00
O917   O     0.16667   0.56011   0.79375   0.00000  Uiso   1.00
O918   O     0.16666   0.43988   0.79372   0.00000  Uiso   1.00
O919   O     0.16667   0.56012   0.87294   0.00000  Uiso   1.00
O920   O     0.09161   0.50000   0.86379   0.00000  Uiso   1.00
O921   O     0.24172   0.50000   0.80288   0.00000  Uiso   1.00
O922   O     0.09161   0.49999   0.78460   0.00000  Uiso   1.00
O923   O     0.24172   0.50001   0.88207   0.00000  Uiso   1.00
O924   O     0.32130   0.52269   0.77425   0.00000  Uiso   1.00
C925   C     0.49994   0.42070   0.83328   0.00000  Uiso   1.00
C926   C     0.50027   0.35472   0.87588   0.00000  Uiso   1.00
C927   C     0.50006   0.62392   0.83339   0.00000  Uiso   1.00
C928   C     0.49994   0.37608   0.83328   0.00000  Uiso   1.00
C929   C     0.46774   0.47441   0.68744   0.00000  Uiso   1.00
C930   C     0.53226   0.52559   0.97923   0.00000  Uiso   1.00
C931   C     0.46798   0.47459   0.97090   0.00000  Uiso   1.00
C932   C     0.53202   0.52541   0.69577   0.00000  Uiso   1.00
C933   C     0.50006   0.57930   0.83338   0.00000  Uiso   1.00
C934   C     0.40139   0.50091   0.82136   0.00000  Uiso   1.00
C935   C     0.59861   0.49909   0.84530   0.00000  Uiso   1.00
C936   C     0.34633   0.50539   0.81538   0.00000  Uiso   1.00
C937   C     0.65368   0.49461   0.85128   0.00000  Uiso   1.00
C938   C     0.49965   0.35452   0.79073   0.00000  Uiso   1.00
C939   C     0.50035   0.64548   0.87593   0.00000  Uiso   1.00
C940   C     0.49973   0.64528   0.79078   0.00000  Uiso   1.00
Cu941  Cu    0.50000   0.50001   0.88022   0.00000  Uiso   1.00
Cu942  Cu    0.50000   0.49999   0.78645   0.00000  Uiso   1.00
H943   H     0.49935   0.37045   0.75743   0.00000  Uiso   1.00
H944   H     0.58521   0.56771   0.98392   0.00000  Uiso   1.00
H945   H     0.50065   0.62955   0.90924   0.00000  Uiso   1.00
H946   H     0.49951   0.62919   0.75751   0.00000  Uiso   1.00
H947   H     0.50049   0.37081   0.90916   0.00000  Uiso   1.00
H948   H     0.44262   0.45432   0.94839   0.00000  Uiso   1.00
H949   H     0.55738   0.54568   0.71828   0.00000  Uiso   1.00
H950   H     0.34656   0.53168   0.75370   0.00000  Uiso   1.00
H951   H     0.65344   0.46832   0.91297   0.00000  Uiso   1.00
H952   H     0.41479   0.43229   0.68274   0.00000  Uiso   1.00
N953   N     0.50001   0.50001   0.95069   0.00000  Uiso   1.00
N954   N     0.49999   0.49999   0.71597   0.00000  Uiso   1.00
O955   O     0.50000   0.43989   0.87291   0.00000  Uiso   1.00
O956   O     0.34536   0.47731   0.89242   0.00000  Uiso   1.00
O957   O     0.43542   0.44868   0.70788   0.00000  Uiso   1.00
O958   O     0.56458   0.55132   0.95879   0.00000  Uiso   1.00
O959   O     0.50000   0.56011   0.79375   0.00000  Uiso   1.00
O960   O     0.50000   0.43988   0.79372   0.00000  Uiso   1.00
O961   O     0.50000   0.56012   0.87294   0.00000  Uiso   1.00
O962   O     0.42495   0.50000   0.86379   0.00000  Uiso   1.00
O963   O     0.57505   0.50000   0.80288   0.00000  Uiso   1.00
O964   O     0.42494   0.49999   0.78460   0.00000  Uiso   1.00
O965   O     0.57506   0.50001   0.88207   0.00000  Uiso   1.00
O966   O     0.65464   0.52269   0.77425   0.00000  Uiso   1.00
C967   C     0.83328   0.42070   0.83328   0.00000  Uiso   1.00
C968   C     0.83361   0.35472   0.87588   0.00000  Uiso   1.00
C969   C     0.83340   0.62392   0.83339   0.00000  Uiso   1.00
C970   C     0.83327   0.37608   0.83328   0.00000  Uiso   1.00
C971   C     0.80107   0.47441   0.68744   0.00000  Uiso   1.00
C972   C     0.86560   0.52559   0.97923   0.00000  Uiso   1.00
C973   C     0.80132   0.47459   0.97090   0.00000  Uiso   1.00
C974   C     0.86535   0.52541   0.69577   0.00000  Uiso   1.00
C975   C     0.83339   0.57930   0.83338   0.00000  Uiso   1.00
C976   C     0.73473   0.50091   0.82136   0.00000  Uiso   1.00
C977   C     0.93194   0.49909   0.84530   0.00000  Uiso   1.00
C978   C     0.67966   0.50539   0.81538   0.00000  Uiso   1.00
C979   C     0.98701   0.49461   0.85128   0.00000  Uiso   1.00
C980   C     0.83298   0.35452   0.79073   0.00000  Uiso   1.00
C981   C     0.83369   0.64548   0.87593   0.00000  Uiso   1.00
C982   C     0.83306   0.64528   0.79078   0.00000  Uiso   1.00
Cu983  Cu    0.83333   0.50001   0.88022   0.00000  Uiso   1.00
Cu984  Cu    0.83333   0.49999   0.78645   0.00000  Uiso   1.00
H985   H     0.83269   0.37045   0.75743   0.00000  Uiso   1.00
H986   H     0.91854   0.56771   0.98392   0.00000  Uiso   1.00
H987   H     0.83398   0.62955   0.90924   0.00000  Uiso   1.00
H988   H     0.83284   0.62919   0.75751   0.00000  Uiso   1.00
H989   H     0.83383   0.37081   0.90916   0.00000  Uiso   1.00
H990   H     0.77595   0.45432   0.94839   0.00000  Uiso   1.00
H991   H     0.89072   0.54568   0.71828   0.00000  Uiso   1.00
H992   H     0.67989   0.53168   0.75370   0.00000  Uiso   1.00
H993   H     0.98678   0.46832   0.91297   0.00000  Uiso   1.00
H994   H     0.74813   0.43229   0.68274   0.00000  Uiso   1.00
N995   N     0.83335   0.50001   0.95069   0.00000  Uiso   1.00
N996   N     0.83332   0.49999   0.71597   0.00000  Uiso   1.00
O997   O     0.83333   0.43989   0.87291   0.00000  Uiso   1.00
O998   O     0.67870   0.47731   0.89242   0.00000  Uiso   1.00
O999   O     0.76876   0.44868   0.70788   0.00000  Uiso   1.00
O1000  O     0.89791   0.55132   0.95879   0.00000  Uiso   1.00
O1001  O     0.83334   0.56011   0.79375   0.00000  Uiso   1.00
O1002  O     0.83333   0.43988   0.79372   0.00000  Uiso   1.00
O1003  O     0.83334   0.56012   0.87294   0.00000  Uiso   1.00
O1004  O     0.75828   0.50000   0.86379   0.00000  Uiso   1.00
O1005  O     0.90839   0.50000   0.80288   0.00000  Uiso   1.00
O1006  O     0.75828   0.49999   0.78460   0.00000  Uiso   1.00
O1007  O     0.90839   0.50001   0.88207   0.00000  Uiso   1.00
O1008  O     0.98797   0.52269   0.77425   0.00000  Uiso   1.00
C1009  C     0.16661   0.75403   0.83328   0.00000  Uiso   1.00
C1010  C     0.16694   0.68805   0.87588   0.00000  Uiso   1.00
C1011  C     0.16673   0.95726   0.83339   0.00000  Uiso   1.00
C1012  C     0.16660   0.70941   0.83328   0.00000  Uiso   1.00
C1013  C     0.13440   0.80774   0.68744   0.00000  Uiso   1.00
C1014  C     0.19893   0.85893   0.97923   0.00000  Uiso   1.00
C1015  C     0.13465   0.80792   0.97090   0.00000  Uiso   1.00
C1016  C     0.19869   0.85875   0.69577   0.00000  Uiso   1.00
C1017  C     0.16673   0.91264   0.83338   0.00000  Uiso   1.00
C1018  C     0.06806   0.83424   0.82136   0.00000  Uiso   1.00
C1019  C     0.26527   0.83243   0.84530   0.00000  Uiso   1.00
C1020  C     0.01299   0.83872   0.81538   0.00000  Uiso   1.00
C1021  C     0.32034   0.82795   0.85128   0.00000  Uiso   1.00
C1022  C     0.16631   0.68785   0.79073   0.00000  Uiso   1.00
C1023  C     0.16702   0.97882   0.87593   0.00000  Uiso   1.00
C1024  C     0.16639   0.97861   0.79078   0.00000  Uiso   1.00
Cu1025 Cu    0.16667   0.83334   0.88022   0.00000  Uiso   1.00
Cu1026 Cu    0.16667   0.83333   0.78645   0.00000  Uiso   1.00
H1027  H     0.16602   0.70378   0.75743   0.00000  Uiso   1.00
H1028  H     0.25187   0.90104   0.98392   0.00000  Uiso   1.00
H1029  H     0.16731   0.96289   0.90924   0.00000  Uiso   1.00
H1030  H     0.16617   0.96253   0.75751   0.00000  Uiso   1.00
H1031  H     0.16716   0.70414   0.90916   0.00000  Uiso   1.00
H1032  H     0.10928   0.78765   0.94839   0.00000  Uiso   1.00
H1033  H     0.22405   0.87901   0.71828   0.00000  Uiso   1.00
H1034  H     0.01322   0.86502   0.75370   0.00000  Uiso   1.00
H1035  H     0.32011   0.80165   0.91297   0.00000  Uiso   1.00
H1036  H     0.08146   0.76563   0.68274   0.00000  Uiso   1.00
N1037  N     0.16668   0.83334   0.95069   0.00000  Uiso   1.00
N1038  N     0.16665   0.83332   0.71597   0.00000  Uiso   1.00
O1039  O     0.16666   0.77322   0.87291   0.00000  Uiso   1.00
O1040  O     0.01203   0.81064   0.89242   0.00000  Uiso   1.00
O1041  O     0.10209   0.78201   0.70788   0.00000  Uiso   1.00
O1042  O     0.23124   0.88465   0.95879   0.00000  Uiso   1.00
O1043  O     0.16667   0.89345   0.79375   0.00000  Uiso   1.00
O1044  O     0.16666   0.77321   0.79372   0.00000  Uiso   1.00
O1045  O     0.16667   0.89346   0.87294   0.00000  Uiso   1.00
O1046  O     0.09161   0.83334   0.86379   0.00000  Uiso   1.00
O1047  O     0.24172   0.83333   0.80288   0.00000  Uiso   1.00
O1048  O     0.09161   0.83333   0.78460   0.00000  Uiso   1.00
O1049  O     0.24172   0.83334   0.88207   0.00000  Uiso   1.00
O1050  O     0.32130   0.85603   0.77425   0.00000  Uiso   1.00
C1051  C     0.49994   0.75403   0.83328   0.00000  Uiso   1.00
C1052  C     0.50027   0.68805   0.87588   0.00000  Uiso   1.00
C1053  C     0.50006   0.95726   0.83339   0.00000  Uiso   1.00
C1054  C     0.49994   0.70941   0.83328   0.00000  Uiso   1.00
C1055  C     0.46774   0.80774   0.68744   0.00000  Uiso   1.00
C1056  C     0.53226   0.85893   0.97923   0.00000  Uiso   1.00
C1057  C     0.46798   0.80792   0.97090   0.00000  Uiso   1.00
C1058  C     0.53202   0.85875   0.69577   0.00000  Uiso   1.00
C1059  C     0.50006   0.91264   0.83338   0.00000  Uiso   1.00
C1060  C     0.40139   0.83424   0.82136   0.00000  Uiso   1.00
C1061  C     0.59861   0.83243   0.84530   0.00000  Uiso   1.00
C1062  C     0.34633   0.83872   0.81538   0.00000  Uiso   1.00
C1063  C     0.65368   0.82795   0.85128   0.00000  Uiso   1.00
C1064  C     0.49965   0.68785   0.79073   0.00000  Uiso   1.00
C1065  C     0.50035   0.97882   0.87593   0.00000  Uiso   1.00
C1066  C     0.49973   0.97861   0.79078   0.00000  Uiso   1.00
Cu1067 Cu    0.50000   0.83334   0.88022   0.00000  Uiso   1.00
Cu1068 Cu    0.50000   0.83333   0.78645   0.00000  Uiso   1.00
H1069  H     0.49935   0.70378   0.75743   0.00000  Uiso   1.00
H1070  H     0.58521   0.90104   0.98392   0.00000  Uiso   1.00
H1071  H     0.50065   0.96289   0.90924   0.00000  Uiso   1.00
H1072  H     0.49951   0.96253   0.75751   0.00000  Uiso   1.00
H1073  H     0.50049   0.70414   0.90916   0.00000  Uiso   1.00
H1074  H     0.44262   0.78765   0.94839   0.00000  Uiso   1.00
H1075  H     0.55738   0.87901   0.71828   0.00000  Uiso   1.00
H1076  H     0.34656   0.86502   0.75370   0.00000  Uiso   1.00
H1077  H     0.65344   0.80165   0.91297   0.00000  Uiso   1.00
H1078  H     0.41479   0.76563   0.68274   0.00000  Uiso   1.00
N1079  N     0.50001   0.83334   0.95069   0.00000  Uiso   1.00
N1080  N     0.49999   0.83332   0.71597   0.00000  Uiso   1.00
O1081  O     0.50000   0.77322   0.87291   0.00000  Uiso   1.00
O1082  O     0.34536   0.81064   0.89242   0.00000  Uiso   1.00
O1083  O     0.43542   0.78201   0.70788   0.00000  Uiso   1.00
O1084  O     0.56458   0.88465   0.95879   0.00000  Uiso   1.00
O1085  O     0.50000   0.89345   0.79375   0.00000  Uiso   1.00
O1086  O     0.50000   0.77321   0.79372   0.00000  Uiso   1.00
O1087  O     0.50000   0.89346   0.87294   0.00000  Uiso   1.00
O1088  O     0.42495   0.83334   0.86379   0.00000  Uiso   1.00
O1089  O     0.57505   0.83333   0.80288   0.00000  Uiso   1.00
O1090  O     0.42494   0.83333   0.78460   0.00000  Uiso   1.00
O1091  O     0.57506   0.83334   0.88207   0.00000  Uiso   1.00
O1092  O     0.65464   0.85603   0.77425   0.00000  Uiso   1.00
C1093  C     0.83328   0.75403   0.83328   0.00000  Uiso   1.00
C1094  C     0.83361   0.68805   0.87588   0.00000  Uiso   1.00
C1095  C     0.83340   0.95726   0.83339   0.00000  Uiso   1.00
C1096  C     0.83327   0.70941   0.83328   0.00000  Uiso   1.00
C1097  C     0.80107   0.80774   0.68744   0.00000  Uiso   1.00
C1098  C     0.86560   0.85893   0.97923   0.00000  Uiso   1.00
C1099  C     0.80132   0.80792   0.97090   0.00000  Uiso   1.00
C1100  C     0.86535   0.85875   0.69577   0.00000  Uiso   1.00
C1101  C     0.83339   0.91264   0.83338   0.00000  Uiso   1.00
C1102  C     0.73473   0.83424   0.82136   0.00000  Uiso   1.00
C1103  C     0.93194   0.83243   0.84530   0.00000  Uiso   1.00
C1104  C     0.67966   0.83872   0.81538   0.00000  Uiso   1.00
C1105  C     0.98701   0.82795   0.85128   0.00000  Uiso   1.00
C1106  C     0.83298   0.68785   0.79073   0.00000  Uiso   1.00
C1107  C     0.83369   0.97882   0.87593   0.00000  Uiso   1.00
C1108  C     0.83306   0.97861   0.79078   0.00000  Uiso   1.00
Cu1109 Cu    0.83333   0.83334   0.88022   0.00000  Uiso   1.00
Cu1110 Cu    0.83333   0.83333   0.78645   0.00000  Uiso   1.00
H1111  H     0.83269   0.70378   0.75743   0.00000  Uiso   1.00
H1112  H     0.91854   0.90104   0.98392   0.00000  Uiso   1.00
H1113  H     0.83398   0.96289   0.90924   0.00000  Uiso   1.00
H1114  H     0.83284   0.96253   0.75751   0.00000  Uiso   1.00
H1115  H     0.83383   0.70414   0.90916   0.00000  Uiso   1.00
H1116  H     0.77595   0.78765   0.94839   0.00000  Uiso   1.00
H1117  H     0.89072   0.87901   0.71828   0.00000  Uiso   1.00
H1118  H     0.67989   0.86502   0.75370   0.00000  Uiso   1.00
H1119  H     0.98678   0.80165   0.91297   0.00000  Uiso   1.00
H1120  H     0.74813   0.76563   0.68274   0.00000  Uiso   1.00
N1121  N     0.83335   0.83334   0.95069   0.00000  Uiso   1.00
N1122  N     0.83332   0.83332   0.71597   0.00000  Uiso   1.00
O1123  O     0.83333   0.77322   0.87291   0.00000  Uiso   1.00
O1124  O     0.67870   0.81064   0.89242   0.00000  Uiso   1.00
O1125  O     0.76876   0.78201   0.70788   0.00000  Uiso   1.00
O1126  O     0.89791   0.88465   0.95879   0.00000  Uiso   1.00
O1127  O     0.83334   0.89345   0.79375   0.00000  Uiso   1.00
O1128  O     0.83333   0.77321   0.79372   0.00000  Uiso   1.00
O1129  O     0.83334   0.89346   0.87294   0.00000  Uiso   1.00
O1130  O     0.75828   0.83334   0.86379   0.00000  Uiso   1.00
O1131  O     0.90839   0.83333   0.80288   0.00000  Uiso   1.00
O1132  O     0.75828   0.83333   0.78460   0.00000  Uiso   1.00
O1133  O     0.90839   0.83334   0.88207   0.00000  Uiso   1.00
O1134  O     0.98797   0.85603   0.77425   0.00000  Uiso   1.00
loop_
_geom_bond_atom_site_label_1
_geom_bond_atom_site_label_2
_geom_bond_distance
_geom_bond_site_symmetry_2
_ccdc_geom_bond_type
C1     C4      1.450   .     S
C1     O31     1.291   .     A
C1     O36     1.292   .     A
C2     C4      1.402   .     A
C2     H23     1.083   .     S
C2     C267    1.384   1_545 S
C3     C9      1.450   .     S
C3     C15     1.401   .     A
C3     C16     1.402   .     A
C4     C14     1.401   .     A
C5     N30     1.371   .     A
C5     O33     1.378   .     S
C5     C763    1.426   1_554 S
C6     N29     1.371   .     A
C6     O34     1.378   .     S
C6     C386    1.426   .     S
C7     N29     1.364   .     A
C7     H24     1.082   .     S
C7     C383    1.426   .     S
C8     N30     1.364   .     A
C8     H25     1.082   .     S
C8     C762    1.426   1_554 S
C9     O37     1.292   .     A
C9     O35     1.291   .     A
C10    O38     1.285   .     A
C10    C12     1.449   .     S
C10    O40     1.293   .     A
C11    O39     1.285   .     A
C11    C13     1.449   .     S
C11    O41     1.293   .     A
C12    C97     1.356   1_455 S
C12    O126    1.389   1_455 S
C13    C54     1.356   .     S
C13    O74     1.389   .     S
C14    H19     1.083   .     S
C14    C268    1.384   1_545 S
C15    H21     1.083   .     S
C15    C128    1.384   .     S
C16    H22     1.083   .     S
C16    C140    1.384   .     S
Cu17   N29     2.013   .     S
Cu17   Cu18    2.679   .     S
Cu17   O37     1.965   .     S
Cu17   O38     1.973   .     S
Cu17   O31     1.965   .     S
Cu17   O41     1.976   .     S
Cu18   O39     1.973   .     S
Cu18   N30     2.013   .     S
Cu18   O35     1.965   .     S
Cu18   O40     1.976   .     S
Cu18   O36     1.965   .     S
H20    O34     0.992   .     S
H26    O126    0.990   1_455 S
H27    O74     0.990   .     S
H28    O33     0.992   .     S
O32    H111    0.990   1_455 S
O32    C97     1.389   1_455 S
O42    H68     0.990   .     S
O42    C54     1.389   .     S
C43    C46     1.450   .     S
C43    O73     1.291   .     A
C43    O78     1.292   .     A
C44    C46     1.402   .     A
C44    H65     1.083   .     S
C44    C309    1.384   1_545 S
C45    C51     1.450   .     S
C45    C57     1.401   .     A
C45    C58     1.402   .     A
C46    C56     1.401   .     A
C47    N72     1.371   .     A
C47    O75     1.378   .     S
C47    C805    1.426   1_554 S
C48    N71     1.371   .     A
C48    O76     1.378   .     S
C48    C428    1.426   .     S
C49    N71     1.364   .     A
C49    H66     1.082   .     S
C49    C425    1.426   .     S
C50    N72     1.364   .     A
C50    H67     1.082   .     S
C50    C804    1.426   1_554 S
C51    O79     1.292   .     A
C51    O77     1.291   .     A
C52    O80     1.285   .     A
C52    C54     1.449   .     S
C52    O82     1.293   .     A
C53    O81     1.285   .     A
C53    C55     1.449   .     S
C53    O83     1.293   .     A
C55    C96     1.356   .     S
C55    O116    1.389   .     S
C56    H61     1.083   .     S
C56    C310    1.384   1_545 S
C57    H63     1.083   .     S
C57    C170    1.384   .     S
C58    H64     1.083   .     S
C58    C182    1.384   .     S
Cu59   N71     2.013   .     S
Cu59   Cu60    2.679   .     S
Cu59   O79     1.965   .     S
Cu59   O80     1.973   .     S
Cu59   O73     1.965   .     S
Cu59   O83     1.976   .     S
Cu60   O81     1.973   .     S
Cu60   N72     2.013   .     S
Cu60   O77     1.965   .     S
Cu60   O82     1.976   .     S
Cu60   O78     1.965   .     S
H62    O76     0.992   .     S
H69    O116    0.990   .     S
H70    O75     0.992   .     S
O84    H110    0.990   .     S
O84    C96     1.389   .     S
C85    C88     1.450   .     S
C85    O115    1.291   .     A
C85    O120    1.292   .     A
C86    C88     1.402   .     A
C86    H107    1.083   .     S
C86    C351    1.384   1_545 S
C87    C93     1.450   .     S
C87    C99     1.401   .     A
C87    C100    1.402   .     A
C88    C98     1.401   .     A
C89    N114    1.371   .     A
C89    O117    1.378   .     S
C89    C847    1.426   1_554 S
C90    N113    1.371   .     A
C90    O118    1.378   .     S
C90    C470    1.426   .     S
C91    N113    1.364   .     A
C91    H108    1.082   .     S
C91    C467    1.426   .     S
C92    N114    1.364   .     A
C92    H109    1.082   .     S
C92    C846    1.426   1_554 S
C93    O121    1.292   .     A
C93    O119    1.291   .     A
C94    O122    1.285   .     A
C94    C96     1.449   .     S
C94    O124    1.293   .     A
C95    O123    1.285   .     A
C95    C97     1.449   .     S
C95    O125    1.293   .     A
C97    C12     1.356   1_655 S
C97    O32     1.389   1_655 S
C98    H103    1.083   .     S
C98    C352    1.384   1_545 S
C99    H105    1.083   .     S
C99    C212    1.384   .     S
C100   H106    1.083   .     S
C100   C224    1.384   .     S
Cu101  N113    2.013   .     S
Cu101  Cu102   2.679   .     S
Cu101  O121    1.965   .     S
Cu101  O122    1.973   .     S
Cu101  O115    1.965   .     S
Cu101  O125    1.976   .     S
Cu102  O123    1.973   .     S
Cu102  N114    2.013   .     S
Cu102  O119    1.965   .     S
Cu102  O124    1.976   .     S
Cu102  O120    1.965   .     S
H104   O118    0.992   .     S
H111   O32     0.990   1_655 S
H112   O117    0.992   .     S
O126   H26     0.990   1_655 S
O126   C12     1.389   1_655 S
C127   C130    1.450   .     S
C127   O157    1.291   .     A
C127   O162    1.292   .     A
C128   C130    1.402   .     A
C128   H149    1.083   .     S
C129   C135    1.450   .     S
C129   C141    1.401   .     A
C129   C142    1.402   .     A
C130   C140    1.401   .     A
C131   N156    1.371   .     A
C131   O159    1.378   .     S
C131   C889    1.426   1_554 S
C132   N155    1.371   .     A
C132   O160    1.378   .     S
C132   C512    1.426   .     S
C133   N155    1.364   .     A
C133   H150    1.082   .     S
C133   C509    1.426   .     S
C134   N156    1.364   .     A
C134   H151    1.082   .     S
C134   C888    1.426   1_554 S
C135   O163    1.292   .     A
C135   O161    1.291   .     A
C136   O164    1.285   .     A
C136   C138    1.449   .     S
C136   O166    1.293   .     A
C137   O165    1.285   .     A
C137   C139    1.449   .     S
C137   O167    1.293   .     A
C138   C223    1.356   1_455 S
C138   O252    1.389   1_455 S
C139   C180    1.356   .     S
C139   O200    1.389   .     S
C140   H145    1.083   .     S
C141   H147    1.083   .     S
C141   C254    1.384   .     S
C142   H148    1.083   .     S
C142   C266    1.384   .     S
Cu143  N155    2.013   .     S
Cu143  Cu144   2.679   .     S
Cu143  O163    1.965   .     S
Cu143  O164    1.973   .     S
Cu143  O157    1.965   .     S
Cu143  O167    1.976   .     S
Cu144  O165    1.973   .     S
Cu144  N156    2.013   .     S
Cu144  O161    1.965   .     S
Cu144  O166    1.976   .     S
Cu144  O162    1.965   .     S
H146   O160    0.992   .     S
H152   O252    0.990   1_455 S
H153   O200    0.990   .     S
H154   O159    0.992   .     S
O158   H237    0.990   1_455 S
O158   C223    1.389   1_455 S
O168   H194    0.990   .     S
O168   C180    1.389   .     S
C169   C172    1.450   .     S
C169   O199    1.291   .     A
C169   O204    1.292   .     A
C170   C172    1.402   .     A
C170   H191    1.083   .     S
C171   C177    1.450   .     S
C171   C183    1.401   .     A
C171   C184    1.402   .     A
C172   C182    1.401   .     A
C173   N198    1.371   .     A
C173   O201    1.378   .     S
C173   C931    1.426   1_554 S
C174   N197    1.371   .     A
C174   O202    1.378   .     S
C174   C554    1.426   .     S
C175   N197    1.364   .     A
C175   H192    1.082   .     S
C175   C551    1.426   .     S
C176   N198    1.364   .     A
C176   H193    1.082   .     S
C176   C930    1.426   1_554 S
C177   O205    1.292   .     A
C177   O203    1.291   .     A
C178   O206    1.285   .     A
C178   C180    1.449   .     S
C178   O208    1.293   .     A
C179   O207    1.285   .     A
C179   C181    1.449   .     S
C179   O209    1.293   .     A
C181   C222    1.356   .     S
C181   O242    1.389   .     S
C182   H187    1.083   .     S
C183   H189    1.083   .     S
C183   C296    1.384   .     S
C184   H190    1.083   .     S
C184   C308    1.384   .     S
Cu185  N197    2.013   .     S
Cu185  Cu186   2.679   .     S
Cu185  O205    1.965   .     S
Cu185  O206    1.973   .     S
Cu185  O199    1.965   .     S
Cu185  O209    1.976   .     S
Cu186  O207    1.973   .     S
Cu186  N198    2.013   .     S
Cu186  O203    1.965   .     S
Cu186  O208    1.976   .     S
Cu186  O204    1.965   .     S
H188   O202    0.992   .     S
H195   O242    0.990   .     S
H196   O201    0.992   .     S
O210   H236    0.990   .     S
O210   C222    1.389   .     S
C211   C214    1.450   .     S
C211   O241    1.291   .     A
C211   O246    1.292   .     A
C212   C214    1.402   .     A
C212   H233    1.083   .     S
C213   C219    1.450   .     S
C213   C225    1.401   .     A
C213   C226    1.402   .     A
C214   C224    1.401   .     A
C215   N240    1.371   .     A
C215   O243    1.378   .     S
C215   C973    1.426   1_554 S
C216   N239    1.371   .     A
C216   O244    1.378   .     S
C216   C596    1.426   .     S
C217   N239    1.364   .     A
C217   H234    1.082   .     S
C217   C593    1.426   .     S
C218   N240    1.364   .     A
C218   H235    1.082   .     S
C218   C972    1.426   1_554 S
C219   O247    1.292   .     A
C219   O245    1.291   .     A
C220   O248    1.285   .     A
C220   C222    1.449   .     S
C220   O250    1.293   .     A
C221   O249    1.285   .     A
C221   C223    1.449   .     S
C221   O251    1.293   .     A
C223   C138    1.356   1_655 S
C223   O158    1.389   1_655 S
C224   H229    1.083   .     S
C225   H231    1.083   .     S
C225   C338    1.384   .     S
C226   H232    1.083   .     S
C226   C350    1.384   .     S
Cu227  N239    2.013   .     S
Cu227  Cu228   2.679   .     S
Cu227  O247    1.965   .     S
Cu227  O248    1.973   .     S
Cu227  O241    1.965   .     S
Cu227  O251    1.976   .     S
Cu228  O249    1.973   .     S
Cu228  N240    2.013   .     S
Cu228  O245    1.965   .     S
Cu228  O250    1.976   .     S
Cu228  O246    1.965   .     S
H230   O244    0.992   .     S
H237   O158    0.990   1_655 S
H238   O243    0.992   .     S
O252   H152    0.990   1_655 S
O252   C138    1.389   1_655 S
C253   C256    1.450   .     S
C253   O283    1.291   .     A
C253   O288    1.292   .     A
C254   C256    1.402   .     A
C254   H275    1.083   .     S
C255   C261    1.450   .     S
C255   C267    1.401   .     A
C255   C268    1.402   .     A
C256   C266    1.401   .     A
C257   N282    1.371   .     A
C257   O285    1.378   .     S
C257   C1015   1.426   1_554 S
C258   N281    1.371   .     A
C258   O286    1.378   .     S
C258   C638    1.426   .     S
C259   N281    1.364   .     A
C259   H276    1.082   .     S
C259   C635    1.426   .     S
C260   N282    1.364   .     A
C260   H277    1.082   .     S
C260   C1014   1.426   1_554 S
C261   O289    1.292   .     A
C261   O287    1.291   .     A
C262   O290    1.285   .     A
C262   C264    1.449   .     S
C262   O292    1.293   .     A
C263   O291    1.285   .     A
C263   C265    1.449   .     S
C263   O293    1.293   .     A
C264   C349    1.356   1_455 S
C264   O378    1.389   1_455 S
C265   C306    1.356   .     S
C265   O326    1.389   .     S
C266   H271    1.083   .     S
C267   H273    1.083   .     S
C267   C2      1.384   1_565 S
C268   H274    1.083   .     S
C268   C14     1.384   1_565 S
Cu269  N281    2.013   .     S
Cu269  Cu270   2.679   .     S
Cu269  O289    1.965   .     S
Cu269  O290    1.973   .     S
Cu269  O283    1.965   .     S
Cu269  O293    1.976   .     S
Cu270  O291    1.973   .     S
Cu270  N282    2.013   .     S
Cu270  O287    1.965   .     S
Cu270  O292    1.976   .     S
Cu270  O288    1.965   .     S
H272   O286    0.992   .     S
H278   O378    0.990   1_455 S
H279   O326    0.990   .     S
H280   O285    0.992   .     S
O284   H363    0.990   1_455 S
O284   C349    1.389   1_455 S
O294   H320    0.990   .     S
O294   C306    1.389   .     S
C295   C298    1.450   .     S
C295   O325    1.291   .     A
C295   O330    1.292   .     A
C296   C298    1.402   .     A
C296   H317    1.083   .     S
C297   C303    1.450   .     S
C297   C309    1.401   .     A
C297   C310    1.402   .     A
C298   C308    1.401   .     A
C299   N324    1.371   .     A
C299   O327    1.378   .     S
C299   C1057   1.426   1_554 S
C300   N323    1.371   .     A
C300   O328    1.378   .     S
C300   C680    1.426   .     S
C301   N323    1.364   .     A
C301   H318    1.082   .     S
C301   C677    1.426   .     S
C302   N324    1.364   .     A
C302   H319    1.082   .     S
C302   C1056   1.426   1_554 S
C303   O331    1.292   .     A
C303   O329    1.291   .     A
C304   O332    1.285   .     A
C304   C306    1.449   .     S
C304   O334    1.293   .     A
C305   O333    1.285   .     A
C305   C307    1.449   .     S
C305   O335    1.293   .     A
C307   C348    1.356   .     S
C307   O368    1.389   .     S
C308   H313    1.083   .     S
C309   H315    1.083   .     S
C309   C44     1.384   1_565 S
C310   H316    1.083   .     S
C310   C56     1.384   1_565 S
Cu311  N323    2.013   .     S
Cu311  Cu312   2.679   .     S
Cu311  O331    1.965   .     S
Cu311  O332    1.973   .     S
Cu311  O325    1.965   .     S
Cu311  O335    1.976   .     S
Cu312  O333    1.973   .     S
Cu312  N324    2.013   .     S
Cu312  O329    1.965   .     S
Cu312  O334    1.976   .     S
Cu312  O330    1.965   .     S
H314   O328    0.992   .     S
H321   O368    0.990   .     S
H322   O327    0.992   .     S
O336   H362    0.990   .     S
O336   C348    1.389   .     S
C337   C340    1.450   .     S
C337   O367    1.291   .     A
C337   O372    1.292   .     A
C338   C340    1.402   .     A
C338   H359    1.083   .     S
C339   C345    1.450   .     S
C339   C351    1.401   .     A
C339   C352    1.402   .     A
C340   C350    1.401   .     A
C341   N366    1.371   .     A
C341   O369    1.378   .     S
C341   C1099   1.426   1_554 S
C342   N365    1.371   .     A
C342   O370    1.378   .     S
C342   C722    1.426   .     S
C343   N365    1.364   .     A
C343   H360    1.082   .     S
C343   C719    1.426   .     S
C344   N366    1.364   .     A
C344   H361    1.082   .     S
C344   C1098   1.426   1_554 S
C345   O373    1.292   .     A
C345   O371    1.291   .     A
C346   O374    1.285   .     A
C346   C348    1.449   .     S
C346   O376    1.293   .     A
C347   O375    1.285   .     A
C347   C349    1.449   .     S
C347   O377    1.293   .     A
C349   C264    1.356   1_655 S
C349   O284    1.389   1_655 S
C350   H355    1.083   .     S
C351   H357    1.083   .     S
C351   C86     1.384   1_565 S
C352   H358    1.083   .     S
C352   C98     1.384   1_565 S
Cu353  N365    2.013   .     S
Cu353  Cu354   2.679   .     S
Cu353  O373    1.965   .     S
Cu353  O374    1.973   .     S
Cu353  O367    1.965   .     S
Cu353  O377    1.976   .     S
Cu354  O375    1.973   .     S
Cu354  N366    2.013   .     S
Cu354  O371    1.965   .     S
Cu354  O376    1.976   .     S
Cu354  O372    1.965   .     S
H356   O370    0.992   .     S
H363   O284    0.990   1_655 S
H364   O369    0.992   .     S
O378   H278    0.990   1_655 S
O378   C264    1.389   1_655 S
C379   C382    1.450   .     S
C379   O409    1.291   .     A
C379   O414    1.292   .     A
C380   C382    1.402   .     A
C380   H401    1.083   .     S
C380   C645    1.384   1_545 S
C381   C387    1.450   .     S
C381   C393    1.401   .     A
C381   C394    1.402   .     A
C382   C392    1.401   .     A
C383   N408    1.371   .     A
C383   O411    1.378   .     S
C384   N407    1.371   .     A
C384   O412    1.378   .     S
C384   C764    1.426   .     S
C385   N407    1.364   .     A
C385   H402    1.082   .     S
C385   C761    1.426   .     S
C386   N408    1.364   .     A
C386   H403    1.082   .     S
C387   O415    1.292   .     A
C387   O413    1.291   .     A
C388   O416    1.285   .     A
C388   C390    1.449   .     S
C388   O418    1.293   .     A
C389   O417    1.285   .     A
C389   C391    1.449   .     S
C389   O419    1.293   .     A
C390   C475    1.356   1_455 S
C390   O504    1.389   1_455 S
C391   C432    1.356   .     S
C391   O452    1.389   .     S
C392   H397    1.083   .     S
C392   C646    1.384   1_545 S
C393   H399    1.083   .     S
C393   C506    1.384   .     S
C394   H400    1.083   .     S
C394   C518    1.384   .     S
Cu395  N407    2.013   .     S
Cu395  Cu396   2.679   .     S
Cu395  O415    1.965   .     S
Cu395  O416    1.973   .     S
Cu395  O409    1.965   .     S
Cu395  O419    1.976   .     S
Cu396  O417    1.973   .     S
Cu396  N408    2.013   .     S
Cu396  O413    1.965   .     S
Cu396  O418    1.976   .     S
Cu396  O414    1.965   .     S
H398   O412    0.992   .     S
H404   O504    0.990   1_455 S
H405   O452    0.990   .     S
H406   O411    0.992   .     S
O410   H489    0.990   1_455 S
O410   C475    1.389   1_455 S
O420   H446    0.990   .     S
O420   C432    1.389   .     S
C421   C424    1.450   .     S
C421   O451    1.291   .     A
C421   O456    1.292   .     A
C422   C424    1.402   .     A
C422   H443    1.083   .     S
C422   C687    1.384   1_545 S
C423   C429    1.450   .     S
C423   C435    1.401   .     A
C423   C436    1.402   .     A
C424   C434    1.401   .     A
C425   N450    1.371   .     A
C425   O453    1.378   .     S
C426   N449    1.371   .     A
C426   O454    1.378   .     S
C426   C806    1.426   .     S
C427   N449    1.364   .     A
C427   H444    1.082   .     S
C427   C803    1.426   .     S
C428   N450    1.364   .     A
C428   H445    1.082   .     S
C429   O457    1.292   .     A
C429   O455    1.291   .     A
C430   O458    1.285   .     A
C430   C432    1.449   .     S
C430   O460    1.293   .     A
C431   O459    1.285   .     A
C431   C433    1.449   .     S
C431   O461    1.293   .     A
C433   C474    1.356   .     S
C433   O494    1.389   .     S
C434   H439    1.083   .     S
C434   C688    1.384   1_545 S
C435   H441    1.083   .     S
C435   C548    1.384   .     S
C436   H442    1.083   .     S
C436   C560    1.384   .     S
Cu437  N449    2.013   .     S
Cu437  Cu438   2.679   .     S
Cu437  O457    1.965   .     S
Cu437  O458    1.973   .     S
Cu437  O451    1.965   .     S
Cu437  O461    1.976   .     S
Cu438  O459    1.973   .     S
Cu438  N450    2.013   .     S
Cu438  O455    1.965   .     S
Cu438  O460    1.976   .     S
Cu438  O456    1.965   .     S
H440   O454    0.992   .     S
H447   O494    0.990   .     S
H448   O453    0.992   .     S
O462   H488    0.990   .     S
O462   C474    1.389   .     S
C463   C466    1.450   .     S
C463   O493    1.291   .     A
C463   O498    1.292   .     A
C464   C466    1.402   .     A
C464   H485    1.083   .     S
C464   C729    1.384   1_545 S
C465   C471    1.450   .     S
C465   C477    1.401   .     A
C465   C478    1.402   .     A
C466   C476    1.401   .     A
C467   N492    1.371   .     A
C467   O495    1.378   .     S
C468   N491    1.371   .     A
C468   O496    1.378   .     S
C468   C848    1.426   .     S
C469   N491    1.364   .     A
C469   H486    1.082   .     S
C469   C845    1.426   .     S
C470   N492    1.364   .     A
C470   H487    1.082   .     S
C471   O499    1.292   .     A
C471   O497    1.291   .     A
C472   O500    1.285   .     A
C472   C474    1.449   .     S
C472   O502    1.293   .     A
C473   O501    1.285   .     A
C473   C475    1.449   .     S
C473   O503    1.293   .     A
C475   C390    1.356   1_655 S
C475   O410    1.389   1_655 S
C476   H481    1.083   .     S
C476   C730    1.384   1_545 S
C477   H483    1.083   .     S
C477   C590    1.384   .     S
C478   H484    1.083   .     S
C478   C602    1.384   .     S
Cu479  N491    2.013   .     S
Cu479  Cu480   2.679   .     S
Cu479  O499    1.965   .     S
Cu479  O500    1.973   .     S
Cu479  O493    1.965   .     S
Cu479  O503    1.976   .     S
Cu480  O501    1.973   .     S
Cu480  N492    2.013   .     S
Cu480  O497    1.965   .     S
Cu480  O502    1.976   .     S
Cu480  O498    1.965   .     S
H482   O496    0.992   .     S
H489   O410    0.990   1_655 S
H490   O495    0.992   .     S
O504   H404    0.990   1_655 S
O504   C390    1.389   1_655 S
C505   C508    1.450   .     S
C505   O535    1.291   .     A
C505   O540    1.292   .     A
C506   C508    1.402   .     A
C506   H527    1.083   .     S
C507   C513    1.450   .     S
C507   C519    1.401   .     A
C507   C520    1.402   .     A
C508   C518    1.401   .     A
C509   N534    1.371   .     A
C509   O537    1.378   .     S
C510   N533    1.371   .     A
C510   O538    1.378   .     S
C510   C890    1.426   .     S
C511   N533    1.364   .     A
C511   H528    1.082   .     S
C511   C887    1.426   .     S
C512   N534    1.364   .     A
C512   H529    1.082   .     S
C513   O541    1.292   .     A
C513   O539    1.291   .     A
C514   O542    1.285   .     A
C514   C516    1.449   .     S
C514   O544    1.293   .     A
C515   O543    1.285   .     A
C515   C517    1.449   .     S
C515   O545    1.293   .     A
C516   C601    1.356   1_455 S
C516   O630    1.389   1_455 S
C517   C558    1.356   .     S
C517   O578    1.389   .     S
C518   H523    1.083   .     S
C519   H525    1.083   .     S
C519   C632    1.384   .     S
C520   H526    1.083   .     S
C520   C644    1.384   .     S
Cu521  N533    2.013   .     S
Cu521  Cu522   2.679   .     S
Cu521  O541    1.965   .     S
Cu521  O542    1.973   .     S
Cu521  O535    1.965   .     S
Cu521  O545    1.976   .     S
Cu522  O543    1.973   .     S
Cu522  N534    2.013   .     S
Cu522  O539    1.965   .     S
Cu522  O544    1.976   .     S
Cu522  O540    1.965   .     S
H524   O538    0.992   .     S
H530   O630    0.990   1_455 S
H531   O578    0.990   .     S
H532   O537    0.992   .     S
O536   H615    0.990   1_455 S
O536   C601    1.389   1_455 S
O546   H572    0.990   .     S
O546   C558    1.389   .     S
C547   C550    1.450   .     S
C547   O577    1.291   .     A
C547   O582    1.292   .     A
C548   C550    1.402   .     A
C548   H569    1.083   .     S
C549   C555    1.450   .     S
C549   C561    1.401   .     A
C549   C562    1.402   .     A
C550   C560    1.401   .     A
C551   N576    1.371   .     A
C551   O579    1.378   .     S
C552   N575    1.371   .     A
C552   O580    1.378   .     S
C552   C932    1.426   .     S
C553   N575    1.364   .     A
C553   H570    1.082   .     S
C553   C929    1.426   .     S
C554   N576    1.364   .     A
C554   H571    1.082   .     S
C555   O583    1.292   .     A
C555   O581    1.291   .     A
C556   O584    1.285   .     A
C556   C558    1.449   .     S
C556   O586    1.293   .     A
C557   O585    1.285   .     A
C557   C559    1.449   .     S
C557   O587    1.293   .     A
C559   C600    1.356   .     S
C559   O620    1.389   .     S
C560   H565    1.083   .     S
C561   H567    1.083   .     S
C561   C674    1.384   .     S
C562   H568    1.083   .     S
C562   C686    1.384   .     S
Cu563  N575    2.013   .     S
Cu563  Cu564   2.679   .     S
Cu563  O583    1.965   .     S
Cu563  O584    1.973   .     S
Cu563  O577    1.965   .     S
Cu563  O587    1.976   .     S
Cu564  O585    1.973   .     S
Cu564  N576    2.013   .     S
Cu564  O581    1.965   .     S
Cu564  O586    1.976   .     S
Cu564  O582    1.965   .     S
H566   O580    0.992   .     S
H573   O620    0.990   .     S
H574   O579    0.992   .     S
O588   H614    0.990   .     S
O588   C600    1.389   .     S
C589   C592    1.450   .     S
C589   O619    1.291   .     A
C589   O624    1.292   .     A
C590   C592    1.402   .     A
C590   H611    1.083   .     S
C591   C597    1.450   .     S
C591   C603    1.401   .     A
C591   C604    1.402   .     A
C592   C602    1.401   .     A
C593   N618    1.371   .     A
C593   O621    1.378   .     S
C594   N617    1.371   .     A
C594   O622    1.378   .     S
C594   C974    1.426   .     S
C595   N617    1.364   .     A
C595   H612    1.082   .     S
C595   C971    1.426   .     S
C596   N618    1.364   .     A
C596   H613    1.082   .     S
C597   O625    1.292   .     A
C597   O623    1.291   .     A
C598   O626    1.285   .     A
C598   C600    1.449   .     S
C598   O628    1.293   .     A
C599   O627    1.285   .     A
C599   C601    1.449   .     S
C599   O629    1.293   .     A
C601   C516    1.356   1_655 S
C601   O536    1.389   1_655 S
C602   H607    1.083   .     S
C603   H609    1.083   .     S
C603   C716    1.384   .     S
C604   H610    1.083   .     S
C604   C728    1.384   .     S
Cu605  N617    2.013   .     S
Cu605  Cu606   2.679   .     S
Cu605  O625    1.965   .     S
Cu605  O626    1.973   .     S
Cu605  O619    1.965   .     S
Cu605  O629    1.976   .     S
Cu606  O627    1.973   .     S
Cu606  N618    2.013   .     S
Cu606  O623    1.965   .     S
Cu606  O628    1.976   .     S
Cu606  O624    1.965   .     S
H608   O622    0.992   .     S
H615   O536    0.990   1_655 S
H616   O621    0.992   .     S
O630   H530    0.990   1_655 S
O630   C516    1.389   1_655 S
C631   C634    1.450   .     S
C631   O661    1.291   .     A
C631   O666    1.292   .     A
C632   C634    1.402   .     A
C632   H653    1.083   .     S
C633   C639    1.450   .     S
C633   C645    1.401   .     A
C633   C646    1.402   .     A
C634   C644    1.401   .     A
C635   N660    1.371   .     A
C635   O663    1.378   .     S
C636   N659    1.371   .     A
C636   O664    1.378   .     S
C636   C1016   1.426   .     S
C637   N659    1.364   .     A
C637   H654    1.082   .     S
C637   C1013   1.426   .     S
C638   N660    1.364   .     A
C638   H655    1.082   .     S
C639   O667    1.292   .     A
C639   O665    1.291   .     A
C640   O668    1.285   .     A
C640   C642    1.449   .     S
C640   O670    1.293   .     A
C641   O669    1.285   .     A
C641   C643    1.449   .     S
C641   O671    1.293   .     A
C642   C727    1.356   1_455 S
C642   O756    1.389   1_455 S
C643   C684    1.356   .     S
C643   O704    1.389   .     S
C644   H649    1.083   .     S
C645   H651    1.083   .     S
C645   C380    1.384   1_565 S
C646   H652    1.083   .     S
C646   C392    1.384   1_565 S
Cu647  N659    2.013   .     S
Cu647  Cu648   2.679   .     S
Cu647  O667    1.965   .     S
Cu647  O668    1.973   .     S
Cu647  O661    1.965   .     S
Cu647  O671    1.976   .     S
Cu648  O669    1.973   .     S
Cu648  N660    2.013   .     S
Cu648  O665    1.965   .     S
Cu648  O670    1.976   .     S
Cu648  O666    1.965   .     S
H650   O664    0.992   .     S
H656   O756    0.990   1_455 S
H657   O704    0.990   .     S
H658   O663    0.992   .     S
O662   H741    0.990   1_455 S
O662   C727    1.389   1_455 S
O672   H698    0.990   .     S
O672   C684    1.389   .     S
C673   C676    1.450   .     S
C673   O703    1.291   .     A
C673   O708    1.292   .     A
C674   C676    1.402   .     A
C674   H695    1.083   .     S
C675   C681    1.450   .     S
C675   C687    1.401   .     A
C675   C688    1.402   .     A
C676   C686    1.401   .     A
C677   N702    1.371   .     A
C677   O705    1.378   .     S
C678   N701    1.371   .     A
C678   O706    1.378   .     S
C678   C1058   1.426   .     S
C679   N701    1.364   .     A
C679   H696    1.082   .     S
C679   C1055   1.426   .     S
C680   N702    1.364   .     A
C680   H697    1.082   .     S
C681   O709    1.292   .     A
C681   O707    1.291   .     A
C682   O710    1.285   .     A
C682   C684    1.449   .     S
C682   O712    1.293   .     A
C683   O711    1.285   .     A
C683   C685    1.449   .     S
C683   O713    1.293   .     A
C685   C726    1.356   .     S
C685   O746    1.389   .     S
C686   H691    1.083   .     S
C687   H693    1.083   .     S
C687   C422    1.384   1_565 S
C688   H694    1.083   .     S
C688   C434    1.384   1_565 S
Cu689  N701    2.013   .     S
Cu689  Cu690   2.679   .     S
Cu689  O709    1.965   .     S
Cu689  O710    1.973   .     S
Cu689  O703    1.965   .     S
Cu689  O713    1.976   .     S
Cu690  O711    1.973   .     S
Cu690  N702    2.013   .     S
Cu690  O707    1.965   .     S
Cu690  O712    1.976   .     S
Cu690  O708    1.965   .     S
H692   O706    0.992   .     S
H699   O746    0.990   .     S
H700   O705    0.992   .     S
O714   H740    0.990   .     S
O714   C726    1.389   .     S
C715   C718    1.450   .     S
C715   O745    1.291   .     A
C715   O750    1.292   .     A
C716   C718    1.402   .     A
C716   H737    1.083   .     S
C717   C723    1.450   .     S
C717   C729    1.401   .     A
C717   C730    1.402   .     A
C718   C728    1.401   .     A
C719   N744    1.371   .     A
C719   O747    1.378   .     S
C720   N743    1.371   .     A
C720   O748    1.378   .     S
C720   C1100   1.426   .     S
C721   N743    1.364   .     A
C721   H738    1.082   .     S
C721   C1097   1.426   .     S
C722   N744    1.364   .     A
C722   H739    1.082   .     S
C723   O751    1.292   .     A
C723   O749    1.291   .     A
C724   O752    1.285   .     A
C724   C726    1.449   .     S
C724   O754    1.293   .     A
C725   O753    1.285   .     A
C725   C727    1.449   .     S
C725   O755    1.293   .     A
C727   C642    1.356   1_655 S
C727   O662    1.389   1_655 S
C728   H733    1.083   .     S
C729   H735    1.083   .     S
C729   C464    1.384   1_565 S
C730   H736    1.083   .     S
C730   C476    1.384   1_565 S
Cu731  N743    2.013   .     S
Cu731  Cu732   2.679   .     S
Cu731  O751    1.965   .     S
Cu731  O752    1.973   .     S
Cu731  O745    1.965   .     S
Cu731  O755    1.976   .     S
Cu732  O753    1.973   .     S
Cu732  N744    2.013   .     S
Cu732  O749    1.965   .     S
Cu732  O754    1.976   .     S
Cu732  O750    1.965   .     S
H734   O748    0.992   .     S
H741   O662    0.990   1_655 S
H742   O747    0.992   .     S
O756   H656    0.990   1_655 S
O756   C642    1.389   1_655 S
C757   C760    1.450   .     S
C757   O787    1.291   .     A
C757   O792    1.292   .     A
C758   C760    1.402   .     A
C758   H779    1.083   .     S
C758   C1023   1.384   1_545 S
C759   C765    1.450   .     S
C759   C771    1.401   .     A
C759   C772    1.402   .     A
C760   C770    1.401   .     A
C761   N786    1.371   .     A
C761   O789    1.378   .     S
C762   N785    1.371   .     A
C762   O790    1.378   .     S
C762   C8      1.426   1_556 S
C763   N785    1.364   .     A
C763   H780    1.082   .     S
C763   C5      1.426   1_556 S
C764   N786    1.364   .     A
C764   H781    1.082   .     S
C765   O793    1.292   .     A
C765   O791    1.291   .     A
C766   O794    1.285   .     A
C766   C768    1.449   .     S
C766   O796    1.293   .     A
C767   O795    1.285   .     A
C767   C769    1.449   .     S
C767   O797    1.293   .     A
C768   C853    1.356   1_455 S
C768   O882    1.389   1_455 S
C769   C810    1.356   .     S
C769   O830    1.389   .     S
C770   H775    1.083   .     S
C770   C1024   1.384   1_545 S
C771   H777    1.083   .     S
C771   C884    1.384   .     S
C772   H778    1.083   .     S
C772   C896    1.384   .     S
Cu773  N785    2.013   .     S
Cu773  Cu774   2.679   .     S
Cu773  O793    1.965   .     S
Cu773  O794    1.973   .     S
Cu773  O787    1.965   .     S
Cu773  O797    1.976   .     S
Cu774  O795    1.973   .     S
Cu774  N786    2.013   .     S
Cu774  O791    1.965   .     S
Cu774  O796    1.976   .     S
Cu774  O792    1.965   .     S
H776   O790    0.992   .     S
H782   O882    0.990   1_455 S
H783   O830    0.990   .     S
H784   O789    0.992   .     S
O788   H867    0.990   1_455 S
O788   C853    1.389   1_455 S
O798   H824    0.990   .     S
O798   C810    1.389   .     S
C799   C802    1.450   .     S
C799   O829    1.291   .     A
C799   O834    1.292   .     A
C800   C802    1.402   .     A
C800   H821    1.083   .     S
C800   C1065   1.384   1_545 S
C801   C807    1.450   .     S
C801   C813    1.401   .     A
C801   C814    1.402   .     A
C802   C812    1.401   .     A
C803   N828    1.371   .     A
C803   O831    1.378   .     S
C804   N827    1.371   .     A
C804   O832    1.378   .     S
C804   C50     1.426   1_556 S
C805   N827    1.364   .     A
C805   H822    1.082   .     S
C805   C47     1.426   1_556 S
C806   N828    1.364   .     A
C806   H823    1.082   .     S
C807   O835    1.292   .     A
C807   O833    1.291   .     A
C808   O836    1.285   .     A
C808   C810    1.449   .     S
C808   O838    1.293   .     A
C809   O837    1.285   .     A
C809   C811    1.449   .     S
C809   O839    1.293   .     A
C811   C852    1.356   .     S
C811   O872    1.389   .     S
C812   H817    1.083   .     S
C812   C1066   1.384   1_545 S
C813   H819    1.083   .     S
C813   C926    1.384   .     S
C814   H820    1.083   .     S
C814   C938    1.384   .     S
Cu815  N827    2.013   .     S
Cu815  Cu816   2.679   .     S
Cu815  O835    1.965   .     S
Cu815  O836    1.973   .     S
Cu815  O829    1.965   .     S
Cu815  O839    1.976   .     S
Cu816  O837    1.973   .     S
Cu816  N828    2.013   .     S
Cu816  O833    1.965   .     S
Cu816  O838    1.976   .     S
Cu816  O834    1.965   .     S
H818   O832    0.992   .     S
H825   O872    0.990   .     S
H826   O831    0.992   .     S
O840   H866    0.990   .     S
O840   C852    1.389   .     S
C841   C844    1.450   .     S
C841   O871    1.291   .     A
C841   O876    1.292   .     A
C842   C844    1.402   .     A
C842   H863    1.083   .     S
C842   C1107   1.384   1_545 S
C843   C849    1.450   .     S
C843   C855    1.401   .     A
C843   C856    1.402   .     A
C844   C854    1.401   .     A
C845   N870    1.371   .     A
C845   O873    1.378   .     S
C846   N869    1.371   .     A
C846   O874    1.378   .     S
C846   C92     1.426   1_556 S
C847   N869    1.364   .     A
C847   H864    1.082   .     S
C847   C89     1.426   1_556 S
C848   N870    1.364   .     A
C848   H865    1.082   .     S
C849   O877    1.292   .     A
C849   O875    1.291   .     A
C850   O878    1.285   .     A
C850   C852    1.449   .     S
C850   O880    1.293   .     A
C851   O879    1.285   .     A
C851   C853    1.449   .     S
C851   O881    1.293   .     A
C853   C768    1.356   1_655 S
C853   O788    1.389   1_655 S
C854   H859    1.083   .     S
C854   C1108   1.384   1_545 S
C855   H861    1.083   .     S
C855   C968    1.384   .     S
C856   H862    1.083   .     S
C856   C980    1.384   .     S
Cu857  N869    2.013   .     S
Cu857  Cu858   2.679   .     S
Cu857  O877    1.965   .     S
Cu857  O878    1.973   .     S
Cu857  O871    1.965   .     S
Cu857  O881    1.976   .     S
Cu858  O879    1.973   .     S
Cu858  N870    2.013   .     S
Cu858  O875    1.965   .     S
Cu858  O880    1.976   .     S
Cu858  O876    1.965   .     S
H860   O874    0.992   .     S
H867   O788    0.990   1_655 S
H868   O873    0.992   .     S
O882   H782    0.990   1_655 S
O882   C768    1.389   1_655 S
C883   C886    1.450   .     S
C883   O913    1.291   .     A
C883   O918    1.292   .     A
C884   C886    1.402   .     A
C884   H905    1.083   .     S
C885   C891    1.450   .     S
C885   C897    1.401   .     A
C885   C898    1.402   .     A
C886   C896    1.401   .     A
C887   N912    1.371   .     A
C887   O915    1.378   .     S
C888   N911    1.371   .     A
C888   O916    1.378   .     S
C888   C134    1.426   1_556 S
C889   N911    1.364   .     A
C889   H906    1.082   .     S
C889   C131    1.426   1_556 S
C890   N912    1.364   .     A
C890   H907    1.082   .     S
C891   O919    1.292   .     A
C891   O917    1.291   .     A
C892   O920    1.285   .     A
C892   C894    1.449   .     S
C892   O922    1.293   .     A
C893   O921    1.285   .     A
C893   C895    1.449   .     S
C893   O923    1.293   .     A
C894   C979    1.356   1_455 S
C894   O1008   1.389   1_455 S
C895   C936    1.356   .     S
C895   O956    1.389   .     S
C896   H901    1.083   .     S
C897   H903    1.083   .     S
C897   C1010   1.384   .     S
C898   H904    1.083   .     S
C898   C1022   1.384   .     S
Cu899  N911    2.013   .     S
Cu899  Cu900   2.679   .     S
Cu899  O919    1.965   .     S
Cu899  O920    1.973   .     S
Cu899  O913    1.965   .     S
Cu899  O923    1.976   .     S
Cu900  O921    1.973   .     S
Cu900  N912    2.013   .     S
Cu900  O917    1.965   .     S
Cu900  O922    1.976   .     S
Cu900  O918    1.965   .     S
H902   O916    0.992   .     S
H908   O1008   0.990   1_455 S
H909   O956    0.990   .     S
H910   O915    0.992   .     S
O914   H993    0.990   1_455 S
O914   C979    1.389   1_455 S
O924   H950    0.990   .     S
O924   C936    1.389   .     S
C925   C928    1.450   .     S
C925   O955    1.291   .     A
C925   O960    1.292   .     A
C926   C928    1.402   .     A
C926   H947    1.083   .     S
C927   C933    1.450   .     S
C927   C939    1.401   .     A
C927   C940    1.402   .     A
C928   C938    1.401   .     A
C929   N954    1.371   .     A
C929   O957    1.378   .     S
C930   N953    1.371   .     A
C930   O958    1.378   .     S
C930   C176    1.426   1_556 S
C931   N953    1.364   .     A
C931   H948    1.082   .     S
C931   C173    1.426   1_556 S
C932   N954    1.364   .     A
C932   H949    1.082   .     S
C933   O961    1.292   .     A
C933   O959    1.291   .     A
C934   O962    1.285   .     A
C934   C936    1.449   .     S
C934   O964    1.293   .     A
C935   O963    1.285   .     A
C935   C937    1.449   .     S
C935   O965    1.293   .     A
C937   C978    1.356   .     S
C937   O998    1.389   .     S
C938   H943    1.083   .     S
C939   H945    1.083   .     S
C939   C1052   1.384   .     S
C940   H946    1.083   .     S
C940   C1064   1.384   .     S
Cu941  N953    2.013   .     S
Cu941  Cu942   2.679   .     S
Cu941  O961    1.965   .     S
Cu941  O962    1.973   .     S
Cu941  O955    1.965   .     S
Cu941  O965    1.976   .     S
Cu942  O963    1.973   .     S
Cu942  N954    2.013   .     S
Cu942  O959    1.965   .     S
Cu942  O964    1.976   .     S
Cu942  O960    1.965   .     S
H944   O958    0.992   .     S
H951   O998    0.990   .     S
H952   O957    0.992   .     S
O966   H992    0.990   .     S
O966   C978    1.389   .     S
C967   C970    1.450   .     S
C967   O997    1.291   .     A
C967   O1002   1.292   .     A
C968   C970    1.402   .     A
C968   H989    1.083   .     S
C969   C975    1.450   .     S
C969   C981    1.401   .     A
C969   C982    1.402   .     A
C970   C980    1.401   .     A
C971   N996    1.371   .     A
C971   O999    1.378   .     S
C972   N995    1.371   .     A
C972   O1000   1.378   .     S
C972   C218    1.426   1_556 S
C973   N995    1.364   .     A
C973   H990    1.082   .     S
C973   C215    1.426   1_556 S
C974   N996    1.364   .     A
C974   H991    1.082   .     S
C975   O1003   1.292   .     A
C975   O1001   1.291   .     A
C976   O1004   1.285   .     A
C976   C978    1.449   .     S
C976   O1006   1.293   .     A
C977   O1005   1.285   .     A
C977   C979    1.449   .     S
C977   O1007   1.293   .     A
C979   C894    1.356   1_655 S
C979   O914    1.389   1_655 S
C980   H985    1.083   .     S
C981   H987    1.083   .     S
C981   C1094   1.384   .     S
C982   H988    1.083   .     S
C982   C1106   1.384   .     S
Cu983  N995    2.013   .     S
Cu983  Cu984   2.679   .     S
Cu983  O1003   1.965   .     S
Cu983  O1004   1.973   .     S
Cu983  O997    1.965   .     S
Cu983  O1007   1.976   .     S
Cu984  O1005   1.973   .     S
Cu984  N996    2.013   .     S
Cu984  O1001   1.965   .     S
Cu984  O1006   1.976   .     S
Cu984  O1002   1.965   .     S
H986   O1000   0.992   .     S
H993   O914    0.990   1_655 S
H994   O999    0.992   .     S
O1008  H908    0.990   1_655 S
O1008  C894    1.389   1_655 S
C1009  C1012   1.450   .     S
C1009  O1039   1.291   .     A
C1009  O1044   1.292   .     A
C1010  C1012   1.402   .     A
C1010  H1031   1.083   .     S
C1011  C1017   1.450   .     S
C1011  C1023   1.401   .     A
C1011  C1024   1.402   .     A
C1012  C1022   1.401   .     A
C1013  N1038   1.371   .     A
C1013  O1041   1.378   .     S
C1014  N1037   1.371   .     A
C1014  O1042   1.378   .     S
C1014  C260    1.426   1_556 S
C1015  N1037   1.364   .     A
C1015  H1032   1.082   .     S
C1015  C257    1.426   1_556 S
C1016  N1038   1.364   .     A
C1016  H1033   1.082   .     S
C1017  O1045   1.292   .     A
C1017  O1043   1.291   .     A
C1018  O1046   1.285   .     A
C1018  C1020   1.449   .     S
C1018  O1048   1.293   .     A
C1019  O1047   1.285   .     A
C1019  C1021   1.449   .     S
C1019  O1049   1.293   .     A
C1020  C1105   1.356   1_455 S
C1020  O1134   1.389   1_455 S
C1021  C1062   1.356   .     S
C1021  O1082   1.389   .     S
C1022  H1027   1.083   .     S
C1023  H1029   1.083   .     S
C1023  C758    1.384   1_565 S
C1024  H1030   1.083   .     S
C1024  C770    1.384   1_565 S
Cu1025 N1037   2.013   .     S
Cu1025 Cu1026  2.679   .     S
Cu1025 O1045   1.965   .     S
Cu1025 O1046   1.973   .     S
Cu1025 O1039   1.965   .     S
Cu1025 O1049   1.976   .     S
Cu1026 O1047   1.973   .     S
Cu1026 N1038   2.013   .     S
Cu1026 O1043   1.965   .     S
Cu1026 O1048   1.976   .     S
Cu1026 O1044   1.965   .     S
H1028  O1042   0.992   .     S
H1034  O1134   0.990   1_455 S
H1035  O1082   0.990   .     S
H1036  O1041   0.992   .     S
O1040  H1119   0.990   1_455 S
O1040  C1105   1.389   1_455 S
O1050  H1076   0.990   .     S
O1050  C1062   1.389   .     S
C1051  C1054   1.450   .     S
C1051  O1081   1.291   .     A
C1051  O1086   1.292   .     A
C1052  C1054   1.402   .     A
C1052  H1073   1.083   .     S
C1053  C1059   1.450   .     S
C1053  C1065   1.401   .     A
C1053  C1066   1.402   .     A
C1054  C1064   1.401   .     A
C1055  N1080   1.371   .     A
C1055  O1083   1.378   .     S
C1056  N1079   1.371   .     A
C1056  O1084   1.378   .     S
C1056  C302    1.426   1_556 S
C1057  N1079   1.364   .     A
C1057  H1074   1.082   .     S
C1057  C299    1.426   1_556 S
C1058  N1080   1.364   .     A
C1058  H1075   1.082   .     S
C1059  O1087   1.292   .     A
C1059  O1085   1.291   .     A
C1060  O1088   1.285   .     A
C1060  C1062   1.449   .     S
C1060  O1090   1.293   .     A
C1061  O1089   1.285   .     A
C1061  C1063   1.449   .     S
C1061  O1091   1.293   .     A
C1063  C1104   1.356   .     S
C1063  O1124   1.389   .     S
C1064  H1069   1.083   .     S
C1065  H1071   1.083   .     S
C1065  C800    1.384   1_565 S
C1066  H1072   1.083   .     S
C1066  C812    1.384   1_565 S
Cu1067 N1079   2.013   .     S
Cu1067 Cu1068  2.679   .     S
Cu1067 O1087   1.965   .     S
Cu1067 O1088   1.973   .     S
Cu1067 O1081   1.965   .     S
Cu1067 O1091   1.976   .     S
Cu1068 O1089   1.973   .     S
Cu1068 N1080   2.013   .     S
Cu1068 O1085   1.965   .     S
Cu1068 O1090   1.976   .     S
Cu1068 O1086   1.965   .     S
H1070  O1084   0.992   .     S
H1077  O1124   0.990   .     S
H1078  O1083   0.992   .     S
O1092  H1118   0.990   .     S
O1092  C1104   1.389   .     S
C1093  C1096   1.450   .     S
C1093  O1123   1.291   .     A
C1093  O1128   1.292   .     A
C1094  C1096   1.402   .     A
C1094  H1115   1.083   .     S
C1095  C1101   1.450   .     S
C1095  C1107   1.401   .     A
C1095  C1108   1.402   .     A
C1096  C1106   1.401   .     A
C1097  N1122   1.371   .     A
C1097  O1125   1.378   .     S
C1098  N1121   1.371   .     A
C1098  O1126   1.378   .     S
C1098  C344    1.426   1_556 S
C1099  N1121   1.364   .     A
C1099  H1116   1.082   .     S
C1099  C341    1.426   1_556 S
C1100  N1122   1.364   .     A
C1100  H1117   1.082   .     S
C1101  O1129   1.292   .     A
C1101  O1127   1.291   .     A
C1102  O1130   1.285   .     A
C1102  C1104   1.449   .     S
C1102  O1132   1.293   .     A
C1103  O1131   1.285   .     A
C1103  C1105   1.449   .     S
C1103  O1133   1.293   .     A
C1105  C1020   1.356   1_655 S
C1105  O1040   1.389   1_655 S
C1106  H1111   1.083   .     S
C1107  H1113   1.083   .     S
C1107  C842    1.384   1_565 S
C1108  H1114   1.083   .     S
C1108  C854    1.384   1_565 S
Cu1109 N1121   2.013   .     S
Cu1109 Cu1110  2.679   .     S
Cu1109 O1129   1.965   .     S
Cu1109 O1130   1.973   .     S
Cu1109 O1123   1.965   .     S
Cu1109 O1133   1.976   .     S
Cu1110 O1131   1.973   .     S
Cu1110 N1122   2.013   .     S
Cu1110 O1127   1.965   .     S
Cu1110 O1132   1.976   .     S
Cu1110 O1128   1.965   .     S
H1112  O1126   0.992   .     S
H1119  O1040   0.990   1_655 S
H1120  O1125   0.992   .     S
O1134  H1034   0.990   1_655 S
O1134  C1020   1.389   1_655 S
