data_str_m3_o1_o17_pcu_sym.139
_audit_creation_date              2020-01-03
_audit_creation_method            'Materials Studio'
_symmetry_space_group_name_H-M    'P1'
_symmetry_Int_Tables_number       1
_symmetry_cell_setting            triclinic
loop_
_symmetry_equiv_pos_as_xyz
  x,y,z
_cell_length_a                    32.1028
_cell_length_b                    29.5379
_cell_length_c                    29.8814
_cell_angle_alpha                 90.0623
_cell_angle_beta                  90.1902
_cell_angle_gamma                 90.0080
loop_
_atom_site_label
_atom_site_type_symbol
_atom_site_fract_x
_atom_site_fract_y
_atom_site_fract_z
_atom_site_U_iso_or_equiv
_atom_site_adp_type
_atom_site_occupancy
C1     C     0.08663   0.16666   0.25000   0.00000  Uiso   1.00
C2     C     0.24670   0.16667   0.25001   0.00000  Uiso   1.00
C3     C     0.09112   0.15608   0.02279   0.00000  Uiso   1.00
C4     C     0.24155   0.18058   0.47713   0.00000  Uiso   1.00
C5     C     0.02128   0.12584   0.24370   0.00000  Uiso   1.00
C6     C     0.31204   0.20741   0.25678   0.00000  Uiso   1.00
C7     C     0.31199   0.12586   0.24360   0.00000  Uiso   1.00
C8     C     0.02133   0.20741   0.25677   0.00000  Uiso   1.00
C9     C     0.29084   0.16666   0.25007   0.00000  Uiso   1.00
C10    C     0.04248   0.16664   0.25015   0.00000  Uiso   1.00
C11    C     0.19625   0.02401   0.27325   0.00000  Uiso   1.00
C12    C     0.13705   0.30932   0.22680   0.00000  Uiso   1.00
C13    C     0.13702   0.02393   0.22687   0.00000  Uiso   1.00
C14    C     0.19624   0.30939   0.27327   0.00000  Uiso   1.00
C15    C     0.16662   0.16665   0.16365   0.00000  Uiso   1.00
C16    C     0.16649   0.16669   0.33633   0.00000  Uiso   1.00
C17    C     0.20407   0.17419   0.40630   0.00000  Uiso   1.00
C18    C     0.12870   0.16148   0.09362   0.00000  Uiso   1.00
C19    C     0.16636   0.16671   0.38389   0.00000  Uiso   1.00
C20    C     0.16673   0.16665   0.11606   0.00000  Uiso   1.00
C21    C     0.12848   0.16093   0.40632   0.00000  Uiso   1.00
C22    C     0.20464   0.17224   0.09361   0.00000  Uiso   1.00
C23    C     0.12844   0.16173   0.45298   0.00000  Uiso   1.00
C24    C     0.20444   0.17327   0.04695   0.00000  Uiso   1.00
C25    C     0.16637   0.16818   0.47648   0.00000  Uiso   1.00
C26    C     0.16638   0.16781   0.02345   0.00000  Uiso   1.00
C27    C     0.20431   0.17464   0.45314   0.00000  Uiso   1.00
C28    C     0.12837   0.16192   0.04678   0.00000  Uiso   1.00
C29    C     0.09123   0.15557   0.47657   0.00000  Uiso   1.00
C30    C     0.24158   0.17999   0.02337   0.00000  Uiso   1.00
H31    H     0.06183   0.15017   0.45950   0.00000  Uiso   1.00
H32    H     0.27105   0.18476   0.04047   0.00000  Uiso   1.00
H33    H     0.06151   0.15129   0.03924   0.00000  Uiso   1.00
H34    H     0.27118   0.18519   0.46068   0.00000  Uiso   1.00
H35    H     0.03747   0.09411   0.23839   0.00000  Uiso   1.00
H36    H     0.29585   0.23911   0.26222   0.00000  Uiso   1.00
H37    H     0.29575   0.09415   0.23821   0.00000  Uiso   1.00
H38    H     0.03757   0.23911   0.26219   0.00000  Uiso   1.00
H39    H     0.21989   0.04219   0.29188   0.00000  Uiso   1.00
H40    H     0.11337   0.29115   0.20824   0.00000  Uiso   1.00
H41    H     0.11322   0.04201   0.20849   0.00000  Uiso   1.00
H42    H     0.21986   0.29126   0.29192   0.00000  Uiso   1.00
N43    N     0.16667   0.28573   0.25000   0.00000  Uiso   1.00
N44    N     0.16667   0.04760   0.25000   0.00000  Uiso   1.00
O45    O     0.10559   0.20487   0.24999   0.00000  Uiso   1.00
O46    O     0.22774   0.12846   0.25000   0.00000  Uiso   1.00
O47    O     0.22774   0.20487   0.25000   0.00000  Uiso   1.00
O48    O     0.10559   0.12846   0.24999   0.00000  Uiso   1.00
O49    O     0.16666   0.20489   0.18392   0.00000  Uiso   1.00
O50    O     0.16667   0.12844   0.31607   0.00000  Uiso   1.00
O51    O     0.16667   0.20489   0.31607   0.00000  Uiso   1.00
O52    O     0.16666   0.12844   0.18392   0.00000  Uiso   1.00
Zn53   Zn    0.16667   0.21771   0.25000   0.00000  Uiso   1.00
Zn54   Zn    0.16667   0.11563   0.25000   0.00000  Uiso   1.00
N55    N     0.24103   0.18204   0.38094   0.00000  Uiso   1.00
H56    H     0.25890   0.20902   0.39153   0.00000  Uiso   1.00
C57    C     0.26497   0.14186   0.37075   0.00000  Uiso   1.00
H58    H     0.27693   0.12609   0.40197   0.00000  Uiso   1.00
H59    H     0.29186   0.15109   0.34935   0.00000  Uiso   1.00
H60    H     0.24551   0.11694   0.35228   0.00000  Uiso   1.00
N61    N     0.09118   0.15764   0.11891   0.00000  Uiso   1.00
H62    H     0.06748   0.17891   0.10886   0.00000  Uiso   1.00
C63    C     0.07758   0.11172   0.12730   0.00000  Uiso   1.00
H64    H     0.06849   0.09475   0.09557   0.00000  Uiso   1.00
H65    H     0.05025   0.11222   0.14994   0.00000  Uiso   1.00
H66    H     0.10276   0.09191   0.14353   0.00000  Uiso   1.00
N67    N     0.09051   0.15408   0.38210   0.00000  Uiso   1.00
H68    H     0.09282   0.13277   0.35488   0.00000  Uiso   1.00
C69    C     0.06774   0.19513   0.37208   0.00000  Uiso   1.00
H70    H     0.08553   0.21645   0.34825   0.00000  Uiso   1.00
H71    H     0.06173   0.21473   0.40315   0.00000  Uiso   1.00
H72    H     0.03729   0.18629   0.35666   0.00000  Uiso   1.00
N73    N     0.24282   0.17752   0.11782   0.00000  Uiso   1.00
H74    H     0.24104   0.19806   0.14566   0.00000  Uiso   1.00
C75    C     0.26483   0.13569   0.12652   0.00000  Uiso   1.00
H76    H     0.24668   0.11405   0.14976   0.00000  Uiso   1.00
H77    H     0.29548   0.14335   0.14211   0.00000  Uiso   1.00
H78    H     0.27038   0.11696   0.09483   0.00000  Uiso   1.00
C79    C     0.41997   0.16666   0.25000   0.00000  Uiso   1.00
C80    C     0.58003   0.16667   0.25001   0.00000  Uiso   1.00
C81    C     0.42445   0.15608   0.02279   0.00000  Uiso   1.00
C82    C     0.57488   0.18058   0.47713   0.00000  Uiso   1.00
C83    C     0.35461   0.12584   0.24370   0.00000  Uiso   1.00
C84    C     0.64537   0.20741   0.25678   0.00000  Uiso   1.00
C85    C     0.64532   0.12586   0.24360   0.00000  Uiso   1.00
C86    C     0.35467   0.20741   0.25677   0.00000  Uiso   1.00
C87    C     0.62417   0.16666   0.25007   0.00000  Uiso   1.00
C88    C     0.37582   0.16664   0.25015   0.00000  Uiso   1.00
C89    C     0.52958   0.02401   0.27325   0.00000  Uiso   1.00
C90    C     0.47039   0.30932   0.22680   0.00000  Uiso   1.00
C91    C     0.47035   0.02393   0.22687   0.00000  Uiso   1.00
C92    C     0.52957   0.30939   0.27327   0.00000  Uiso   1.00
C93    C     0.49995   0.16665   0.16365   0.00000  Uiso   1.00
C94    C     0.49983   0.16669   0.33633   0.00000  Uiso   1.00
C95    C     0.53740   0.17419   0.40630   0.00000  Uiso   1.00
C96    C     0.46204   0.16148   0.09362   0.00000  Uiso   1.00
C97    C     0.49970   0.16671   0.38389   0.00000  Uiso   1.00
C98    C     0.50006   0.16665   0.11606   0.00000  Uiso   1.00
C99    C     0.46181   0.16093   0.40632   0.00000  Uiso   1.00
C100   C     0.53797   0.17224   0.09361   0.00000  Uiso   1.00
C101   C     0.46177   0.16173   0.45298   0.00000  Uiso   1.00
C102   C     0.53777   0.17327   0.04695   0.00000  Uiso   1.00
C103   C     0.49970   0.16818   0.47648   0.00000  Uiso   1.00
C104   C     0.49972   0.16781   0.02345   0.00000  Uiso   1.00
C105   C     0.53764   0.17464   0.45314   0.00000  Uiso   1.00
C106   C     0.46170   0.16192   0.04678   0.00000  Uiso   1.00
C107   C     0.42456   0.15557   0.47657   0.00000  Uiso   1.00
C108   C     0.57491   0.17999   0.02337   0.00000  Uiso   1.00
H109   H     0.39517   0.15017   0.45950   0.00000  Uiso   1.00
H110   H     0.60438   0.18476   0.04047   0.00000  Uiso   1.00
H111   H     0.39484   0.15129   0.03924   0.00000  Uiso   1.00
H112   H     0.60451   0.18519   0.46068   0.00000  Uiso   1.00
H113   H     0.37080   0.09411   0.23839   0.00000  Uiso   1.00
H114   H     0.62918   0.23911   0.26222   0.00000  Uiso   1.00
H115   H     0.62908   0.09415   0.23821   0.00000  Uiso   1.00
H116   H     0.37091   0.23911   0.26219   0.00000  Uiso   1.00
H117   H     0.55322   0.04219   0.29188   0.00000  Uiso   1.00
H118   H     0.44671   0.29115   0.20824   0.00000  Uiso   1.00
H119   H     0.44655   0.04201   0.20849   0.00000  Uiso   1.00
H120   H     0.55319   0.29126   0.29192   0.00000  Uiso   1.00
N121   N     0.50000   0.28573   0.25000   0.00000  Uiso   1.00
N122   N     0.50000   0.04760   0.25000   0.00000  Uiso   1.00
O123   O     0.43892   0.20487   0.24999   0.00000  Uiso   1.00
O124   O     0.56108   0.12846   0.25000   0.00000  Uiso   1.00
O125   O     0.56108   0.20487   0.25000   0.00000  Uiso   1.00
O126   O     0.43892   0.12846   0.24999   0.00000  Uiso   1.00
O127   O     0.49999   0.20489   0.18392   0.00000  Uiso   1.00
O128   O     0.50001   0.12844   0.31607   0.00000  Uiso   1.00
O129   O     0.50001   0.20489   0.31607   0.00000  Uiso   1.00
O130   O     0.49999   0.12844   0.18392   0.00000  Uiso   1.00
Zn131  Zn    0.50000   0.21771   0.25000   0.00000  Uiso   1.00
Zn132  Zn    0.50000   0.11563   0.25000   0.00000  Uiso   1.00
N133   N     0.57437   0.18204   0.38094   0.00000  Uiso   1.00
H134   H     0.59223   0.20902   0.39153   0.00000  Uiso   1.00
C135   C     0.59830   0.14186   0.37075   0.00000  Uiso   1.00
H136   H     0.61026   0.12609   0.40197   0.00000  Uiso   1.00
H137   H     0.62519   0.15109   0.34935   0.00000  Uiso   1.00
H138   H     0.57884   0.11694   0.35228   0.00000  Uiso   1.00
N139   N     0.42451   0.15764   0.11891   0.00000  Uiso   1.00
H140   H     0.40081   0.17891   0.10886   0.00000  Uiso   1.00
C141   C     0.41091   0.11172   0.12730   0.00000  Uiso   1.00
H142   H     0.40182   0.09475   0.09557   0.00000  Uiso   1.00
H143   H     0.38358   0.11222   0.14994   0.00000  Uiso   1.00
H144   H     0.43610   0.09191   0.14353   0.00000  Uiso   1.00
N145   N     0.42384   0.15408   0.38210   0.00000  Uiso   1.00
H146   H     0.42616   0.13277   0.35488   0.00000  Uiso   1.00
C147   C     0.40107   0.19513   0.37208   0.00000  Uiso   1.00
H148   H     0.41887   0.21645   0.34825   0.00000  Uiso   1.00
H149   H     0.39507   0.21473   0.40315   0.00000  Uiso   1.00
H150   H     0.37062   0.18629   0.35666   0.00000  Uiso   1.00
N151   N     0.57616   0.17752   0.11782   0.00000  Uiso   1.00
H152   H     0.57438   0.19806   0.14566   0.00000  Uiso   1.00
C153   C     0.59816   0.13569   0.12652   0.00000  Uiso   1.00
H154   H     0.58001   0.11405   0.14976   0.00000  Uiso   1.00
H155   H     0.62881   0.14335   0.14211   0.00000  Uiso   1.00
H156   H     0.60372   0.11696   0.09483   0.00000  Uiso   1.00
C157   C     0.75330   0.16666   0.25000   0.00000  Uiso   1.00
C158   C     0.91336   0.16667   0.25001   0.00000  Uiso   1.00
C159   C     0.75778   0.15608   0.02279   0.00000  Uiso   1.00
C160   C     0.90822   0.18058   0.47713   0.00000  Uiso   1.00
C161   C     0.68794   0.12584   0.24370   0.00000  Uiso   1.00
C162   C     0.97871   0.20741   0.25678   0.00000  Uiso   1.00
C163   C     0.97865   0.12586   0.24360   0.00000  Uiso   1.00
C164   C     0.68800   0.20741   0.25677   0.00000  Uiso   1.00
C165   C     0.95751   0.16666   0.25007   0.00000  Uiso   1.00
C166   C     0.70915   0.16664   0.25015   0.00000  Uiso   1.00
C167   C     0.86292   0.02401   0.27325   0.00000  Uiso   1.00
C168   C     0.80372   0.30932   0.22680   0.00000  Uiso   1.00
C169   C     0.80368   0.02393   0.22687   0.00000  Uiso   1.00
C170   C     0.86290   0.30939   0.27327   0.00000  Uiso   1.00
C171   C     0.83329   0.16665   0.16365   0.00000  Uiso   1.00
C172   C     0.83316   0.16669   0.33633   0.00000  Uiso   1.00
C173   C     0.87074   0.17419   0.40630   0.00000  Uiso   1.00
C174   C     0.79537   0.16148   0.09362   0.00000  Uiso   1.00
C175   C     0.83303   0.16671   0.38389   0.00000  Uiso   1.00
C176   C     0.83339   0.16665   0.11606   0.00000  Uiso   1.00
C177   C     0.79514   0.16093   0.40632   0.00000  Uiso   1.00
C178   C     0.87130   0.17224   0.09361   0.00000  Uiso   1.00
C179   C     0.79511   0.16173   0.45298   0.00000  Uiso   1.00
C180   C     0.87111   0.17327   0.04695   0.00000  Uiso   1.00
C181   C     0.83304   0.16818   0.47648   0.00000  Uiso   1.00
C182   C     0.83305   0.16781   0.02345   0.00000  Uiso   1.00
C183   C     0.87097   0.17464   0.45314   0.00000  Uiso   1.00
C184   C     0.79504   0.16192   0.04678   0.00000  Uiso   1.00
C185   C     0.75789   0.15557   0.47657   0.00000  Uiso   1.00
C186   C     0.90825   0.17999   0.02337   0.00000  Uiso   1.00
H187   H     0.72850   0.15017   0.45950   0.00000  Uiso   1.00
H188   H     0.93772   0.18476   0.04047   0.00000  Uiso   1.00
H189   H     0.72818   0.15129   0.03924   0.00000  Uiso   1.00
H190   H     0.93785   0.18519   0.46068   0.00000  Uiso   1.00
H191   H     0.70413   0.09411   0.23839   0.00000  Uiso   1.00
H192   H     0.96251   0.23911   0.26222   0.00000  Uiso   1.00
H193   H     0.96242   0.09415   0.23821   0.00000  Uiso   1.00
H194   H     0.70424   0.23911   0.26219   0.00000  Uiso   1.00
H195   H     0.88656   0.04219   0.29188   0.00000  Uiso   1.00
H196   H     0.78004   0.29115   0.20824   0.00000  Uiso   1.00
H197   H     0.77988   0.04201   0.20849   0.00000  Uiso   1.00
H198   H     0.88653   0.29126   0.29192   0.00000  Uiso   1.00
N199   N     0.83333   0.28573   0.25000   0.00000  Uiso   1.00
N200   N     0.83333   0.04760   0.25000   0.00000  Uiso   1.00
O201   O     0.77226   0.20487   0.24999   0.00000  Uiso   1.00
O202   O     0.89441   0.12846   0.25000   0.00000  Uiso   1.00
O203   O     0.89441   0.20487   0.25000   0.00000  Uiso   1.00
O204   O     0.77226   0.12846   0.24999   0.00000  Uiso   1.00
O205   O     0.83333   0.20489   0.18392   0.00000  Uiso   1.00
O206   O     0.83334   0.12844   0.31607   0.00000  Uiso   1.00
O207   O     0.83334   0.20489   0.31607   0.00000  Uiso   1.00
O208   O     0.83333   0.12844   0.18392   0.00000  Uiso   1.00
Zn209  Zn    0.83333   0.21771   0.25000   0.00000  Uiso   1.00
Zn210  Zn    0.83333   0.11563   0.25000   0.00000  Uiso   1.00
N211   N     0.90770   0.18204   0.38094   0.00000  Uiso   1.00
H212   H     0.92557   0.20902   0.39153   0.00000  Uiso   1.00
C213   C     0.93164   0.14186   0.37075   0.00000  Uiso   1.00
H214   H     0.94359   0.12609   0.40197   0.00000  Uiso   1.00
H215   H     0.95853   0.15109   0.34935   0.00000  Uiso   1.00
H216   H     0.91218   0.11694   0.35228   0.00000  Uiso   1.00
N217   N     0.75785   0.15764   0.11891   0.00000  Uiso   1.00
H218   H     0.73415   0.17891   0.10886   0.00000  Uiso   1.00
C219   C     0.74425   0.11172   0.12730   0.00000  Uiso   1.00
H220   H     0.73515   0.09475   0.09557   0.00000  Uiso   1.00
H221   H     0.71692   0.11222   0.14994   0.00000  Uiso   1.00
H222   H     0.76943   0.09191   0.14353   0.00000  Uiso   1.00
N223   N     0.75717   0.15408   0.38210   0.00000  Uiso   1.00
H224   H     0.75949   0.13277   0.35488   0.00000  Uiso   1.00
C225   C     0.73440   0.19513   0.37208   0.00000  Uiso   1.00
H226   H     0.75220   0.21645   0.34825   0.00000  Uiso   1.00
H227   H     0.72840   0.21473   0.40315   0.00000  Uiso   1.00
H228   H     0.70395   0.18629   0.35666   0.00000  Uiso   1.00
N229   N     0.90949   0.17752   0.11782   0.00000  Uiso   1.00
H230   H     0.90771   0.19806   0.14566   0.00000  Uiso   1.00
C231   C     0.93149   0.13569   0.12652   0.00000  Uiso   1.00
H232   H     0.91334   0.11405   0.14976   0.00000  Uiso   1.00
H233   H     0.96214   0.14335   0.14211   0.00000  Uiso   1.00
H234   H     0.93705   0.11696   0.09483   0.00000  Uiso   1.00
C235   C     0.08663   0.49999   0.25000   0.00000  Uiso   1.00
C236   C     0.24670   0.50000   0.25001   0.00000  Uiso   1.00
C237   C     0.09112   0.48942   0.02279   0.00000  Uiso   1.00
C238   C     0.24155   0.51392   0.47713   0.00000  Uiso   1.00
C239   C     0.02128   0.45918   0.24370   0.00000  Uiso   1.00
C240   C     0.31204   0.54074   0.25678   0.00000  Uiso   1.00
C241   C     0.31199   0.45920   0.24360   0.00000  Uiso   1.00
C242   C     0.02133   0.54074   0.25677   0.00000  Uiso   1.00
C243   C     0.29084   0.49999   0.25007   0.00000  Uiso   1.00
C244   C     0.04248   0.49997   0.25015   0.00000  Uiso   1.00
C245   C     0.19625   0.35734   0.27325   0.00000  Uiso   1.00
C246   C     0.13705   0.64265   0.22680   0.00000  Uiso   1.00
C247   C     0.13702   0.35726   0.22687   0.00000  Uiso   1.00
C248   C     0.19624   0.64272   0.27327   0.00000  Uiso   1.00
C249   C     0.16662   0.49998   0.16365   0.00000  Uiso   1.00
C250   C     0.16649   0.50002   0.33633   0.00000  Uiso   1.00
C251   C     0.20407   0.50752   0.40630   0.00000  Uiso   1.00
C252   C     0.12870   0.49482   0.09362   0.00000  Uiso   1.00
C253   C     0.16636   0.50004   0.38389   0.00000  Uiso   1.00
C254   C     0.16673   0.49999   0.11606   0.00000  Uiso   1.00
C255   C     0.12848   0.49426   0.40632   0.00000  Uiso   1.00
C256   C     0.20464   0.50557   0.09361   0.00000  Uiso   1.00
C257   C     0.12844   0.49506   0.45298   0.00000  Uiso   1.00
C258   C     0.20444   0.50660   0.04695   0.00000  Uiso   1.00
C259   C     0.16637   0.50152   0.47648   0.00000  Uiso   1.00
C260   C     0.16638   0.50115   0.02345   0.00000  Uiso   1.00
C261   C     0.20431   0.50797   0.45314   0.00000  Uiso   1.00
C262   C     0.12837   0.49526   0.04678   0.00000  Uiso   1.00
C263   C     0.09123   0.48891   0.47657   0.00000  Uiso   1.00
C264   C     0.24158   0.51333   0.02337   0.00000  Uiso   1.00
H265   H     0.06183   0.48351   0.45950   0.00000  Uiso   1.00
H266   H     0.27105   0.51810   0.04047   0.00000  Uiso   1.00
H267   H     0.06151   0.48462   0.03924   0.00000  Uiso   1.00
H268   H     0.27118   0.51852   0.46068   0.00000  Uiso   1.00
H269   H     0.03747   0.42744   0.23839   0.00000  Uiso   1.00
H270   H     0.29585   0.57245   0.26222   0.00000  Uiso   1.00
H271   H     0.29575   0.42748   0.23821   0.00000  Uiso   1.00
H272   H     0.03757   0.57245   0.26219   0.00000  Uiso   1.00
H273   H     0.21989   0.37552   0.29188   0.00000  Uiso   1.00
H274   H     0.11337   0.62448   0.20824   0.00000  Uiso   1.00
H275   H     0.11322   0.37534   0.20849   0.00000  Uiso   1.00
H276   H     0.21986   0.62459   0.29192   0.00000  Uiso   1.00
N277   N     0.16667   0.61907   0.25000   0.00000  Uiso   1.00
N278   N     0.16667   0.38093   0.25000   0.00000  Uiso   1.00
O279   O     0.10559   0.53821   0.24999   0.00000  Uiso   1.00
O280   O     0.22774   0.46179   0.25000   0.00000  Uiso   1.00
O281   O     0.22774   0.53821   0.25000   0.00000  Uiso   1.00
O282   O     0.10559   0.46179   0.24999   0.00000  Uiso   1.00
O283   O     0.16666   0.53823   0.18392   0.00000  Uiso   1.00
O284   O     0.16667   0.46177   0.31607   0.00000  Uiso   1.00
O285   O     0.16667   0.53823   0.31607   0.00000  Uiso   1.00
O286   O     0.16666   0.46177   0.18392   0.00000  Uiso   1.00
Zn287  Zn    0.16667   0.55104   0.25000   0.00000  Uiso   1.00
Zn288  Zn    0.16667   0.44896   0.25000   0.00000  Uiso   1.00
N289   N     0.24103   0.51537   0.38094   0.00000  Uiso   1.00
H290   H     0.25890   0.54236   0.39153   0.00000  Uiso   1.00
C291   C     0.26497   0.47519   0.37075   0.00000  Uiso   1.00
H292   H     0.27693   0.45942   0.40197   0.00000  Uiso   1.00
H293   H     0.29186   0.48442   0.34935   0.00000  Uiso   1.00
H294   H     0.24551   0.45027   0.35228   0.00000  Uiso   1.00
N295   N     0.09118   0.49097   0.11891   0.00000  Uiso   1.00
H296   H     0.06748   0.51224   0.10886   0.00000  Uiso   1.00
C297   C     0.07758   0.44506   0.12730   0.00000  Uiso   1.00
H298   H     0.06849   0.42809   0.09557   0.00000  Uiso   1.00
H299   H     0.05025   0.44556   0.14994   0.00000  Uiso   1.00
H300   H     0.10276   0.42525   0.14353   0.00000  Uiso   1.00
N301   N     0.09051   0.48741   0.38210   0.00000  Uiso   1.00
H302   H     0.09282   0.46611   0.35488   0.00000  Uiso   1.00
C303   C     0.06774   0.52846   0.37208   0.00000  Uiso   1.00
H304   H     0.08553   0.54978   0.34825   0.00000  Uiso   1.00
H305   H     0.06173   0.54806   0.40315   0.00000  Uiso   1.00
H306   H     0.03729   0.51962   0.35666   0.00000  Uiso   1.00
N307   N     0.24282   0.51085   0.11782   0.00000  Uiso   1.00
H308   H     0.24104   0.53140   0.14566   0.00000  Uiso   1.00
C309   C     0.26483   0.46902   0.12652   0.00000  Uiso   1.00
H310   H     0.24668   0.44738   0.14976   0.00000  Uiso   1.00
H311   H     0.29548   0.47669   0.14211   0.00000  Uiso   1.00
H312   H     0.27038   0.45029   0.09483   0.00000  Uiso   1.00
C313   C     0.41997   0.49999   0.25000   0.00000  Uiso   1.00
C314   C     0.58003   0.50000   0.25001   0.00000  Uiso   1.00
C315   C     0.42445   0.48942   0.02279   0.00000  Uiso   1.00
C316   C     0.57488   0.51392   0.47713   0.00000  Uiso   1.00
C317   C     0.35461   0.45918   0.24370   0.00000  Uiso   1.00
C318   C     0.64537   0.54074   0.25678   0.00000  Uiso   1.00
C319   C     0.64532   0.45920   0.24360   0.00000  Uiso   1.00
C320   C     0.35467   0.54074   0.25677   0.00000  Uiso   1.00
C321   C     0.62417   0.49999   0.25007   0.00000  Uiso   1.00
C322   C     0.37582   0.49997   0.25015   0.00000  Uiso   1.00
C323   C     0.52958   0.35734   0.27325   0.00000  Uiso   1.00
C324   C     0.47039   0.64265   0.22680   0.00000  Uiso   1.00
C325   C     0.47035   0.35726   0.22687   0.00000  Uiso   1.00
C326   C     0.52957   0.64272   0.27327   0.00000  Uiso   1.00
C327   C     0.49995   0.49998   0.16365   0.00000  Uiso   1.00
C328   C     0.49983   0.50002   0.33633   0.00000  Uiso   1.00
C329   C     0.53740   0.50752   0.40630   0.00000  Uiso   1.00
C330   C     0.46204   0.49482   0.09362   0.00000  Uiso   1.00
C331   C     0.49970   0.50004   0.38389   0.00000  Uiso   1.00
C332   C     0.50006   0.49999   0.11606   0.00000  Uiso   1.00
C333   C     0.46181   0.49426   0.40632   0.00000  Uiso   1.00
C334   C     0.53797   0.50557   0.09361   0.00000  Uiso   1.00
C335   C     0.46177   0.49506   0.45298   0.00000  Uiso   1.00
C336   C     0.53777   0.50660   0.04695   0.00000  Uiso   1.00
C337   C     0.49970   0.50152   0.47648   0.00000  Uiso   1.00
C338   C     0.49972   0.50115   0.02345   0.00000  Uiso   1.00
C339   C     0.53764   0.50797   0.45314   0.00000  Uiso   1.00
C340   C     0.46170   0.49526   0.04678   0.00000  Uiso   1.00
C341   C     0.42456   0.48891   0.47657   0.00000  Uiso   1.00
C342   C     0.57491   0.51333   0.02337   0.00000  Uiso   1.00
H343   H     0.39517   0.48351   0.45950   0.00000  Uiso   1.00
H344   H     0.60438   0.51810   0.04047   0.00000  Uiso   1.00
H345   H     0.39484   0.48462   0.03924   0.00000  Uiso   1.00
H346   H     0.60451   0.51852   0.46068   0.00000  Uiso   1.00
H347   H     0.37080   0.42744   0.23839   0.00000  Uiso   1.00
H348   H     0.62918   0.57245   0.26222   0.00000  Uiso   1.00
H349   H     0.62908   0.42748   0.23821   0.00000  Uiso   1.00
H350   H     0.37091   0.57245   0.26219   0.00000  Uiso   1.00
H351   H     0.55322   0.37552   0.29188   0.00000  Uiso   1.00
H352   H     0.44671   0.62448   0.20824   0.00000  Uiso   1.00
H353   H     0.44655   0.37534   0.20849   0.00000  Uiso   1.00
H354   H     0.55319   0.62459   0.29192   0.00000  Uiso   1.00
N355   N     0.50000   0.61907   0.25000   0.00000  Uiso   1.00
N356   N     0.50000   0.38093   0.25000   0.00000  Uiso   1.00
O357   O     0.43892   0.53821   0.24999   0.00000  Uiso   1.00
O358   O     0.56108   0.46179   0.25000   0.00000  Uiso   1.00
O359   O     0.56108   0.53821   0.25000   0.00000  Uiso   1.00
O360   O     0.43892   0.46179   0.24999   0.00000  Uiso   1.00
O361   O     0.49999   0.53823   0.18392   0.00000  Uiso   1.00
O362   O     0.50001   0.46177   0.31607   0.00000  Uiso   1.00
O363   O     0.50001   0.53823   0.31607   0.00000  Uiso   1.00
O364   O     0.49999   0.46177   0.18392   0.00000  Uiso   1.00
Zn365  Zn    0.50000   0.55104   0.25000   0.00000  Uiso   1.00
Zn366  Zn    0.50000   0.44896   0.25000   0.00000  Uiso   1.00
N367   N     0.57437   0.51537   0.38094   0.00000  Uiso   1.00
H368   H     0.59223   0.54236   0.39153   0.00000  Uiso   1.00
C369   C     0.59830   0.47519   0.37075   0.00000  Uiso   1.00
H370   H     0.61026   0.45942   0.40197   0.00000  Uiso   1.00
H371   H     0.62519   0.48442   0.34935   0.00000  Uiso   1.00
H372   H     0.57884   0.45027   0.35228   0.00000  Uiso   1.00
N373   N     0.42451   0.49097   0.11891   0.00000  Uiso   1.00
H374   H     0.40081   0.51224   0.10886   0.00000  Uiso   1.00
C375   C     0.41091   0.44506   0.12730   0.00000  Uiso   1.00
H376   H     0.40182   0.42809   0.09557   0.00000  Uiso   1.00
H377   H     0.38358   0.44556   0.14994   0.00000  Uiso   1.00
H378   H     0.43610   0.42525   0.14353   0.00000  Uiso   1.00
N379   N     0.42384   0.48741   0.38210   0.00000  Uiso   1.00
H380   H     0.42616   0.46611   0.35488   0.00000  Uiso   1.00
C381   C     0.40107   0.52846   0.37208   0.00000  Uiso   1.00
H382   H     0.41887   0.54978   0.34825   0.00000  Uiso   1.00
H383   H     0.39507   0.54806   0.40315   0.00000  Uiso   1.00
H384   H     0.37062   0.51962   0.35666   0.00000  Uiso   1.00
N385   N     0.57616   0.51085   0.11782   0.00000  Uiso   1.00
H386   H     0.57438   0.53140   0.14566   0.00000  Uiso   1.00
C387   C     0.59816   0.46902   0.12652   0.00000  Uiso   1.00
H388   H     0.58001   0.44738   0.14976   0.00000  Uiso   1.00
H389   H     0.62881   0.47669   0.14211   0.00000  Uiso   1.00
H390   H     0.60372   0.45029   0.09483   0.00000  Uiso   1.00
C391   C     0.75330   0.49999   0.25000   0.00000  Uiso   1.00
C392   C     0.91336   0.50000   0.25001   0.00000  Uiso   1.00
C393   C     0.75778   0.48942   0.02279   0.00000  Uiso   1.00
C394   C     0.90822   0.51392   0.47713   0.00000  Uiso   1.00
C395   C     0.68794   0.45918   0.24370   0.00000  Uiso   1.00
C396   C     0.97871   0.54074   0.25678   0.00000  Uiso   1.00
C397   C     0.97865   0.45920   0.24360   0.00000  Uiso   1.00
C398   C     0.68800   0.54074   0.25677   0.00000  Uiso   1.00
C399   C     0.95751   0.49999   0.25007   0.00000  Uiso   1.00
C400   C     0.70915   0.49997   0.25015   0.00000  Uiso   1.00
C401   C     0.86292   0.35734   0.27325   0.00000  Uiso   1.00
C402   C     0.80372   0.64265   0.22680   0.00000  Uiso   1.00
C403   C     0.80368   0.35726   0.22687   0.00000  Uiso   1.00
C404   C     0.86290   0.64272   0.27327   0.00000  Uiso   1.00
C405   C     0.83329   0.49998   0.16365   0.00000  Uiso   1.00
C406   C     0.83316   0.50002   0.33633   0.00000  Uiso   1.00
C407   C     0.87074   0.50752   0.40630   0.00000  Uiso   1.00
C408   C     0.79537   0.49482   0.09362   0.00000  Uiso   1.00
C409   C     0.83303   0.50004   0.38389   0.00000  Uiso   1.00
C410   C     0.83339   0.49999   0.11606   0.00000  Uiso   1.00
C411   C     0.79514   0.49426   0.40632   0.00000  Uiso   1.00
C412   C     0.87130   0.50557   0.09361   0.00000  Uiso   1.00
C413   C     0.79511   0.49506   0.45298   0.00000  Uiso   1.00
C414   C     0.87111   0.50660   0.04695   0.00000  Uiso   1.00
C415   C     0.83304   0.50152   0.47648   0.00000  Uiso   1.00
C416   C     0.83305   0.50115   0.02345   0.00000  Uiso   1.00
C417   C     0.87097   0.50797   0.45314   0.00000  Uiso   1.00
C418   C     0.79504   0.49526   0.04678   0.00000  Uiso   1.00
C419   C     0.75789   0.48891   0.47657   0.00000  Uiso   1.00
C420   C     0.90825   0.51333   0.02337   0.00000  Uiso   1.00
H421   H     0.72850   0.48351   0.45950   0.00000  Uiso   1.00
H422   H     0.93772   0.51810   0.04047   0.00000  Uiso   1.00
H423   H     0.72818   0.48462   0.03924   0.00000  Uiso   1.00
H424   H     0.93785   0.51852   0.46068   0.00000  Uiso   1.00
H425   H     0.70413   0.42744   0.23839   0.00000  Uiso   1.00
H426   H     0.96251   0.57245   0.26222   0.00000  Uiso   1.00
H427   H     0.96242   0.42748   0.23821   0.00000  Uiso   1.00
H428   H     0.70424   0.57245   0.26219   0.00000  Uiso   1.00
H429   H     0.88656   0.37552   0.29188   0.00000  Uiso   1.00
H430   H     0.78004   0.62448   0.20824   0.00000  Uiso   1.00
H431   H     0.77988   0.37534   0.20849   0.00000  Uiso   1.00
H432   H     0.88653   0.62459   0.29192   0.00000  Uiso   1.00
N433   N     0.83333   0.61907   0.25000   0.00000  Uiso   1.00
N434   N     0.83333   0.38093   0.25000   0.00000  Uiso   1.00
O435   O     0.77226   0.53821   0.24999   0.00000  Uiso   1.00
O436   O     0.89441   0.46179   0.25000   0.00000  Uiso   1.00
O437   O     0.89441   0.53821   0.25000   0.00000  Uiso   1.00
O438   O     0.77226   0.46179   0.24999   0.00000  Uiso   1.00
O439   O     0.83333   0.53823   0.18392   0.00000  Uiso   1.00
O440   O     0.83334   0.46177   0.31607   0.00000  Uiso   1.00
O441   O     0.83334   0.53823   0.31607   0.00000  Uiso   1.00
O442   O     0.83333   0.46177   0.18392   0.00000  Uiso   1.00
Zn443  Zn    0.83333   0.55104   0.25000   0.00000  Uiso   1.00
Zn444  Zn    0.83333   0.44896   0.25000   0.00000  Uiso   1.00
N445   N     0.90770   0.51537   0.38094   0.00000  Uiso   1.00
H446   H     0.92557   0.54236   0.39153   0.00000  Uiso   1.00
C447   C     0.93164   0.47519   0.37075   0.00000  Uiso   1.00
H448   H     0.94359   0.45942   0.40197   0.00000  Uiso   1.00
H449   H     0.95853   0.48442   0.34935   0.00000  Uiso   1.00
H450   H     0.91218   0.45027   0.35228   0.00000  Uiso   1.00
N451   N     0.75785   0.49097   0.11891   0.00000  Uiso   1.00
H452   H     0.73415   0.51224   0.10886   0.00000  Uiso   1.00
C453   C     0.74425   0.44506   0.12730   0.00000  Uiso   1.00
H454   H     0.73515   0.42809   0.09557   0.00000  Uiso   1.00
H455   H     0.71692   0.44556   0.14994   0.00000  Uiso   1.00
H456   H     0.76943   0.42525   0.14353   0.00000  Uiso   1.00
N457   N     0.75717   0.48741   0.38210   0.00000  Uiso   1.00
H458   H     0.75949   0.46611   0.35488   0.00000  Uiso   1.00
C459   C     0.73440   0.52846   0.37208   0.00000  Uiso   1.00
H460   H     0.75220   0.54978   0.34825   0.00000  Uiso   1.00
H461   H     0.72840   0.54806   0.40315   0.00000  Uiso   1.00
H462   H     0.70395   0.51962   0.35666   0.00000  Uiso   1.00
N463   N     0.90949   0.51085   0.11782   0.00000  Uiso   1.00
H464   H     0.90771   0.53140   0.14566   0.00000  Uiso   1.00
C465   C     0.93149   0.46902   0.12652   0.00000  Uiso   1.00
H466   H     0.91334   0.44738   0.14976   0.00000  Uiso   1.00
H467   H     0.96214   0.47669   0.14211   0.00000  Uiso   1.00
H468   H     0.93705   0.45029   0.09483   0.00000  Uiso   1.00
C469   C     0.08663   0.83333   0.25000   0.00000  Uiso   1.00
C470   C     0.24670   0.83333   0.25001   0.00000  Uiso   1.00
C471   C     0.09112   0.82275   0.02279   0.00000  Uiso   1.00
C472   C     0.24155   0.84725   0.47713   0.00000  Uiso   1.00
C473   C     0.02128   0.79251   0.24370   0.00000  Uiso   1.00
C474   C     0.31204   0.87407   0.25678   0.00000  Uiso   1.00
C475   C     0.31199   0.79253   0.24360   0.00000  Uiso   1.00
C476   C     0.02133   0.87407   0.25677   0.00000  Uiso   1.00
C477   C     0.29084   0.83332   0.25007   0.00000  Uiso   1.00
C478   C     0.04248   0.83330   0.25015   0.00000  Uiso   1.00
C479   C     0.19625   0.69068   0.27325   0.00000  Uiso   1.00
C480   C     0.13705   0.97599   0.22680   0.00000  Uiso   1.00
C481   C     0.13702   0.69060   0.22687   0.00000  Uiso   1.00
C482   C     0.19624   0.97606   0.27327   0.00000  Uiso   1.00
C483   C     0.16662   0.83331   0.16365   0.00000  Uiso   1.00
C484   C     0.16649   0.83335   0.33633   0.00000  Uiso   1.00
C485   C     0.20407   0.84085   0.40630   0.00000  Uiso   1.00
C486   C     0.12870   0.82815   0.09362   0.00000  Uiso   1.00
C487   C     0.16636   0.83338   0.38389   0.00000  Uiso   1.00
C488   C     0.16673   0.83332   0.11606   0.00000  Uiso   1.00
C489   C     0.12848   0.82760   0.40632   0.00000  Uiso   1.00
C490   C     0.20464   0.83890   0.09361   0.00000  Uiso   1.00
C491   C     0.12844   0.82839   0.45298   0.00000  Uiso   1.00
C492   C     0.20444   0.83993   0.04695   0.00000  Uiso   1.00
C493   C     0.16637   0.83485   0.47648   0.00000  Uiso   1.00
C494   C     0.16638   0.83448   0.02345   0.00000  Uiso   1.00
C495   C     0.20431   0.84130   0.45314   0.00000  Uiso   1.00
C496   C     0.12837   0.82859   0.04678   0.00000  Uiso   1.00
C497   C     0.09123   0.82224   0.47657   0.00000  Uiso   1.00
C498   C     0.24158   0.84666   0.02337   0.00000  Uiso   1.00
H499   H     0.06183   0.81684   0.45950   0.00000  Uiso   1.00
H500   H     0.27105   0.85143   0.04047   0.00000  Uiso   1.00
H501   H     0.06151   0.81795   0.03924   0.00000  Uiso   1.00
H502   H     0.27118   0.85185   0.46068   0.00000  Uiso   1.00
H503   H     0.03747   0.76078   0.23839   0.00000  Uiso   1.00
H504   H     0.29585   0.90578   0.26222   0.00000  Uiso   1.00
H505   H     0.29575   0.76082   0.23821   0.00000  Uiso   1.00
H506   H     0.03757   0.90578   0.26219   0.00000  Uiso   1.00
H507   H     0.21989   0.70886   0.29188   0.00000  Uiso   1.00
H508   H     0.11337   0.95782   0.20824   0.00000  Uiso   1.00
H509   H     0.11322   0.70868   0.20849   0.00000  Uiso   1.00
H510   H     0.21986   0.95793   0.29192   0.00000  Uiso   1.00
N511   N     0.16667   0.95240   0.25000   0.00000  Uiso   1.00
N512   N     0.16667   0.71427   0.25000   0.00000  Uiso   1.00
O513   O     0.10559   0.87154   0.24999   0.00000  Uiso   1.00
O514   O     0.22774   0.79513   0.25000   0.00000  Uiso   1.00
O515   O     0.22774   0.87154   0.25000   0.00000  Uiso   1.00
O516   O     0.10559   0.79513   0.24999   0.00000  Uiso   1.00
O517   O     0.16666   0.87156   0.18392   0.00000  Uiso   1.00
O518   O     0.16667   0.79511   0.31607   0.00000  Uiso   1.00
O519   O     0.16667   0.87156   0.31607   0.00000  Uiso   1.00
O520   O     0.16666   0.79511   0.18392   0.00000  Uiso   1.00
Zn521  Zn    0.16667   0.88437   0.25000   0.00000  Uiso   1.00
Zn522  Zn    0.16667   0.78229   0.25000   0.00000  Uiso   1.00
N523   N     0.24103   0.84871   0.38094   0.00000  Uiso   1.00
H524   H     0.25890   0.87569   0.39153   0.00000  Uiso   1.00
C525   C     0.26497   0.80852   0.37075   0.00000  Uiso   1.00
H526   H     0.27693   0.79276   0.40197   0.00000  Uiso   1.00
H527   H     0.29186   0.81776   0.34935   0.00000  Uiso   1.00
H528   H     0.24551   0.78360   0.35228   0.00000  Uiso   1.00
N529   N     0.09118   0.82430   0.11891   0.00000  Uiso   1.00
H530   H     0.06748   0.84557   0.10886   0.00000  Uiso   1.00
C531   C     0.07758   0.77839   0.12730   0.00000  Uiso   1.00
H532   H     0.06849   0.76142   0.09557   0.00000  Uiso   1.00
H533   H     0.05025   0.77889   0.14994   0.00000  Uiso   1.00
H534   H     0.10276   0.75858   0.14353   0.00000  Uiso   1.00
N535   N     0.09051   0.82075   0.38210   0.00000  Uiso   1.00
H536   H     0.09282   0.79944   0.35488   0.00000  Uiso   1.00
C537   C     0.06774   0.86179   0.37208   0.00000  Uiso   1.00
H538   H     0.08553   0.88311   0.34825   0.00000  Uiso   1.00
H539   H     0.06173   0.88139   0.40315   0.00000  Uiso   1.00
H540   H     0.03729   0.85295   0.35666   0.00000  Uiso   1.00
N541   N     0.24282   0.84419   0.11782   0.00000  Uiso   1.00
H542   H     0.24104   0.86473   0.14566   0.00000  Uiso   1.00
C543   C     0.26483   0.80235   0.12652   0.00000  Uiso   1.00
H544   H     0.24668   0.78071   0.14976   0.00000  Uiso   1.00
H545   H     0.29548   0.81002   0.14211   0.00000  Uiso   1.00
H546   H     0.27038   0.78362   0.09483   0.00000  Uiso   1.00
C547   C     0.41997   0.83333   0.25000   0.00000  Uiso   1.00
C548   C     0.58003   0.83333   0.25001   0.00000  Uiso   1.00
C549   C     0.42445   0.82275   0.02279   0.00000  Uiso   1.00
C550   C     0.57488   0.84725   0.47713   0.00000  Uiso   1.00
C551   C     0.35461   0.79251   0.24370   0.00000  Uiso   1.00
C552   C     0.64537   0.87407   0.25678   0.00000  Uiso   1.00
C553   C     0.64532   0.79253   0.24360   0.00000  Uiso   1.00
C554   C     0.35467   0.87407   0.25677   0.00000  Uiso   1.00
C555   C     0.62417   0.83332   0.25007   0.00000  Uiso   1.00
C556   C     0.37582   0.83330   0.25015   0.00000  Uiso   1.00
C557   C     0.52958   0.69068   0.27325   0.00000  Uiso   1.00
C558   C     0.47039   0.97599   0.22680   0.00000  Uiso   1.00
C559   C     0.47035   0.69060   0.22687   0.00000  Uiso   1.00
C560   C     0.52957   0.97606   0.27327   0.00000  Uiso   1.00
C561   C     0.49995   0.83331   0.16365   0.00000  Uiso   1.00
C562   C     0.49983   0.83335   0.33633   0.00000  Uiso   1.00
C563   C     0.53740   0.84085   0.40630   0.00000  Uiso   1.00
C564   C     0.46204   0.82815   0.09362   0.00000  Uiso   1.00
C565   C     0.49970   0.83338   0.38389   0.00000  Uiso   1.00
C566   C     0.50006   0.83332   0.11606   0.00000  Uiso   1.00
C567   C     0.46181   0.82760   0.40632   0.00000  Uiso   1.00
C568   C     0.53797   0.83890   0.09361   0.00000  Uiso   1.00
C569   C     0.46177   0.82839   0.45298   0.00000  Uiso   1.00
C570   C     0.53777   0.83993   0.04695   0.00000  Uiso   1.00
C571   C     0.49970   0.83485   0.47648   0.00000  Uiso   1.00
C572   C     0.49972   0.83448   0.02345   0.00000  Uiso   1.00
C573   C     0.53764   0.84130   0.45314   0.00000  Uiso   1.00
C574   C     0.46170   0.82859   0.04678   0.00000  Uiso   1.00
C575   C     0.42456   0.82224   0.47657   0.00000  Uiso   1.00
C576   C     0.57491   0.84666   0.02337   0.00000  Uiso   1.00
H577   H     0.39517   0.81684   0.45950   0.00000  Uiso   1.00
H578   H     0.60438   0.85143   0.04047   0.00000  Uiso   1.00
H579   H     0.39484   0.81795   0.03924   0.00000  Uiso   1.00
H580   H     0.60451   0.85185   0.46068   0.00000  Uiso   1.00
H581   H     0.37080   0.76078   0.23839   0.00000  Uiso   1.00
H582   H     0.62918   0.90578   0.26222   0.00000  Uiso   1.00
H583   H     0.62908   0.76082   0.23821   0.00000  Uiso   1.00
H584   H     0.37091   0.90578   0.26219   0.00000  Uiso   1.00
H585   H     0.55322   0.70886   0.29188   0.00000  Uiso   1.00
H586   H     0.44671   0.95782   0.20824   0.00000  Uiso   1.00
H587   H     0.44655   0.70868   0.20849   0.00000  Uiso   1.00
H588   H     0.55319   0.95793   0.29192   0.00000  Uiso   1.00
N589   N     0.50000   0.95240   0.25000   0.00000  Uiso   1.00
N590   N     0.50000   0.71427   0.25000   0.00000  Uiso   1.00
O591   O     0.43892   0.87154   0.24999   0.00000  Uiso   1.00
O592   O     0.56108   0.79513   0.25000   0.00000  Uiso   1.00
O593   O     0.56108   0.87154   0.25000   0.00000  Uiso   1.00
O594   O     0.43892   0.79513   0.24999   0.00000  Uiso   1.00
O595   O     0.49999   0.87156   0.18392   0.00000  Uiso   1.00
O596   O     0.50001   0.79511   0.31607   0.00000  Uiso   1.00
O597   O     0.50001   0.87156   0.31607   0.00000  Uiso   1.00
O598   O     0.49999   0.79511   0.18392   0.00000  Uiso   1.00
Zn599  Zn    0.50000   0.88437   0.25000   0.00000  Uiso   1.00
Zn600  Zn    0.50000   0.78229   0.25000   0.00000  Uiso   1.00
N601   N     0.57437   0.84871   0.38094   0.00000  Uiso   1.00
H602   H     0.59223   0.87569   0.39153   0.00000  Uiso   1.00
C603   C     0.59830   0.80852   0.37075   0.00000  Uiso   1.00
H604   H     0.61026   0.79276   0.40197   0.00000  Uiso   1.00
H605   H     0.62519   0.81776   0.34935   0.00000  Uiso   1.00
H606   H     0.57884   0.78360   0.35228   0.00000  Uiso   1.00
N607   N     0.42451   0.82430   0.11891   0.00000  Uiso   1.00
H608   H     0.40081   0.84557   0.10886   0.00000  Uiso   1.00
C609   C     0.41091   0.77839   0.12730   0.00000  Uiso   1.00
H610   H     0.40182   0.76142   0.09557   0.00000  Uiso   1.00
H611   H     0.38358   0.77889   0.14994   0.00000  Uiso   1.00
H612   H     0.43610   0.75858   0.14353   0.00000  Uiso   1.00
N613   N     0.42384   0.82075   0.38210   0.00000  Uiso   1.00
H614   H     0.42616   0.79944   0.35488   0.00000  Uiso   1.00
C615   C     0.40107   0.86179   0.37208   0.00000  Uiso   1.00
H616   H     0.41887   0.88311   0.34825   0.00000  Uiso   1.00
H617   H     0.39507   0.88139   0.40315   0.00000  Uiso   1.00
H618   H     0.37062   0.85295   0.35666   0.00000  Uiso   1.00
N619   N     0.57616   0.84419   0.11782   0.00000  Uiso   1.00
H620   H     0.57438   0.86473   0.14566   0.00000  Uiso   1.00
C621   C     0.59816   0.80235   0.12652   0.00000  Uiso   1.00
H622   H     0.58001   0.78071   0.14976   0.00000  Uiso   1.00
H623   H     0.62881   0.81002   0.14211   0.00000  Uiso   1.00
H624   H     0.60372   0.78362   0.09483   0.00000  Uiso   1.00
C625   C     0.75330   0.83333   0.25000   0.00000  Uiso   1.00
C626   C     0.91336   0.83333   0.25001   0.00000  Uiso   1.00
C627   C     0.75778   0.82275   0.02279   0.00000  Uiso   1.00
C628   C     0.90822   0.84725   0.47713   0.00000  Uiso   1.00
C629   C     0.68794   0.79251   0.24370   0.00000  Uiso   1.00
C630   C     0.97871   0.87407   0.25678   0.00000  Uiso   1.00
C631   C     0.97865   0.79253   0.24360   0.00000  Uiso   1.00
C632   C     0.68800   0.87407   0.25677   0.00000  Uiso   1.00
C633   C     0.95751   0.83332   0.25007   0.00000  Uiso   1.00
C634   C     0.70915   0.83330   0.25015   0.00000  Uiso   1.00
C635   C     0.86292   0.69068   0.27325   0.00000  Uiso   1.00
C636   C     0.80372   0.97599   0.22680   0.00000  Uiso   1.00
C637   C     0.80368   0.69060   0.22687   0.00000  Uiso   1.00
C638   C     0.86290   0.97606   0.27327   0.00000  Uiso   1.00
C639   C     0.83329   0.83331   0.16365   0.00000  Uiso   1.00
C640   C     0.83316   0.83335   0.33633   0.00000  Uiso   1.00
C641   C     0.87074   0.84085   0.40630   0.00000  Uiso   1.00
C642   C     0.79537   0.82815   0.09362   0.00000  Uiso   1.00
C643   C     0.83303   0.83338   0.38389   0.00000  Uiso   1.00
C644   C     0.83339   0.83332   0.11606   0.00000  Uiso   1.00
C645   C     0.79514   0.82760   0.40632   0.00000  Uiso   1.00
C646   C     0.87130   0.83890   0.09361   0.00000  Uiso   1.00
C647   C     0.79511   0.82839   0.45298   0.00000  Uiso   1.00
C648   C     0.87111   0.83993   0.04695   0.00000  Uiso   1.00
C649   C     0.83304   0.83485   0.47648   0.00000  Uiso   1.00
C650   C     0.83305   0.83448   0.02345   0.00000  Uiso   1.00
C651   C     0.87097   0.84130   0.45314   0.00000  Uiso   1.00
C652   C     0.79504   0.82859   0.04678   0.00000  Uiso   1.00
C653   C     0.75789   0.82224   0.47657   0.00000  Uiso   1.00
C654   C     0.90825   0.84666   0.02337   0.00000  Uiso   1.00
H655   H     0.72850   0.81684   0.45950   0.00000  Uiso   1.00
H656   H     0.93772   0.85143   0.04047   0.00000  Uiso   1.00
H657   H     0.72818   0.81795   0.03924   0.00000  Uiso   1.00
H658   H     0.93785   0.85185   0.46068   0.00000  Uiso   1.00
H659   H     0.70413   0.76078   0.23839   0.00000  Uiso   1.00
H660   H     0.96251   0.90578   0.26222   0.00000  Uiso   1.00
H661   H     0.96242   0.76082   0.23821   0.00000  Uiso   1.00
H662   H     0.70424   0.90578   0.26219   0.00000  Uiso   1.00
H663   H     0.88656   0.70886   0.29188   0.00000  Uiso   1.00
H664   H     0.78004   0.95782   0.20824   0.00000  Uiso   1.00
H665   H     0.77988   0.70868   0.20849   0.00000  Uiso   1.00
H666   H     0.88653   0.95793   0.29192   0.00000  Uiso   1.00
N667   N     0.83333   0.95240   0.25000   0.00000  Uiso   1.00
N668   N     0.83333   0.71427   0.25000   0.00000  Uiso   1.00
O669   O     0.77226   0.87154   0.24999   0.00000  Uiso   1.00
O670   O     0.89441   0.79513   0.25000   0.00000  Uiso   1.00
O671   O     0.89441   0.87154   0.25000   0.00000  Uiso   1.00
O672   O     0.77226   0.79513   0.24999   0.00000  Uiso   1.00
O673   O     0.83333   0.87156   0.18392   0.00000  Uiso   1.00
O674   O     0.83334   0.79511   0.31607   0.00000  Uiso   1.00
O675   O     0.83334   0.87156   0.31607   0.00000  Uiso   1.00
O676   O     0.83333   0.79511   0.18392   0.00000  Uiso   1.00
Zn677  Zn    0.83333   0.88437   0.25000   0.00000  Uiso   1.00
Zn678  Zn    0.83333   0.78229   0.25000   0.00000  Uiso   1.00
N679   N     0.90770   0.84871   0.38094   0.00000  Uiso   1.00
H680   H     0.92557   0.87569   0.39153   0.00000  Uiso   1.00
C681   C     0.93164   0.80852   0.37075   0.00000  Uiso   1.00
H682   H     0.94359   0.79276   0.40197   0.00000  Uiso   1.00
H683   H     0.95853   0.81776   0.34935   0.00000  Uiso   1.00
H684   H     0.91218   0.78360   0.35228   0.00000  Uiso   1.00
N685   N     0.75785   0.82430   0.11891   0.00000  Uiso   1.00
H686   H     0.73415   0.84557   0.10886   0.00000  Uiso   1.00
C687   C     0.74425   0.77839   0.12730   0.00000  Uiso   1.00
H688   H     0.73515   0.76142   0.09557   0.00000  Uiso   1.00
H689   H     0.71692   0.77889   0.14994   0.00000  Uiso   1.00
H690   H     0.76943   0.75858   0.14353   0.00000  Uiso   1.00
N691   N     0.75717   0.82075   0.38210   0.00000  Uiso   1.00
H692   H     0.75949   0.79944   0.35488   0.00000  Uiso   1.00
C693   C     0.73440   0.86179   0.37208   0.00000  Uiso   1.00
H694   H     0.75220   0.88311   0.34825   0.00000  Uiso   1.00
H695   H     0.72840   0.88139   0.40315   0.00000  Uiso   1.00
H696   H     0.70395   0.85295   0.35666   0.00000  Uiso   1.00
N697   N     0.90949   0.84419   0.11782   0.00000  Uiso   1.00
H698   H     0.90771   0.86473   0.14566   0.00000  Uiso   1.00
C699   C     0.93149   0.80235   0.12652   0.00000  Uiso   1.00
H700   H     0.91334   0.78071   0.14976   0.00000  Uiso   1.00
H701   H     0.96214   0.81002   0.14211   0.00000  Uiso   1.00
H702   H     0.93705   0.78362   0.09483   0.00000  Uiso   1.00
C703   C     0.08663   0.16666   0.75000   0.00000  Uiso   1.00
C704   C     0.24670   0.16667   0.75001   0.00000  Uiso   1.00
C705   C     0.09112   0.15608   0.52279   0.00000  Uiso   1.00
C706   C     0.24155   0.18058   0.97713   0.00000  Uiso   1.00
C707   C     0.02128   0.12584   0.74370   0.00000  Uiso   1.00
C708   C     0.31204   0.20741   0.75678   0.00000  Uiso   1.00
C709   C     0.31199   0.12586   0.74360   0.00000  Uiso   1.00
C710   C     0.02133   0.20741   0.75677   0.00000  Uiso   1.00
C711   C     0.29084   0.16666   0.75007   0.00000  Uiso   1.00
C712   C     0.04248   0.16664   0.75015   0.00000  Uiso   1.00
C713   C     0.19625   0.02401   0.77325   0.00000  Uiso   1.00
C714   C     0.13705   0.30932   0.72680   0.00000  Uiso   1.00
C715   C     0.13702   0.02393   0.72687   0.00000  Uiso   1.00
C716   C     0.19624   0.30939   0.77327   0.00000  Uiso   1.00
C717   C     0.16662   0.16665   0.66365   0.00000  Uiso   1.00
C718   C     0.16649   0.16669   0.83633   0.00000  Uiso   1.00
C719   C     0.20407   0.17419   0.90630   0.00000  Uiso   1.00
C720   C     0.12870   0.16148   0.59362   0.00000  Uiso   1.00
C721   C     0.16636   0.16671   0.88389   0.00000  Uiso   1.00
C722   C     0.16673   0.16665   0.61606   0.00000  Uiso   1.00
C723   C     0.12848   0.16093   0.90632   0.00000  Uiso   1.00
C724   C     0.20464   0.17224   0.59361   0.00000  Uiso   1.00
C725   C     0.12844   0.16173   0.95298   0.00000  Uiso   1.00
C726   C     0.20444   0.17327   0.54695   0.00000  Uiso   1.00
C727   C     0.16637   0.16818   0.97648   0.00000  Uiso   1.00
C728   C     0.16638   0.16781   0.52345   0.00000  Uiso   1.00
C729   C     0.20431   0.17464   0.95314   0.00000  Uiso   1.00
C730   C     0.12837   0.16192   0.54678   0.00000  Uiso   1.00
C731   C     0.09123   0.15557   0.97657   0.00000  Uiso   1.00
C732   C     0.24158   0.17999   0.52337   0.00000  Uiso   1.00
H733   H     0.06183   0.15017   0.95950   0.00000  Uiso   1.00
H734   H     0.27105   0.18476   0.54047   0.00000  Uiso   1.00
H735   H     0.06151   0.15129   0.53924   0.00000  Uiso   1.00
H736   H     0.27118   0.18519   0.96068   0.00000  Uiso   1.00
H737   H     0.03747   0.09411   0.73839   0.00000  Uiso   1.00
H738   H     0.29585   0.23911   0.76222   0.00000  Uiso   1.00
H739   H     0.29575   0.09415   0.73821   0.00000  Uiso   1.00
H740   H     0.03757   0.23911   0.76219   0.00000  Uiso   1.00
H741   H     0.21989   0.04219   0.79188   0.00000  Uiso   1.00
H742   H     0.11337   0.29115   0.70824   0.00000  Uiso   1.00
H743   H     0.11322   0.04201   0.70849   0.00000  Uiso   1.00
H744   H     0.21986   0.29126   0.79192   0.00000  Uiso   1.00
N745   N     0.16667   0.28573   0.75000   0.00000  Uiso   1.00
N746   N     0.16667   0.04760   0.75000   0.00000  Uiso   1.00
O747   O     0.10559   0.20487   0.74999   0.00000  Uiso   1.00
O748   O     0.22774   0.12846   0.75000   0.00000  Uiso   1.00
O749   O     0.22774   0.20487   0.75000   0.00000  Uiso   1.00
O750   O     0.10559   0.12846   0.74999   0.00000  Uiso   1.00
O751   O     0.16666   0.20489   0.68392   0.00000  Uiso   1.00
O752   O     0.16667   0.12844   0.81607   0.00000  Uiso   1.00
O753   O     0.16667   0.20489   0.81607   0.00000  Uiso   1.00
O754   O     0.16666   0.12844   0.68392   0.00000  Uiso   1.00
Zn755  Zn    0.16667   0.21771   0.75000   0.00000  Uiso   1.00
Zn756  Zn    0.16667   0.11563   0.75000   0.00000  Uiso   1.00
N757   N     0.24103   0.18204   0.88094   0.00000  Uiso   1.00
H758   H     0.25890   0.20902   0.89153   0.00000  Uiso   1.00
C759   C     0.26497   0.14186   0.87075   0.00000  Uiso   1.00
H760   H     0.27693   0.12609   0.90197   0.00000  Uiso   1.00
H761   H     0.29186   0.15109   0.84935   0.00000  Uiso   1.00
H762   H     0.24551   0.11694   0.85228   0.00000  Uiso   1.00
N763   N     0.09118   0.15764   0.61891   0.00000  Uiso   1.00
H764   H     0.06748   0.17891   0.60886   0.00000  Uiso   1.00
C765   C     0.07758   0.11172   0.62730   0.00000  Uiso   1.00
H766   H     0.06849   0.09475   0.59557   0.00000  Uiso   1.00
H767   H     0.05025   0.11222   0.64994   0.00000  Uiso   1.00
H768   H     0.10276   0.09191   0.64353   0.00000  Uiso   1.00
N769   N     0.09051   0.15408   0.88210   0.00000  Uiso   1.00
H770   H     0.09282   0.13277   0.85488   0.00000  Uiso   1.00
C771   C     0.06774   0.19513   0.87208   0.00000  Uiso   1.00
H772   H     0.08553   0.21645   0.84825   0.00000  Uiso   1.00
H773   H     0.06173   0.21473   0.90315   0.00000  Uiso   1.00
H774   H     0.03729   0.18629   0.85666   0.00000  Uiso   1.00
N775   N     0.24282   0.17752   0.61782   0.00000  Uiso   1.00
H776   H     0.24104   0.19806   0.64566   0.00000  Uiso   1.00
C777   C     0.26483   0.13569   0.62652   0.00000  Uiso   1.00
H778   H     0.24668   0.11405   0.64976   0.00000  Uiso   1.00
H779   H     0.29548   0.14335   0.64211   0.00000  Uiso   1.00
H780   H     0.27038   0.11696   0.59483   0.00000  Uiso   1.00
C781   C     0.41997   0.16666   0.75000   0.00000  Uiso   1.00
C782   C     0.58003   0.16667   0.75001   0.00000  Uiso   1.00
C783   C     0.42445   0.15608   0.52279   0.00000  Uiso   1.00
C784   C     0.57488   0.18058   0.97713   0.00000  Uiso   1.00
C785   C     0.35461   0.12584   0.74370   0.00000  Uiso   1.00
C786   C     0.64537   0.20741   0.75678   0.00000  Uiso   1.00
C787   C     0.64532   0.12586   0.74360   0.00000  Uiso   1.00
C788   C     0.35467   0.20741   0.75677   0.00000  Uiso   1.00
C789   C     0.62417   0.16666   0.75007   0.00000  Uiso   1.00
C790   C     0.37582   0.16664   0.75015   0.00000  Uiso   1.00
C791   C     0.52958   0.02401   0.77325   0.00000  Uiso   1.00
C792   C     0.47039   0.30932   0.72680   0.00000  Uiso   1.00
C793   C     0.47035   0.02393   0.72687   0.00000  Uiso   1.00
C794   C     0.52957   0.30939   0.77327   0.00000  Uiso   1.00
C795   C     0.49995   0.16665   0.66365   0.00000  Uiso   1.00
C796   C     0.49983   0.16669   0.83633   0.00000  Uiso   1.00
C797   C     0.53740   0.17419   0.90630   0.00000  Uiso   1.00
C798   C     0.46204   0.16148   0.59362   0.00000  Uiso   1.00
C799   C     0.49970   0.16671   0.88389   0.00000  Uiso   1.00
C800   C     0.50006   0.16665   0.61606   0.00000  Uiso   1.00
C801   C     0.46181   0.16093   0.90632   0.00000  Uiso   1.00
C802   C     0.53797   0.17224   0.59361   0.00000  Uiso   1.00
C803   C     0.46177   0.16173   0.95298   0.00000  Uiso   1.00
C804   C     0.53777   0.17327   0.54695   0.00000  Uiso   1.00
C805   C     0.49970   0.16818   0.97648   0.00000  Uiso   1.00
C806   C     0.49972   0.16781   0.52345   0.00000  Uiso   1.00
C807   C     0.53764   0.17464   0.95314   0.00000  Uiso   1.00
C808   C     0.46170   0.16192   0.54678   0.00000  Uiso   1.00
C809   C     0.42456   0.15557   0.97657   0.00000  Uiso   1.00
C810   C     0.57491   0.17999   0.52337   0.00000  Uiso   1.00
H811   H     0.39517   0.15017   0.95950   0.00000  Uiso   1.00
H812   H     0.60438   0.18476   0.54047   0.00000  Uiso   1.00
H813   H     0.39484   0.15129   0.53924   0.00000  Uiso   1.00
H814   H     0.60451   0.18519   0.96068   0.00000  Uiso   1.00
H815   H     0.37080   0.09411   0.73839   0.00000  Uiso   1.00
H816   H     0.62918   0.23911   0.76222   0.00000  Uiso   1.00
H817   H     0.62908   0.09415   0.73821   0.00000  Uiso   1.00
H818   H     0.37091   0.23911   0.76219   0.00000  Uiso   1.00
H819   H     0.55322   0.04219   0.79188   0.00000  Uiso   1.00
H820   H     0.44671   0.29115   0.70824   0.00000  Uiso   1.00
H821   H     0.44655   0.04201   0.70849   0.00000  Uiso   1.00
H822   H     0.55319   0.29126   0.79192   0.00000  Uiso   1.00
N823   N     0.50000   0.28573   0.75000   0.00000  Uiso   1.00
N824   N     0.50000   0.04760   0.75000   0.00000  Uiso   1.00
O825   O     0.43892   0.20487   0.74999   0.00000  Uiso   1.00
O826   O     0.56108   0.12846   0.75000   0.00000  Uiso   1.00
O827   O     0.56108   0.20487   0.75000   0.00000  Uiso   1.00
O828   O     0.43892   0.12846   0.74999   0.00000  Uiso   1.00
O829   O     0.49999   0.20489   0.68392   0.00000  Uiso   1.00
O830   O     0.50001   0.12844   0.81607   0.00000  Uiso   1.00
O831   O     0.50001   0.20489   0.81607   0.00000  Uiso   1.00
O832   O     0.49999   0.12844   0.68392   0.00000  Uiso   1.00
Zn833  Zn    0.50000   0.21771   0.75000   0.00000  Uiso   1.00
Zn834  Zn    0.50000   0.11563   0.75000   0.00000  Uiso   1.00
N835   N     0.57437   0.18204   0.88094   0.00000  Uiso   1.00
H836   H     0.59223   0.20902   0.89153   0.00000  Uiso   1.00
C837   C     0.59830   0.14186   0.87075   0.00000  Uiso   1.00
H838   H     0.61026   0.12609   0.90197   0.00000  Uiso   1.00
H839   H     0.62519   0.15109   0.84935   0.00000  Uiso   1.00
H840   H     0.57884   0.11694   0.85228   0.00000  Uiso   1.00
N841   N     0.42451   0.15764   0.61891   0.00000  Uiso   1.00
H842   H     0.40081   0.17891   0.60886   0.00000  Uiso   1.00
C843   C     0.41091   0.11172   0.62730   0.00000  Uiso   1.00
H844   H     0.40182   0.09475   0.59557   0.00000  Uiso   1.00
H845   H     0.38358   0.11222   0.64994   0.00000  Uiso   1.00
H846   H     0.43610   0.09191   0.64353   0.00000  Uiso   1.00
N847   N     0.42384   0.15408   0.88210   0.00000  Uiso   1.00
H848   H     0.42616   0.13277   0.85488   0.00000  Uiso   1.00
C849   C     0.40107   0.19513   0.87208   0.00000  Uiso   1.00
H850   H     0.41887   0.21645   0.84825   0.00000  Uiso   1.00
H851   H     0.39507   0.21473   0.90315   0.00000  Uiso   1.00
H852   H     0.37062   0.18629   0.85666   0.00000  Uiso   1.00
N853   N     0.57616   0.17752   0.61782   0.00000  Uiso   1.00
H854   H     0.57438   0.19806   0.64566   0.00000  Uiso   1.00
C855   C     0.59816   0.13569   0.62652   0.00000  Uiso   1.00
H856   H     0.58001   0.11405   0.64976   0.00000  Uiso   1.00
H857   H     0.62881   0.14335   0.64211   0.00000  Uiso   1.00
H858   H     0.60372   0.11696   0.59483   0.00000  Uiso   1.00
C859   C     0.75330   0.16666   0.75000   0.00000  Uiso   1.00
C860   C     0.91336   0.16667   0.75001   0.00000  Uiso   1.00
C861   C     0.75778   0.15608   0.52279   0.00000  Uiso   1.00
C862   C     0.90822   0.18058   0.97713   0.00000  Uiso   1.00
C863   C     0.68794   0.12584   0.74370   0.00000  Uiso   1.00
C864   C     0.97871   0.20741   0.75678   0.00000  Uiso   1.00
C865   C     0.97865   0.12586   0.74360   0.00000  Uiso   1.00
C866   C     0.68800   0.20741   0.75677   0.00000  Uiso   1.00
C867   C     0.95751   0.16666   0.75007   0.00000  Uiso   1.00
C868   C     0.70915   0.16664   0.75015   0.00000  Uiso   1.00
C869   C     0.86292   0.02401   0.77325   0.00000  Uiso   1.00
C870   C     0.80372   0.30932   0.72680   0.00000  Uiso   1.00
C871   C     0.80368   0.02393   0.72687   0.00000  Uiso   1.00
C872   C     0.86290   0.30939   0.77327   0.00000  Uiso   1.00
C873   C     0.83329   0.16665   0.66365   0.00000  Uiso   1.00
C874   C     0.83316   0.16669   0.83633   0.00000  Uiso   1.00
C875   C     0.87074   0.17419   0.90630   0.00000  Uiso   1.00
C876   C     0.79537   0.16148   0.59362   0.00000  Uiso   1.00
C877   C     0.83303   0.16671   0.88389   0.00000  Uiso   1.00
C878   C     0.83339   0.16665   0.61606   0.00000  Uiso   1.00
C879   C     0.79514   0.16093   0.90632   0.00000  Uiso   1.00
C880   C     0.87130   0.17224   0.59361   0.00000  Uiso   1.00
C881   C     0.79511   0.16173   0.95298   0.00000  Uiso   1.00
C882   C     0.87111   0.17327   0.54695   0.00000  Uiso   1.00
C883   C     0.83304   0.16818   0.97648   0.00000  Uiso   1.00
C884   C     0.83305   0.16781   0.52345   0.00000  Uiso   1.00
C885   C     0.87097   0.17464   0.95314   0.00000  Uiso   1.00
C886   C     0.79504   0.16192   0.54678   0.00000  Uiso   1.00
C887   C     0.75789   0.15557   0.97657   0.00000  Uiso   1.00
C888   C     0.90825   0.17999   0.52337   0.00000  Uiso   1.00
H889   H     0.72850   0.15017   0.95950   0.00000  Uiso   1.00
H890   H     0.93772   0.18476   0.54047   0.00000  Uiso   1.00
H891   H     0.72818   0.15129   0.53924   0.00000  Uiso   1.00
H892   H     0.93785   0.18519   0.96068   0.00000  Uiso   1.00
H893   H     0.70413   0.09411   0.73839   0.00000  Uiso   1.00
H894   H     0.96251   0.23911   0.76222   0.00000  Uiso   1.00
H895   H     0.96242   0.09415   0.73821   0.00000  Uiso   1.00
H896   H     0.70424   0.23911   0.76219   0.00000  Uiso   1.00
H897   H     0.88656   0.04219   0.79188   0.00000  Uiso   1.00
H898   H     0.78004   0.29115   0.70824   0.00000  Uiso   1.00
H899   H     0.77988   0.04201   0.70849   0.00000  Uiso   1.00
H900   H     0.88653   0.29126   0.79192   0.00000  Uiso   1.00
N901   N     0.83333   0.28573   0.75000   0.00000  Uiso   1.00
N902   N     0.83333   0.04760   0.75000   0.00000  Uiso   1.00
O903   O     0.77226   0.20487   0.74999   0.00000  Uiso   1.00
O904   O     0.89441   0.12846   0.75000   0.00000  Uiso   1.00
O905   O     0.89441   0.20487   0.75000   0.00000  Uiso   1.00
O906   O     0.77226   0.12846   0.74999   0.00000  Uiso   1.00
O907   O     0.83333   0.20489   0.68392   0.00000  Uiso   1.00
O908   O     0.83334   0.12844   0.81607   0.00000  Uiso   1.00
O909   O     0.83334   0.20489   0.81607   0.00000  Uiso   1.00
O910   O     0.83333   0.12844   0.68392   0.00000  Uiso   1.00
Zn911  Zn    0.83333   0.21771   0.75000   0.00000  Uiso   1.00
Zn912  Zn    0.83333   0.11563   0.75000   0.00000  Uiso   1.00
N913   N     0.90770   0.18204   0.88094   0.00000  Uiso   1.00
H914   H     0.92557   0.20902   0.89153   0.00000  Uiso   1.00
C915   C     0.93164   0.14186   0.87075   0.00000  Uiso   1.00
H916   H     0.94359   0.12609   0.90197   0.00000  Uiso   1.00
H917   H     0.95853   0.15109   0.84935   0.00000  Uiso   1.00
H918   H     0.91218   0.11694   0.85228   0.00000  Uiso   1.00
N919   N     0.75785   0.15764   0.61891   0.00000  Uiso   1.00
H920   H     0.73415   0.17891   0.60886   0.00000  Uiso   1.00
C921   C     0.74425   0.11172   0.62730   0.00000  Uiso   1.00
H922   H     0.73515   0.09475   0.59557   0.00000  Uiso   1.00
H923   H     0.71692   0.11222   0.64994   0.00000  Uiso   1.00
H924   H     0.76943   0.09191   0.64353   0.00000  Uiso   1.00
N925   N     0.75717   0.15408   0.88210   0.00000  Uiso   1.00
H926   H     0.75949   0.13277   0.85488   0.00000  Uiso   1.00
C927   C     0.73440   0.19513   0.87208   0.00000  Uiso   1.00
H928   H     0.75220   0.21645   0.84825   0.00000  Uiso   1.00
H929   H     0.72840   0.21473   0.90315   0.00000  Uiso   1.00
H930   H     0.70395   0.18629   0.85666   0.00000  Uiso   1.00
N931   N     0.90949   0.17752   0.61782   0.00000  Uiso   1.00
H932   H     0.90771   0.19806   0.64566   0.00000  Uiso   1.00
C933   C     0.93149   0.13569   0.62652   0.00000  Uiso   1.00
H934   H     0.91334   0.11405   0.64976   0.00000  Uiso   1.00
H935   H     0.96214   0.14335   0.64211   0.00000  Uiso   1.00
H936   H     0.93705   0.11696   0.59483   0.00000  Uiso   1.00
C937   C     0.08663   0.49999   0.75000   0.00000  Uiso   1.00
C938   C     0.24670   0.50000   0.75001   0.00000  Uiso   1.00
C939   C     0.09112   0.48942   0.52279   0.00000  Uiso   1.00
C940   C     0.24155   0.51392   0.97713   0.00000  Uiso   1.00
C941   C     0.02128   0.45918   0.74370   0.00000  Uiso   1.00
C942   C     0.31204   0.54074   0.75678   0.00000  Uiso   1.00
C943   C     0.31199   0.45920   0.74360   0.00000  Uiso   1.00
C944   C     0.02133   0.54074   0.75677   0.00000  Uiso   1.00
C945   C     0.29084   0.49999   0.75007   0.00000  Uiso   1.00
C946   C     0.04248   0.49997   0.75015   0.00000  Uiso   1.00
C947   C     0.19625   0.35734   0.77325   0.00000  Uiso   1.00
C948   C     0.13705   0.64265   0.72680   0.00000  Uiso   1.00
C949   C     0.13702   0.35726   0.72687   0.00000  Uiso   1.00
C950   C     0.19624   0.64272   0.77327   0.00000  Uiso   1.00
C951   C     0.16662   0.49998   0.66365   0.00000  Uiso   1.00
C952   C     0.16649   0.50002   0.83633   0.00000  Uiso   1.00
C953   C     0.20407   0.50752   0.90630   0.00000  Uiso   1.00
C954   C     0.12870   0.49482   0.59362   0.00000  Uiso   1.00
C955   C     0.16636   0.50004   0.88389   0.00000  Uiso   1.00
C956   C     0.16673   0.49999   0.61606   0.00000  Uiso   1.00
C957   C     0.12848   0.49426   0.90632   0.00000  Uiso   1.00
C958   C     0.20464   0.50557   0.59361   0.00000  Uiso   1.00
C959   C     0.12844   0.49506   0.95298   0.00000  Uiso   1.00
C960   C     0.20444   0.50660   0.54695   0.00000  Uiso   1.00
C961   C     0.16637   0.50152   0.97648   0.00000  Uiso   1.00
C962   C     0.16638   0.50115   0.52345   0.00000  Uiso   1.00
C963   C     0.20431   0.50797   0.95314   0.00000  Uiso   1.00
C964   C     0.12837   0.49526   0.54678   0.00000  Uiso   1.00
C965   C     0.09123   0.48891   0.97657   0.00000  Uiso   1.00
C966   C     0.24158   0.51333   0.52337   0.00000  Uiso   1.00
H967   H     0.06183   0.48351   0.95950   0.00000  Uiso   1.00
H968   H     0.27105   0.51810   0.54047   0.00000  Uiso   1.00
H969   H     0.06151   0.48462   0.53924   0.00000  Uiso   1.00
H970   H     0.27118   0.51852   0.96068   0.00000  Uiso   1.00
H971   H     0.03747   0.42744   0.73839   0.00000  Uiso   1.00
H972   H     0.29585   0.57245   0.76222   0.00000  Uiso   1.00
H973   H     0.29575   0.42748   0.73821   0.00000  Uiso   1.00
H974   H     0.03757   0.57245   0.76219   0.00000  Uiso   1.00
H975   H     0.21989   0.37552   0.79188   0.00000  Uiso   1.00
H976   H     0.11337   0.62448   0.70824   0.00000  Uiso   1.00
H977   H     0.11322   0.37534   0.70849   0.00000  Uiso   1.00
H978   H     0.21986   0.62459   0.79192   0.00000  Uiso   1.00
N979   N     0.16667   0.61907   0.75000   0.00000  Uiso   1.00
N980   N     0.16667   0.38093   0.75000   0.00000  Uiso   1.00
O981   O     0.10559   0.53821   0.74999   0.00000  Uiso   1.00
O982   O     0.22774   0.46179   0.75000   0.00000  Uiso   1.00
O983   O     0.22774   0.53821   0.75000   0.00000  Uiso   1.00
O984   O     0.10559   0.46179   0.74999   0.00000  Uiso   1.00
O985   O     0.16666   0.53823   0.68392   0.00000  Uiso   1.00
O986   O     0.16667   0.46177   0.81607   0.00000  Uiso   1.00
O987   O     0.16667   0.53823   0.81607   0.00000  Uiso   1.00
O988   O     0.16666   0.46177   0.68392   0.00000  Uiso   1.00
Zn989  Zn    0.16667   0.55104   0.75000   0.00000  Uiso   1.00
Zn990  Zn    0.16667   0.44896   0.75000   0.00000  Uiso   1.00
N991   N     0.24103   0.51537   0.88094   0.00000  Uiso   1.00
H992   H     0.25890   0.54236   0.89153   0.00000  Uiso   1.00
C993   C     0.26497   0.47519   0.87075   0.00000  Uiso   1.00
H994   H     0.27693   0.45942   0.90197   0.00000  Uiso   1.00
H995   H     0.29186   0.48442   0.84935   0.00000  Uiso   1.00
H996   H     0.24551   0.45027   0.85228   0.00000  Uiso   1.00
N997   N     0.09118   0.49097   0.61891   0.00000  Uiso   1.00
H998   H     0.06748   0.51224   0.60886   0.00000  Uiso   1.00
C999   C     0.07758   0.44506   0.62730   0.00000  Uiso   1.00
H1000  H     0.06849   0.42809   0.59557   0.00000  Uiso   1.00
H1001  H     0.05025   0.44556   0.64994   0.00000  Uiso   1.00
H1002  H     0.10276   0.42525   0.64353   0.00000  Uiso   1.00
N1003  N     0.09051   0.48741   0.88210   0.00000  Uiso   1.00
H1004  H     0.09282   0.46611   0.85488   0.00000  Uiso   1.00
C1005  C     0.06774   0.52846   0.87208   0.00000  Uiso   1.00
H1006  H     0.08553   0.54978   0.84825   0.00000  Uiso   1.00
H1007  H     0.06173   0.54806   0.90315   0.00000  Uiso   1.00
H1008  H     0.03729   0.51962   0.85666   0.00000  Uiso   1.00
N1009  N     0.24282   0.51085   0.61782   0.00000  Uiso   1.00
H1010  H     0.24104   0.53140   0.64566   0.00000  Uiso   1.00
C1011  C     0.26483   0.46902   0.62652   0.00000  Uiso   1.00
H1012  H     0.24668   0.44738   0.64976   0.00000  Uiso   1.00
H1013  H     0.29548   0.47669   0.64211   0.00000  Uiso   1.00
H1014  H     0.27038   0.45029   0.59483   0.00000  Uiso   1.00
C1015  C     0.41997   0.49999   0.75000   0.00000  Uiso   1.00
C1016  C     0.58003   0.50000   0.75001   0.00000  Uiso   1.00
C1017  C     0.42445   0.48942   0.52279   0.00000  Uiso   1.00
C1018  C     0.57488   0.51392   0.97713   0.00000  Uiso   1.00
C1019  C     0.35461   0.45918   0.74370   0.00000  Uiso   1.00
C1020  C     0.64537   0.54074   0.75678   0.00000  Uiso   1.00
C1021  C     0.64532   0.45920   0.74360   0.00000  Uiso   1.00
C1022  C     0.35467   0.54074   0.75677   0.00000  Uiso   1.00
C1023  C     0.62417   0.49999   0.75007   0.00000  Uiso   1.00
C1024  C     0.37582   0.49997   0.75015   0.00000  Uiso   1.00
C1025  C     0.52958   0.35734   0.77325   0.00000  Uiso   1.00
C1026  C     0.47039   0.64265   0.72680   0.00000  Uiso   1.00
C1027  C     0.47035   0.35726   0.72687   0.00000  Uiso   1.00
C1028  C     0.52957   0.64272   0.77327   0.00000  Uiso   1.00
C1029  C     0.49995   0.49998   0.66365   0.00000  Uiso   1.00
C1030  C     0.49983   0.50002   0.83633   0.00000  Uiso   1.00
C1031  C     0.53740   0.50752   0.90630   0.00000  Uiso   1.00
C1032  C     0.46204   0.49482   0.59362   0.00000  Uiso   1.00
C1033  C     0.49970   0.50004   0.88389   0.00000  Uiso   1.00
C1034  C     0.50006   0.49999   0.61606   0.00000  Uiso   1.00
C1035  C     0.46181   0.49426   0.90632   0.00000  Uiso   1.00
C1036  C     0.53797   0.50557   0.59361   0.00000  Uiso   1.00
C1037  C     0.46177   0.49506   0.95298   0.00000  Uiso   1.00
C1038  C     0.53777   0.50660   0.54695   0.00000  Uiso   1.00
C1039  C     0.49970   0.50152   0.97648   0.00000  Uiso   1.00
C1040  C     0.49972   0.50115   0.52345   0.00000  Uiso   1.00
C1041  C     0.53764   0.50797   0.95314   0.00000  Uiso   1.00
C1042  C     0.46170   0.49526   0.54678   0.00000  Uiso   1.00
C1043  C     0.42456   0.48891   0.97657   0.00000  Uiso   1.00
C1044  C     0.57491   0.51333   0.52337   0.00000  Uiso   1.00
H1045  H     0.39517   0.48351   0.95950   0.00000  Uiso   1.00
H1046  H     0.60438   0.51810   0.54047   0.00000  Uiso   1.00
H1047  H     0.39484   0.48462   0.53924   0.00000  Uiso   1.00
H1048  H     0.60451   0.51852   0.96068   0.00000  Uiso   1.00
H1049  H     0.37080   0.42744   0.73839   0.00000  Uiso   1.00
H1050  H     0.62918   0.57245   0.76222   0.00000  Uiso   1.00
H1051  H     0.62908   0.42748   0.73821   0.00000  Uiso   1.00
H1052  H     0.37091   0.57245   0.76219   0.00000  Uiso   1.00
H1053  H     0.55322   0.37552   0.79188   0.00000  Uiso   1.00
H1054  H     0.44671   0.62448   0.70824   0.00000  Uiso   1.00
H1055  H     0.44655   0.37534   0.70849   0.00000  Uiso   1.00
H1056  H     0.55319   0.62459   0.79192   0.00000  Uiso   1.00
N1057  N     0.50000   0.61907   0.75000   0.00000  Uiso   1.00
N1058  N     0.50000   0.38093   0.75000   0.00000  Uiso   1.00
O1059  O     0.43892   0.53821   0.74999   0.00000  Uiso   1.00
O1060  O     0.56108   0.46179   0.75000   0.00000  Uiso   1.00
O1061  O     0.56108   0.53821   0.75000   0.00000  Uiso   1.00
O1062  O     0.43892   0.46179   0.74999   0.00000  Uiso   1.00
O1063  O     0.49999   0.53823   0.68392   0.00000  Uiso   1.00
O1064  O     0.50001   0.46177   0.81607   0.00000  Uiso   1.00
O1065  O     0.50001   0.53823   0.81607   0.00000  Uiso   1.00
O1066  O     0.49999   0.46177   0.68392   0.00000  Uiso   1.00
Zn1067 Zn    0.50000   0.55104   0.75000   0.00000  Uiso   1.00
Zn1068 Zn    0.50000   0.44896   0.75000   0.00000  Uiso   1.00
N1069  N     0.57437   0.51537   0.88094   0.00000  Uiso   1.00
H1070  H     0.59223   0.54236   0.89153   0.00000  Uiso   1.00
C1071  C     0.59830   0.47519   0.87075   0.00000  Uiso   1.00
H1072  H     0.61026   0.45942   0.90197   0.00000  Uiso   1.00
H1073  H     0.62519   0.48442   0.84935   0.00000  Uiso   1.00
H1074  H     0.57884   0.45027   0.85228   0.00000  Uiso   1.00
N1075  N     0.42451   0.49097   0.61891   0.00000  Uiso   1.00
H1076  H     0.40081   0.51224   0.60886   0.00000  Uiso   1.00
C1077  C     0.41091   0.44506   0.62730   0.00000  Uiso   1.00
H1078  H     0.40182   0.42809   0.59557   0.00000  Uiso   1.00
H1079  H     0.38358   0.44556   0.64994   0.00000  Uiso   1.00
H1080  H     0.43610   0.42525   0.64353   0.00000  Uiso   1.00
N1081  N     0.42384   0.48741   0.88210   0.00000  Uiso   1.00
H1082  H     0.42616   0.46611   0.85488   0.00000  Uiso   1.00
C1083  C     0.40107   0.52846   0.87208   0.00000  Uiso   1.00
H1084  H     0.41887   0.54978   0.84825   0.00000  Uiso   1.00
H1085  H     0.39507   0.54806   0.90315   0.00000  Uiso   1.00
H1086  H     0.37062   0.51962   0.85666   0.00000  Uiso   1.00
N1087  N     0.57616   0.51085   0.61782   0.00000  Uiso   1.00
H1088  H     0.57438   0.53140   0.64566   0.00000  Uiso   1.00
C1089  C     0.59816   0.46902   0.62652   0.00000  Uiso   1.00
H1090  H     0.58001   0.44738   0.64976   0.00000  Uiso   1.00
H1091  H     0.62881   0.47669   0.64211   0.00000  Uiso   1.00
H1092  H     0.60372   0.45029   0.59483   0.00000  Uiso   1.00
C1093  C     0.75330   0.49999   0.75000   0.00000  Uiso   1.00
C1094  C     0.91336   0.50000   0.75001   0.00000  Uiso   1.00
C1095  C     0.75778   0.48942   0.52279   0.00000  Uiso   1.00
C1096  C     0.90822   0.51392   0.97713   0.00000  Uiso   1.00
C1097  C     0.68794   0.45918   0.74370   0.00000  Uiso   1.00
C1098  C     0.97871   0.54074   0.75678   0.00000  Uiso   1.00
C1099  C     0.97865   0.45920   0.74360   0.00000  Uiso   1.00
C1100  C     0.68800   0.54074   0.75677   0.00000  Uiso   1.00
C1101  C     0.95751   0.49999   0.75007   0.00000  Uiso   1.00
C1102  C     0.70915   0.49997   0.75015   0.00000  Uiso   1.00
C1103  C     0.86292   0.35734   0.77325   0.00000  Uiso   1.00
C1104  C     0.80372   0.64265   0.72680   0.00000  Uiso   1.00
C1105  C     0.80368   0.35726   0.72687   0.00000  Uiso   1.00
C1106  C     0.86290   0.64272   0.77327   0.00000  Uiso   1.00
C1107  C     0.83329   0.49998   0.66365   0.00000  Uiso   1.00
C1108  C     0.83316   0.50002   0.83633   0.00000  Uiso   1.00
C1109  C     0.87074   0.50752   0.90630   0.00000  Uiso   1.00
C1110  C     0.79537   0.49482   0.59362   0.00000  Uiso   1.00
C1111  C     0.83303   0.50004   0.88389   0.00000  Uiso   1.00
C1112  C     0.83339   0.49999   0.61606   0.00000  Uiso   1.00
C1113  C     0.79514   0.49426   0.90632   0.00000  Uiso   1.00
C1114  C     0.87130   0.50557   0.59361   0.00000  Uiso   1.00
C1115  C     0.79511   0.49506   0.95298   0.00000  Uiso   1.00
C1116  C     0.87111   0.50660   0.54695   0.00000  Uiso   1.00
C1117  C     0.83304   0.50152   0.97648   0.00000  Uiso   1.00
C1118  C     0.83305   0.50115   0.52345   0.00000  Uiso   1.00
C1119  C     0.87097   0.50797   0.95314   0.00000  Uiso   1.00
C1120  C     0.79504   0.49526   0.54678   0.00000  Uiso   1.00
C1121  C     0.75789   0.48891   0.97657   0.00000  Uiso   1.00
C1122  C     0.90825   0.51333   0.52337   0.00000  Uiso   1.00
H1123  H     0.72850   0.48351   0.95950   0.00000  Uiso   1.00
H1124  H     0.93772   0.51810   0.54047   0.00000  Uiso   1.00
H1125  H     0.72818   0.48462   0.53924   0.00000  Uiso   1.00
H1126  H     0.93785   0.51852   0.96068   0.00000  Uiso   1.00
H1127  H     0.70413   0.42744   0.73839   0.00000  Uiso   1.00
H1128  H     0.96251   0.57245   0.76222   0.00000  Uiso   1.00
H1129  H     0.96242   0.42748   0.73821   0.00000  Uiso   1.00
H1130  H     0.70424   0.57245   0.76219   0.00000  Uiso   1.00
H1131  H     0.88656   0.37552   0.79188   0.00000  Uiso   1.00
H1132  H     0.78004   0.62448   0.70824   0.00000  Uiso   1.00
H1133  H     0.77988   0.37534   0.70849   0.00000  Uiso   1.00
H1134  H     0.88653   0.62459   0.79192   0.00000  Uiso   1.00
N1135  N     0.83333   0.61907   0.75000   0.00000  Uiso   1.00
N1136  N     0.83333   0.38093   0.75000   0.00000  Uiso   1.00
O1137  O     0.77226   0.53821   0.74999   0.00000  Uiso   1.00
O1138  O     0.89441   0.46179   0.75000   0.00000  Uiso   1.00
O1139  O     0.89441   0.53821   0.75000   0.00000  Uiso   1.00
O1140  O     0.77226   0.46179   0.74999   0.00000  Uiso   1.00
O1141  O     0.83333   0.53823   0.68392   0.00000  Uiso   1.00
O1142  O     0.83334   0.46177   0.81607   0.00000  Uiso   1.00
O1143  O     0.83334   0.53823   0.81607   0.00000  Uiso   1.00
O1144  O     0.83333   0.46177   0.68392   0.00000  Uiso   1.00
Zn1145 Zn    0.83333   0.55104   0.75000   0.00000  Uiso   1.00
Zn1146 Zn    0.83333   0.44896   0.75000   0.00000  Uiso   1.00
N1147  N     0.90770   0.51537   0.88094   0.00000  Uiso   1.00
H1148  H     0.92557   0.54236   0.89153   0.00000  Uiso   1.00
C1149  C     0.93164   0.47519   0.87075   0.00000  Uiso   1.00
H1150  H     0.94359   0.45942   0.90197   0.00000  Uiso   1.00
H1151  H     0.95853   0.48442   0.84935   0.00000  Uiso   1.00
H1152  H     0.91218   0.45027   0.85228   0.00000  Uiso   1.00
N1153  N     0.75785   0.49097   0.61891   0.00000  Uiso   1.00
H1154  H     0.73415   0.51224   0.60886   0.00000  Uiso   1.00
C1155  C     0.74425   0.44506   0.62730   0.00000  Uiso   1.00
H1156  H     0.73515   0.42809   0.59557   0.00000  Uiso   1.00
H1157  H     0.71692   0.44556   0.64994   0.00000  Uiso   1.00
H1158  H     0.76943   0.42525   0.64353   0.00000  Uiso   1.00
N1159  N     0.75717   0.48741   0.88210   0.00000  Uiso   1.00
H1160  H     0.75949   0.46611   0.85488   0.00000  Uiso   1.00
C1161  C     0.73440   0.52846   0.87208   0.00000  Uiso   1.00
H1162  H     0.75220   0.54978   0.84825   0.00000  Uiso   1.00
H1163  H     0.72840   0.54806   0.90315   0.00000  Uiso   1.00
H1164  H     0.70395   0.51962   0.85666   0.00000  Uiso   1.00
N1165  N     0.90949   0.51085   0.61782   0.00000  Uiso   1.00
H1166  H     0.90771   0.53140   0.64566   0.00000  Uiso   1.00
C1167  C     0.93149   0.46902   0.62652   0.00000  Uiso   1.00
H1168  H     0.91334   0.44738   0.64976   0.00000  Uiso   1.00
H1169  H     0.96214   0.47669   0.64211   0.00000  Uiso   1.00
H1170  H     0.93705   0.45029   0.59483   0.00000  Uiso   1.00
C1171  C     0.08663   0.83333   0.75000   0.00000  Uiso   1.00
C1172  C     0.24670   0.83333   0.75001   0.00000  Uiso   1.00
C1173  C     0.09112   0.82275   0.52279   0.00000  Uiso   1.00
C1174  C     0.24155   0.84725   0.97713   0.00000  Uiso   1.00
C1175  C     0.02128   0.79251   0.74370   0.00000  Uiso   1.00
C1176  C     0.31204   0.87407   0.75678   0.00000  Uiso   1.00
C1177  C     0.31199   0.79253   0.74360   0.00000  Uiso   1.00
C1178  C     0.02133   0.87407   0.75677   0.00000  Uiso   1.00
C1179  C     0.29084   0.83332   0.75007   0.00000  Uiso   1.00
C1180  C     0.04248   0.83330   0.75015   0.00000  Uiso   1.00
C1181  C     0.19625   0.69068   0.77325   0.00000  Uiso   1.00
C1182  C     0.13705   0.97599   0.72680   0.00000  Uiso   1.00
C1183  C     0.13702   0.69060   0.72687   0.00000  Uiso   1.00
C1184  C     0.19624   0.97606   0.77327   0.00000  Uiso   1.00
C1185  C     0.16662   0.83331   0.66365   0.00000  Uiso   1.00
C1186  C     0.16649   0.83335   0.83633   0.00000  Uiso   1.00
C1187  C     0.20407   0.84085   0.90630   0.00000  Uiso   1.00
C1188  C     0.12870   0.82815   0.59362   0.00000  Uiso   1.00
C1189  C     0.16636   0.83338   0.88389   0.00000  Uiso   1.00
C1190  C     0.16673   0.83332   0.61606   0.00000  Uiso   1.00
C1191  C     0.12848   0.82760   0.90632   0.00000  Uiso   1.00
C1192  C     0.20464   0.83890   0.59361   0.00000  Uiso   1.00
C1193  C     0.12844   0.82839   0.95298   0.00000  Uiso   1.00
C1194  C     0.20444   0.83993   0.54695   0.00000  Uiso   1.00
C1195  C     0.16637   0.83485   0.97648   0.00000  Uiso   1.00
C1196  C     0.16638   0.83448   0.52345   0.00000  Uiso   1.00
C1197  C     0.20431   0.84130   0.95314   0.00000  Uiso   1.00
C1198  C     0.12837   0.82859   0.54678   0.00000  Uiso   1.00
C1199  C     0.09123   0.82224   0.97657   0.00000  Uiso   1.00
C1200  C     0.24158   0.84666   0.52337   0.00000  Uiso   1.00
H1201  H     0.06183   0.81684   0.95950   0.00000  Uiso   1.00
H1202  H     0.27105   0.85143   0.54047   0.00000  Uiso   1.00
H1203  H     0.06151   0.81795   0.53924   0.00000  Uiso   1.00
H1204  H     0.27118   0.85185   0.96068   0.00000  Uiso   1.00
H1205  H     0.03747   0.76078   0.73839   0.00000  Uiso   1.00
H1206  H     0.29585   0.90578   0.76222   0.00000  Uiso   1.00
H1207  H     0.29575   0.76082   0.73821   0.00000  Uiso   1.00
H1208  H     0.03757   0.90578   0.76219   0.00000  Uiso   1.00
H1209  H     0.21989   0.70886   0.79188   0.00000  Uiso   1.00
H1210  H     0.11337   0.95782   0.70824   0.00000  Uiso   1.00
H1211  H     0.11322   0.70868   0.70849   0.00000  Uiso   1.00
H1212  H     0.21986   0.95793   0.79192   0.00000  Uiso   1.00
N1213  N     0.16667   0.95240   0.75000   0.00000  Uiso   1.00
N1214  N     0.16667   0.71427   0.75000   0.00000  Uiso   1.00
O1215  O     0.10559   0.87154   0.74999   0.00000  Uiso   1.00
O1216  O     0.22774   0.79513   0.75000   0.00000  Uiso   1.00
O1217  O     0.22774   0.87154   0.75000   0.00000  Uiso   1.00
O1218  O     0.10559   0.79513   0.74999   0.00000  Uiso   1.00
O1219  O     0.16666   0.87156   0.68392   0.00000  Uiso   1.00
O1220  O     0.16667   0.79511   0.81607   0.00000  Uiso   1.00
O1221  O     0.16667   0.87156   0.81607   0.00000  Uiso   1.00
O1222  O     0.16666   0.79511   0.68392   0.00000  Uiso   1.00
Zn1223 Zn    0.16667   0.88437   0.75000   0.00000  Uiso   1.00
Zn1224 Zn    0.16667   0.78229   0.75000   0.00000  Uiso   1.00
N1225  N     0.24103   0.84871   0.88094   0.00000  Uiso   1.00
H1226  H     0.25890   0.87569   0.89153   0.00000  Uiso   1.00
C1227  C     0.26497   0.80852   0.87075   0.00000  Uiso   1.00
H1228  H     0.27693   0.79276   0.90197   0.00000  Uiso   1.00
H1229  H     0.29186   0.81776   0.84935   0.00000  Uiso   1.00
H1230  H     0.24551   0.78360   0.85228   0.00000  Uiso   1.00
N1231  N     0.09118   0.82430   0.61891   0.00000  Uiso   1.00
H1232  H     0.06748   0.84557   0.60886   0.00000  Uiso   1.00
C1233  C     0.07758   0.77839   0.62730   0.00000  Uiso   1.00
H1234  H     0.06849   0.76142   0.59557   0.00000  Uiso   1.00
H1235  H     0.05025   0.77889   0.64994   0.00000  Uiso   1.00
H1236  H     0.10276   0.75858   0.64353   0.00000  Uiso   1.00
N1237  N     0.09051   0.82075   0.88210   0.00000  Uiso   1.00
H1238  H     0.09282   0.79944   0.85488   0.00000  Uiso   1.00
C1239  C     0.06774   0.86179   0.87208   0.00000  Uiso   1.00
H1240  H     0.08553   0.88311   0.84825   0.00000  Uiso   1.00
H1241  H     0.06173   0.88139   0.90315   0.00000  Uiso   1.00
H1242  H     0.03729   0.85295   0.85666   0.00000  Uiso   1.00
N1243  N     0.24282   0.84419   0.61782   0.00000  Uiso   1.00
H1244  H     0.24104   0.86473   0.64566   0.00000  Uiso   1.00
C1245  C     0.26483   0.80235   0.62652   0.00000  Uiso   1.00
H1246  H     0.24668   0.78071   0.64976   0.00000  Uiso   1.00
H1247  H     0.29548   0.81002   0.64211   0.00000  Uiso   1.00
H1248  H     0.27038   0.78362   0.59483   0.00000  Uiso   1.00
C1249  C     0.41997   0.83333   0.75000   0.00000  Uiso   1.00
C1250  C     0.58003   0.83333   0.75001   0.00000  Uiso   1.00
C1251  C     0.42445   0.82275   0.52279   0.00000  Uiso   1.00
C1252  C     0.57488   0.84725   0.97713   0.00000  Uiso   1.00
C1253  C     0.35461   0.79251   0.74370   0.00000  Uiso   1.00
C1254  C     0.64537   0.87407   0.75678   0.00000  Uiso   1.00
C1255  C     0.64532   0.79253   0.74360   0.00000  Uiso   1.00
C1256  C     0.35467   0.87407   0.75677   0.00000  Uiso   1.00
C1257  C     0.62417   0.83332   0.75007   0.00000  Uiso   1.00
C1258  C     0.37582   0.83330   0.75015   0.00000  Uiso   1.00
C1259  C     0.52958   0.69068   0.77325   0.00000  Uiso   1.00
C1260  C     0.47039   0.97599   0.72680   0.00000  Uiso   1.00
C1261  C     0.47035   0.69060   0.72687   0.00000  Uiso   1.00
C1262  C     0.52957   0.97606   0.77327   0.00000  Uiso   1.00
C1263  C     0.49995   0.83331   0.66365   0.00000  Uiso   1.00
C1264  C     0.49983   0.83335   0.83633   0.00000  Uiso   1.00
C1265  C     0.53740   0.84085   0.90630   0.00000  Uiso   1.00
C1266  C     0.46204   0.82815   0.59362   0.00000  Uiso   1.00
C1267  C     0.49970   0.83338   0.88389   0.00000  Uiso   1.00
C1268  C     0.50006   0.83332   0.61606   0.00000  Uiso   1.00
C1269  C     0.46181   0.82760   0.90632   0.00000  Uiso   1.00
C1270  C     0.53797   0.83890   0.59361   0.00000  Uiso   1.00
C1271  C     0.46177   0.82839   0.95298   0.00000  Uiso   1.00
C1272  C     0.53777   0.83993   0.54695   0.00000  Uiso   1.00
C1273  C     0.49970   0.83485   0.97648   0.00000  Uiso   1.00
C1274  C     0.49972   0.83448   0.52345   0.00000  Uiso   1.00
C1275  C     0.53764   0.84130   0.95314   0.00000  Uiso   1.00
C1276  C     0.46170   0.82859   0.54678   0.00000  Uiso   1.00
C1277  C     0.42456   0.82224   0.97657   0.00000  Uiso   1.00
C1278  C     0.57491   0.84666   0.52337   0.00000  Uiso   1.00
H1279  H     0.39517   0.81684   0.95950   0.00000  Uiso   1.00
H1280  H     0.60438   0.85143   0.54047   0.00000  Uiso   1.00
H1281  H     0.39484   0.81795   0.53924   0.00000  Uiso   1.00
H1282  H     0.60451   0.85185   0.96068   0.00000  Uiso   1.00
H1283  H     0.37080   0.76078   0.73839   0.00000  Uiso   1.00
H1284  H     0.62918   0.90578   0.76222   0.00000  Uiso   1.00
H1285  H     0.62908   0.76082   0.73821   0.00000  Uiso   1.00
H1286  H     0.37091   0.90578   0.76219   0.00000  Uiso   1.00
H1287  H     0.55322   0.70886   0.79188   0.00000  Uiso   1.00
H1288  H     0.44671   0.95782   0.70824   0.00000  Uiso   1.00
H1289  H     0.44655   0.70868   0.70849   0.00000  Uiso   1.00
H1290  H     0.55319   0.95793   0.79192   0.00000  Uiso   1.00
N1291  N     0.50000   0.95240   0.75000   0.00000  Uiso   1.00
N1292  N     0.50000   0.71427   0.75000   0.00000  Uiso   1.00
O1293  O     0.43892   0.87154   0.74999   0.00000  Uiso   1.00
O1294  O     0.56108   0.79513   0.75000   0.00000  Uiso   1.00
O1295  O     0.56108   0.87154   0.75000   0.00000  Uiso   1.00
O1296  O     0.43892   0.79513   0.74999   0.00000  Uiso   1.00
O1297  O     0.49999   0.87156   0.68392   0.00000  Uiso   1.00
O1298  O     0.50001   0.79511   0.81607   0.00000  Uiso   1.00
O1299  O     0.50001   0.87156   0.81607   0.00000  Uiso   1.00
O1300  O     0.49999   0.79511   0.68392   0.00000  Uiso   1.00
Zn1301 Zn    0.50000   0.88437   0.75000   0.00000  Uiso   1.00
Zn1302 Zn    0.50000   0.78229   0.75000   0.00000  Uiso   1.00
N1303  N     0.57437   0.84871   0.88094   0.00000  Uiso   1.00
H1304  H     0.59223   0.87569   0.89153   0.00000  Uiso   1.00
C1305  C     0.59830   0.80852   0.87075   0.00000  Uiso   1.00
H1306  H     0.61026   0.79276   0.90197   0.00000  Uiso   1.00
H1307  H     0.62519   0.81776   0.84935   0.00000  Uiso   1.00
H1308  H     0.57884   0.78360   0.85228   0.00000  Uiso   1.00
N1309  N     0.42451   0.82430   0.61891   0.00000  Uiso   1.00
H1310  H     0.40081   0.84557   0.60886   0.00000  Uiso   1.00
C1311  C     0.41091   0.77839   0.62730   0.00000  Uiso   1.00
H1312  H     0.40182   0.76142   0.59557   0.00000  Uiso   1.00
H1313  H     0.38358   0.77889   0.64994   0.00000  Uiso   1.00
H1314  H     0.43610   0.75858   0.64353   0.00000  Uiso   1.00
N1315  N     0.42384   0.82075   0.88210   0.00000  Uiso   1.00
H1316  H     0.42616   0.79944   0.85488   0.00000  Uiso   1.00
C1317  C     0.40107   0.86179   0.87208   0.00000  Uiso   1.00
H1318  H     0.41887   0.88311   0.84825   0.00000  Uiso   1.00
H1319  H     0.39507   0.88139   0.90315   0.00000  Uiso   1.00
H1320  H     0.37062   0.85295   0.85666   0.00000  Uiso   1.00
N1321  N     0.57616   0.84419   0.61782   0.00000  Uiso   1.00
H1322  H     0.57438   0.86473   0.64566   0.00000  Uiso   1.00
C1323  C     0.59816   0.80235   0.62652   0.00000  Uiso   1.00
H1324  H     0.58001   0.78071   0.64976   0.00000  Uiso   1.00
H1325  H     0.62881   0.81002   0.64211   0.00000  Uiso   1.00
H1326  H     0.60372   0.78362   0.59483   0.00000  Uiso   1.00
C1327  C     0.75330   0.83333   0.75000   0.00000  Uiso   1.00
C1328  C     0.91336   0.83333   0.75001   0.00000  Uiso   1.00
C1329  C     0.75778   0.82275   0.52279   0.00000  Uiso   1.00
C1330  C     0.90822   0.84725   0.97713   0.00000  Uiso   1.00
C1331  C     0.68794   0.79251   0.74370   0.00000  Uiso   1.00
C1332  C     0.97871   0.87407   0.75678   0.00000  Uiso   1.00
C1333  C     0.97865   0.79253   0.74360   0.00000  Uiso   1.00
C1334  C     0.68800   0.87407   0.75677   0.00000  Uiso   1.00
C1335  C     0.95751   0.83332   0.75007   0.00000  Uiso   1.00
C1336  C     0.70915   0.83330   0.75015   0.00000  Uiso   1.00
C1337  C     0.86292   0.69068   0.77325   0.00000  Uiso   1.00
C1338  C     0.80372   0.97599   0.72680   0.00000  Uiso   1.00
C1339  C     0.80368   0.69060   0.72687   0.00000  Uiso   1.00
C1340  C     0.86290   0.97606   0.77327   0.00000  Uiso   1.00
C1341  C     0.83329   0.83331   0.66365   0.00000  Uiso   1.00
C1342  C     0.83316   0.83335   0.83633   0.00000  Uiso   1.00
C1343  C     0.87074   0.84085   0.90630   0.00000  Uiso   1.00
C1344  C     0.79537   0.82815   0.59362   0.00000  Uiso   1.00
C1345  C     0.83303   0.83338   0.88389   0.00000  Uiso   1.00
C1346  C     0.83339   0.83332   0.61606   0.00000  Uiso   1.00
C1347  C     0.79514   0.82760   0.90632   0.00000  Uiso   1.00
C1348  C     0.87130   0.83890   0.59361   0.00000  Uiso   1.00
C1349  C     0.79511   0.82839   0.95298   0.00000  Uiso   1.00
C1350  C     0.87111   0.83993   0.54695   0.00000  Uiso   1.00
C1351  C     0.83304   0.83485   0.97648   0.00000  Uiso   1.00
C1352  C     0.83305   0.83448   0.52345   0.00000  Uiso   1.00
C1353  C     0.87097   0.84130   0.95314   0.00000  Uiso   1.00
C1354  C     0.79504   0.82859   0.54678   0.00000  Uiso   1.00
C1355  C     0.75789   0.82224   0.97657   0.00000  Uiso   1.00
C1356  C     0.90825   0.84666   0.52337   0.00000  Uiso   1.00
H1357  H     0.72850   0.81684   0.95950   0.00000  Uiso   1.00
H1358  H     0.93772   0.85143   0.54047   0.00000  Uiso   1.00
H1359  H     0.72818   0.81795   0.53924   0.00000  Uiso   1.00
H1360  H     0.93785   0.85185   0.96068   0.00000  Uiso   1.00
H1361  H     0.70413   0.76078   0.73839   0.00000  Uiso   1.00
H1362  H     0.96251   0.90578   0.76222   0.00000  Uiso   1.00
H1363  H     0.96242   0.76082   0.73821   0.00000  Uiso   1.00
H1364  H     0.70424   0.90578   0.76219   0.00000  Uiso   1.00
H1365  H     0.88656   0.70886   0.79188   0.00000  Uiso   1.00
H1366  H     0.78004   0.95782   0.70824   0.00000  Uiso   1.00
H1367  H     0.77988   0.70868   0.70849   0.00000  Uiso   1.00
H1368  H     0.88653   0.95793   0.79192   0.00000  Uiso   1.00
N1369  N     0.83333   0.95240   0.75000   0.00000  Uiso   1.00
N1370  N     0.83333   0.71427   0.75000   0.00000  Uiso   1.00
O1371  O     0.77226   0.87154   0.74999   0.00000  Uiso   1.00
O1372  O     0.89441   0.79513   0.75000   0.00000  Uiso   1.00
O1373  O     0.89441   0.87154   0.75000   0.00000  Uiso   1.00
O1374  O     0.77226   0.79513   0.74999   0.00000  Uiso   1.00
O1375  O     0.83333   0.87156   0.68392   0.00000  Uiso   1.00
O1376  O     0.83334   0.79511   0.81607   0.00000  Uiso   1.00
O1377  O     0.83334   0.87156   0.81607   0.00000  Uiso   1.00
O1378  O     0.83333   0.79511   0.68392   0.00000  Uiso   1.00
Zn1379 Zn    0.83333   0.88437   0.75000   0.00000  Uiso   1.00
Zn1380 Zn    0.83333   0.78229   0.75000   0.00000  Uiso   1.00
N1381  N     0.90770   0.84871   0.88094   0.00000  Uiso   1.00
H1382  H     0.92557   0.87569   0.89153   0.00000  Uiso   1.00
C1383  C     0.93164   0.80852   0.87075   0.00000  Uiso   1.00
H1384  H     0.94359   0.79276   0.90197   0.00000  Uiso   1.00
H1385  H     0.95853   0.81776   0.84935   0.00000  Uiso   1.00
H1386  H     0.91218   0.78360   0.85228   0.00000  Uiso   1.00
N1387  N     0.75785   0.82430   0.61891   0.00000  Uiso   1.00
H1388  H     0.73415   0.84557   0.60886   0.00000  Uiso   1.00
C1389  C     0.74425   0.77839   0.62730   0.00000  Uiso   1.00
H1390  H     0.73515   0.76142   0.59557   0.00000  Uiso   1.00
H1391  H     0.71692   0.77889   0.64994   0.00000  Uiso   1.00
H1392  H     0.76943   0.75858   0.64353   0.00000  Uiso   1.00
N1393  N     0.75717   0.82075   0.88210   0.00000  Uiso   1.00
H1394  H     0.75949   0.79944   0.85488   0.00000  Uiso   1.00
C1395  C     0.73440   0.86179   0.87208   0.00000  Uiso   1.00
H1396  H     0.75220   0.88311   0.84825   0.00000  Uiso   1.00
H1397  H     0.72840   0.88139   0.90315   0.00000  Uiso   1.00
H1398  H     0.70395   0.85295   0.85666   0.00000  Uiso   1.00
N1399  N     0.90949   0.84419   0.61782   0.00000  Uiso   1.00
H1400  H     0.90771   0.86473   0.64566   0.00000  Uiso   1.00
C1401  C     0.93149   0.80235   0.62652   0.00000  Uiso   1.00
H1402  H     0.91334   0.78071   0.64976   0.00000  Uiso   1.00
H1403  H     0.96214   0.81002   0.64211   0.00000  Uiso   1.00
H1404  H     0.93705   0.78362   0.59483   0.00000  Uiso   1.00
loop_
_geom_bond_atom_site_label_1
_geom_bond_atom_site_label_2
_geom_bond_distance
_geom_bond_site_symmetry_2
_ccdc_geom_bond_type
C1     O48     1.282   .     A
C1     C10     1.417   .     S
C1     O45     1.282   .     A
C2     O46     1.282   .     A
C2     O47     1.282   .     A
C2     C9      1.417   .     S
C3     C28     1.403   .     A
C3     H33     1.081   .     S
C3     C731    1.381   1_554 S
C4     H34     1.081   .     S
C4     C27     1.403   .     A
C4     C732    1.382   .     S
C5     C10     1.397   .     A
C5     H35     1.084   .     S
C5     C163    1.368   1_455 S
C6     C9      1.397   .     A
C6     H36     1.084   .     S
C6     C86     1.368   .     S
C7     H37     1.084   .     S
C7     C9      1.397   .     A
C7     C83     1.368   .     S
C8     H38     1.084   .     S
C8     C10     1.397   .     A
C8     C162    1.368   1_455 S
C11    N44     1.366   .     A
C11    H39     1.082   .     S
C11    C482    1.417   1_545 S
C12    N43     1.366   .     A
C12    H40     1.082   .     S
C12    C247    1.416   .     S
C13    H41     1.081   .     S
C13    N44     1.366   .     A
C13    C480    1.416   1_545 S
C14    H42     1.082   .     S
C14    N43     1.367   .     A
C14    C245    1.417   .     S
C15    C20     1.422   .     S
C15    O52     1.281   .     A
C15    O49     1.281   .     A
C16    O51     1.281   .     A
C16    O50     1.281   .     A
C16    C19     1.421   .     S
C17    N55     1.429   .     S
C17    C27     1.400   .     A
C17    C19     1.399   .     A
C18    C28     1.400   .     A
C18    N61     1.429   .     S
C18    C20     1.399   .     A
C19    C21     1.401   .     A
C20    C22     1.401   .     A
C21    N67     1.430   .     S
C21    C23     1.394   .     A
C22    C24     1.395   .     A
C22    N73     1.430   .     S
C23    C29     1.401   .     A
C23    C25     1.416   .     A
C24    C26     1.416   .     A
C24    C30     1.401   .     A
C25    C27     1.418   .     A
C25    C728    1.404   .     S
C26    C28     1.418   .     A
C26    C727    1.404   1_554 S
C29    H31     1.083   .     S
C29    C705    1.381   .     S
C30    H32     1.083   .     S
C30    C706    1.382   1_554 S
N43    Zn53    2.009   .     S
N44    Zn54    2.009   .     S
O45    Zn53    1.997   .     S
O46    Zn54    1.997   .     S
O47    Zn53    1.997   .     S
O48    Zn54    1.997   .     S
O49    Zn53    2.010   .     S
O50    Zn54    2.010   .     S
O51    Zn53    2.011   .     S
O52    Zn54    2.011   .     S
N55    H56     1.031   .     S
N55    C57     1.447   .     S
C57    H59     1.110   .     S
C57    H60     1.110   .     S
C57    H58     1.111   .     S
N61    C63     1.447   .     S
N61    H62     1.031   .     S
C63    H65     1.110   .     S
C63    H66     1.109   .     S
C63    H64     1.110   .     S
N67    H68     1.031   .     S
N67    C69     1.447   .     S
C69    H71     1.111   .     S
C69    H72     1.110   .     S
C69    H70     1.111   .     S
N73    H74     1.031   .     S
N73    C75     1.447   .     S
C75    H76     1.111   .     S
C75    H77     1.111   .     S
C75    H78     1.111   .     S
C79    O126    1.282   .     A
C79    C88     1.417   .     S
C79    O123    1.282   .     A
C80    O124    1.282   .     A
C80    O125    1.282   .     A
C80    C87     1.417   .     S
C81    C106    1.403   .     A
C81    H111    1.081   .     S
C81    C809    1.381   1_554 S
C82    H112    1.081   .     S
C82    C105    1.403   .     A
C82    C810    1.382   .     S
C83    C88     1.397   .     A
C83    H113    1.084   .     S
C84    C87     1.397   .     A
C84    H114    1.084   .     S
C84    C164    1.368   .     S
C85    H115    1.084   .     S
C85    C87     1.397   .     A
C85    C161    1.368   .     S
C86    H116    1.084   .     S
C86    C88     1.397   .     A
C89    N122    1.366   .     A
C89    H117    1.082   .     S
C89    C560    1.417   1_545 S
C90    N121    1.366   .     A
C90    H118    1.082   .     S
C90    C325    1.416   .     S
C91    H119    1.081   .     S
C91    N122    1.366   .     A
C91    C558    1.416   1_545 S
C92    H120    1.082   .     S
C92    N121    1.367   .     A
C92    C323    1.417   .     S
C93    C98     1.422   .     S
C93    O130    1.281   .     A
C93    O127    1.281   .     A
C94    O129    1.281   .     A
C94    O128    1.281   .     A
C94    C97     1.421   .     S
C95    N133    1.429   .     S
C95    C105    1.400   .     A
C95    C97     1.399   .     A
C96    C106    1.400   .     A
C96    N139    1.429   .     S
C96    C98     1.399   .     A
C97    C99     1.401   .     A
C98    C100    1.401   .     A
C99    N145    1.430   .     S
C99    C101    1.394   .     A
C100   C102    1.395   .     A
C100   N151    1.430   .     S
C101   C107    1.401   .     A
C101   C103    1.416   .     A
C102   C104    1.416   .     A
C102   C108    1.401   .     A
C103   C105    1.418   .     A
C103   C806    1.404   .     S
C104   C106    1.418   .     A
C104   C805    1.404   1_554 S
C107   H109    1.083   .     S
C107   C783    1.381   .     S
C108   H110    1.083   .     S
C108   C784    1.382   1_554 S
N121   Zn131   2.009   .     S
N122   Zn132   2.009   .     S
O123   Zn131   1.997   .     S
O124   Zn132   1.997   .     S
O125   Zn131   1.997   .     S
O126   Zn132   1.997   .     S
O127   Zn131   2.010   .     S
O128   Zn132   2.010   .     S
O129   Zn131   2.011   .     S
O130   Zn132   2.011   .     S
N133   H134    1.031   .     S
N133   C135    1.447   .     S
C135   H137    1.110   .     S
C135   H138    1.110   .     S
C135   H136    1.111   .     S
N139   C141    1.447   .     S
N139   H140    1.031   .     S
C141   H143    1.110   .     S
C141   H144    1.109   .     S
C141   H142    1.110   .     S
N145   H146    1.031   .     S
N145   C147    1.447   .     S
C147   H149    1.111   .     S
C147   H150    1.110   .     S
C147   H148    1.111   .     S
N151   H152    1.031   .     S
N151   C153    1.447   .     S
C153   H154    1.111   .     S
C153   H155    1.111   .     S
C153   H156    1.111   .     S
C157   O204    1.282   .     A
C157   C166    1.417   .     S
C157   O201    1.282   .     A
C158   O202    1.282   .     A
C158   O203    1.282   .     A
C158   C165    1.417   .     S
C159   C184    1.403   .     A
C159   H189    1.081   .     S
C159   C887    1.381   1_554 S
C160   H190    1.081   .     S
C160   C183    1.403   .     A
C160   C888    1.382   .     S
C161   C166    1.397   .     A
C161   H191    1.084   .     S
C162   C165    1.397   .     A
C162   H192    1.084   .     S
C162   C8      1.368   1_655 S
C163   H193    1.084   .     S
C163   C165    1.397   .     A
C163   C5      1.368   1_655 S
C164   H194    1.084   .     S
C164   C166    1.397   .     A
C167   N200    1.366   .     A
C167   H195    1.082   .     S
C167   C638    1.417   1_545 S
C168   N199    1.366   .     A
C168   H196    1.082   .     S
C168   C403    1.416   .     S
C169   H197    1.081   .     S
C169   N200    1.366   .     A
C169   C636    1.416   1_545 S
C170   H198    1.082   .     S
C170   N199    1.367   .     A
C170   C401    1.417   .     S
C171   C176    1.422   .     S
C171   O208    1.281   .     A
C171   O205    1.281   .     A
C172   O207    1.281   .     A
C172   O206    1.281   .     A
C172   C175    1.421   .     S
C173   N211    1.429   .     S
C173   C183    1.400   .     A
C173   C175    1.399   .     A
C174   C184    1.400   .     A
C174   N217    1.429   .     S
C174   C176    1.399   .     A
C175   C177    1.401   .     A
C176   C178    1.401   .     A
C177   N223    1.430   .     S
C177   C179    1.394   .     A
C178   C180    1.395   .     A
C178   N229    1.430   .     S
C179   C185    1.401   .     A
C179   C181    1.416   .     A
C180   C182    1.416   .     A
C180   C186    1.401   .     A
C181   C183    1.418   .     A
C181   C884    1.404   .     S
C182   C184    1.418   .     A
C182   C883    1.404   1_554 S
C185   H187    1.083   .     S
C185   C861    1.381   .     S
C186   H188    1.083   .     S
C186   C862    1.382   1_554 S
N199   Zn209   2.009   .     S
N200   Zn210   2.009   .     S
O201   Zn209   1.997   .     S
O202   Zn210   1.997   .     S
O203   Zn209   1.997   .     S
O204   Zn210   1.997   .     S
O205   Zn209   2.010   .     S
O206   Zn210   2.010   .     S
O207   Zn209   2.011   .     S
O208   Zn210   2.011   .     S
N211   H212    1.031   .     S
N211   C213    1.447   .     S
C213   H215    1.110   .     S
C213   H216    1.110   .     S
C213   H214    1.111   .     S
N217   C219    1.447   .     S
N217   H218    1.031   .     S
C219   H221    1.110   .     S
C219   H222    1.109   .     S
C219   H220    1.110   .     S
N223   H224    1.031   .     S
N223   C225    1.447   .     S
C225   H227    1.111   .     S
C225   H228    1.110   .     S
C225   H226    1.111   .     S
N229   H230    1.031   .     S
N229   C231    1.447   .     S
C231   H232    1.111   .     S
C231   H233    1.111   .     S
C231   H234    1.111   .     S
C235   O282    1.282   .     A
C235   C244    1.417   .     S
C235   O279    1.282   .     A
C236   O280    1.282   .     A
C236   O281    1.282   .     A
C236   C243    1.417   .     S
C237   C262    1.403   .     A
C237   H267    1.081   .     S
C237   C965    1.381   1_554 S
C238   H268    1.081   .     S
C238   C261    1.403   .     A
C238   C966    1.382   .     S
C239   C244    1.397   .     A
C239   H269    1.084   .     S
C239   C397    1.368   1_455 S
C240   C243    1.397   .     A
C240   H270    1.084   .     S
C240   C320    1.368   .     S
C241   H271    1.084   .     S
C241   C243    1.397   .     A
C241   C317    1.368   .     S
C242   H272    1.084   .     S
C242   C244    1.397   .     A
C242   C396    1.368   1_455 S
C245   N278    1.366   .     A
C245   H273    1.082   .     S
C246   N277    1.366   .     A
C246   H274    1.082   .     S
C246   C481    1.416   .     S
C247   H275    1.081   .     S
C247   N278    1.366   .     A
C248   H276    1.082   .     S
C248   N277    1.367   .     A
C248   C479    1.417   .     S
C249   C254    1.422   .     S
C249   O286    1.281   .     A
C249   O283    1.281   .     A
C250   O285    1.281   .     A
C250   O284    1.281   .     A
C250   C253    1.421   .     S
C251   N289    1.429   .     S
C251   C261    1.400   .     A
C251   C253    1.399   .     A
C252   C262    1.400   .     A
C252   N295    1.429   .     S
C252   C254    1.399   .     A
C253   C255    1.401   .     A
C254   C256    1.401   .     A
C255   N301    1.430   .     S
C255   C257    1.394   .     A
C256   C258    1.395   .     A
C256   N307    1.430   .     S
C257   C263    1.401   .     A
C257   C259    1.416   .     A
C258   C260    1.416   .     A
C258   C264    1.401   .     A
C259   C261    1.418   .     A
C259   C962    1.404   .     S
C260   C262    1.418   .     A
C260   C961    1.404   1_554 S
C263   H265    1.083   .     S
C263   C939    1.381   .     S
C264   H266    1.083   .     S
C264   C940    1.382   1_554 S
N277   Zn287   2.009   .     S
N278   Zn288   2.009   .     S
O279   Zn287   1.997   .     S
O280   Zn288   1.997   .     S
O281   Zn287   1.997   .     S
O282   Zn288   1.997   .     S
O283   Zn287   2.010   .     S
O284   Zn288   2.010   .     S
O285   Zn287   2.011   .     S
O286   Zn288   2.011   .     S
N289   H290    1.031   .     S
N289   C291    1.447   .     S
C291   H293    1.110   .     S
C291   H294    1.110   .     S
C291   H292    1.111   .     S
N295   C297    1.447   .     S
N295   H296    1.031   .     S
C297   H299    1.110   .     S
C297   H300    1.109   .     S
C297   H298    1.110   .     S
N301   H302    1.031   .     S
N301   C303    1.447   .     S
C303   H305    1.111   .     S
C303   H306    1.110   .     S
C303   H304    1.111   .     S
N307   H308    1.031   .     S
N307   C309    1.447   .     S
C309   H310    1.111   .     S
C309   H311    1.111   .     S
C309   H312    1.111   .     S
C313   O360    1.282   .     A
C313   C322    1.417   .     S
C313   O357    1.282   .     A
C314   O358    1.282   .     A
C314   O359    1.282   .     A
C314   C321    1.417   .     S
C315   C340    1.403   .     A
C315   H345    1.081   .     S
C315   C1043   1.381   1_554 S
C316   H346    1.081   .     S
C316   C339    1.403   .     A
C316   C1044   1.382   .     S
C317   C322    1.397   .     A
C317   H347    1.084   .     S
C318   C321    1.397   .     A
C318   H348    1.084   .     S
C318   C398    1.368   .     S
C319   H349    1.084   .     S
C319   C321    1.397   .     A
C319   C395    1.368   .     S
C320   H350    1.084   .     S
C320   C322    1.397   .     A
C323   N356    1.366   .     A
C323   H351    1.082   .     S
C324   N355    1.366   .     A
C324   H352    1.082   .     S
C324   C559    1.416   .     S
C325   H353    1.081   .     S
C325   N356    1.366   .     A
C326   H354    1.082   .     S
C326   N355    1.367   .     A
C326   C557    1.417   .     S
C327   C332    1.422   .     S
C327   O364    1.281   .     A
C327   O361    1.281   .     A
C328   O363    1.281   .     A
C328   O362    1.281   .     A
C328   C331    1.421   .     S
C329   N367    1.429   .     S
C329   C339    1.400   .     A
C329   C331    1.399   .     A
C330   C340    1.400   .     A
C330   N373    1.429   .     S
C330   C332    1.399   .     A
C331   C333    1.401   .     A
C332   C334    1.401   .     A
C333   N379    1.430   .     S
C333   C335    1.394   .     A
C334   C336    1.395   .     A
C334   N385    1.430   .     S
C335   C341    1.401   .     A
C335   C337    1.416   .     A
C336   C338    1.416   .     A
C336   C342    1.401   .     A
C337   C339    1.418   .     A
C337   C1040   1.404   .     S
C338   C340    1.418   .     A
C338   C1039   1.404   1_554 S
C341   H343    1.083   .     S
C341   C1017   1.381   .     S
C342   H344    1.083   .     S
C342   C1018   1.382   1_554 S
N355   Zn365   2.009   .     S
N356   Zn366   2.009   .     S
O357   Zn365   1.997   .     S
O358   Zn366   1.997   .     S
O359   Zn365   1.997   .     S
O360   Zn366   1.997   .     S
O361   Zn365   2.010   .     S
O362   Zn366   2.010   .     S
O363   Zn365   2.011   .     S
O364   Zn366   2.011   .     S
N367   H368    1.031   .     S
N367   C369    1.447   .     S
C369   H371    1.110   .     S
C369   H372    1.110   .     S
C369   H370    1.111   .     S
N373   C375    1.447   .     S
N373   H374    1.031   .     S
C375   H377    1.110   .     S
C375   H378    1.109   .     S
C375   H376    1.110   .     S
N379   H380    1.031   .     S
N379   C381    1.447   .     S
C381   H383    1.111   .     S
C381   H384    1.110   .     S
C381   H382    1.111   .     S
N385   H386    1.031   .     S
N385   C387    1.447   .     S
C387   H388    1.111   .     S
C387   H389    1.111   .     S
C387   H390    1.111   .     S
C391   O438    1.282   .     A
C391   C400    1.417   .     S
C391   O435    1.282   .     A
C392   O436    1.282   .     A
C392   O437    1.282   .     A
C392   C399    1.417   .     S
C393   C418    1.403   .     A
C393   H423    1.081   .     S
C393   C1121   1.381   1_554 S
C394   H424    1.081   .     S
C394   C417    1.403   .     A
C394   C1122   1.382   .     S
C395   C400    1.397   .     A
C395   H425    1.084   .     S
C396   C399    1.397   .     A
C396   H426    1.084   .     S
C396   C242    1.368   1_655 S
C397   H427    1.084   .     S
C397   C399    1.397   .     A
C397   C239    1.368   1_655 S
C398   H428    1.084   .     S
C398   C400    1.397   .     A
C401   N434    1.366   .     A
C401   H429    1.082   .     S
C402   N433    1.366   .     A
C402   H430    1.082   .     S
C402   C637    1.416   .     S
C403   H431    1.081   .     S
C403   N434    1.366   .     A
C404   H432    1.082   .     S
C404   N433    1.367   .     A
C404   C635    1.417   .     S
C405   C410    1.422   .     S
C405   O442    1.281   .     A
C405   O439    1.281   .     A
C406   O441    1.281   .     A
C406   O440    1.281   .     A
C406   C409    1.421   .     S
C407   N445    1.429   .     S
C407   C417    1.400   .     A
C407   C409    1.399   .     A
C408   C418    1.400   .     A
C408   N451    1.429   .     S
C408   C410    1.399   .     A
C409   C411    1.401   .     A
C410   C412    1.401   .     A
C411   N457    1.430   .     S
C411   C413    1.394   .     A
C412   C414    1.395   .     A
C412   N463    1.430   .     S
C413   C419    1.401   .     A
C413   C415    1.416   .     A
C414   C416    1.416   .     A
C414   C420    1.401   .     A
C415   C417    1.418   .     A
C415   C1118   1.404   .     S
C416   C418    1.418   .     A
C416   C1117   1.404   1_554 S
C419   H421    1.083   .     S
C419   C1095   1.381   .     S
C420   H422    1.083   .     S
C420   C1096   1.382   1_554 S
N433   Zn443   2.009   .     S
N434   Zn444   2.009   .     S
O435   Zn443   1.997   .     S
O436   Zn444   1.997   .     S
O437   Zn443   1.997   .     S
O438   Zn444   1.997   .     S
O439   Zn443   2.010   .     S
O440   Zn444   2.010   .     S
O441   Zn443   2.011   .     S
O442   Zn444   2.011   .     S
N445   H446    1.031   .     S
N445   C447    1.447   .     S
C447   H449    1.110   .     S
C447   H450    1.110   .     S
C447   H448    1.111   .     S
N451   C453    1.447   .     S
N451   H452    1.031   .     S
C453   H455    1.110   .     S
C453   H456    1.109   .     S
C453   H454    1.110   .     S
N457   H458    1.031   .     S
N457   C459    1.447   .     S
C459   H461    1.111   .     S
C459   H462    1.110   .     S
C459   H460    1.111   .     S
N463   H464    1.031   .     S
N463   C465    1.447   .     S
C465   H466    1.111   .     S
C465   H467    1.111   .     S
C465   H468    1.111   .     S
C469   O516    1.282   .     A
C469   C478    1.417   .     S
C469   O513    1.282   .     A
C470   O514    1.282   .     A
C470   O515    1.282   .     A
C470   C477    1.417   .     S
C471   C496    1.403   .     A
C471   H501    1.081   .     S
C471   C1199   1.381   1_554 S
C472   H502    1.081   .     S
C472   C495    1.403   .     A
C472   C1200   1.382   .     S
C473   C478    1.397   .     A
C473   H503    1.084   .     S
C473   C631    1.368   1_455 S
C474   C477    1.397   .     A
C474   H504    1.084   .     S
C474   C554    1.368   .     S
C475   H505    1.084   .     S
C475   C477    1.397   .     A
C475   C551    1.368   .     S
C476   H506    1.084   .     S
C476   C478    1.397   .     A
C476   C630    1.368   1_455 S
C479   N512    1.366   .     A
C479   H507    1.082   .     S
C480   N511    1.366   .     A
C480   H508    1.082   .     S
C480   C13     1.416   1_565 S
C481   H509    1.081   .     S
C481   N512    1.366   .     A
C482   H510    1.082   .     S
C482   N511    1.367   .     A
C482   C11     1.417   1_565 S
C483   C488    1.422   .     S
C483   O520    1.281   .     A
C483   O517    1.281   .     A
C484   O519    1.281   .     A
C484   O518    1.281   .     A
C484   C487    1.421   .     S
C485   N523    1.429   .     S
C485   C495    1.400   .     A
C485   C487    1.399   .     A
C486   C496    1.400   .     A
C486   N529    1.429   .     S
C486   C488    1.399   .     A
C487   C489    1.401   .     A
C488   C490    1.401   .     A
C489   N535    1.430   .     S
C489   C491    1.394   .     A
C490   C492    1.395   .     A
C490   N541    1.430   .     S
C491   C497    1.401   .     A
C491   C493    1.416   .     A
C492   C494    1.416   .     A
C492   C498    1.401   .     A
C493   C495    1.418   .     A
C493   C1196   1.404   .     S
C494   C496    1.418   .     A
C494   C1195   1.404   1_554 S
C497   H499    1.083   .     S
C497   C1173   1.381   .     S
C498   H500    1.083   .     S
C498   C1174   1.382   1_554 S
N511   Zn521   2.009   .     S
N512   Zn522   2.009   .     S
O513   Zn521   1.997   .     S
O514   Zn522   1.997   .     S
O515   Zn521   1.997   .     S
O516   Zn522   1.997   .     S
O517   Zn521   2.010   .     S
O518   Zn522   2.010   .     S
O519   Zn521   2.011   .     S
O520   Zn522   2.011   .     S
N523   H524    1.031   .     S
N523   C525    1.447   .     S
C525   H527    1.110   .     S
C525   H528    1.110   .     S
C525   H526    1.111   .     S
N529   C531    1.447   .     S
N529   H530    1.031   .     S
C531   H533    1.110   .     S
C531   H534    1.109   .     S
C531   H532    1.110   .     S
N535   H536    1.031   .     S
N535   C537    1.447   .     S
C537   H539    1.111   .     S
C537   H540    1.110   .     S
C537   H538    1.111   .     S
N541   H542    1.031   .     S
N541   C543    1.447   .     S
C543   H544    1.111   .     S
C543   H545    1.111   .     S
C543   H546    1.111   .     S
C547   O594    1.282   .     A
C547   C556    1.417   .     S
C547   O591    1.282   .     A
C548   O592    1.282   .     A
C548   O593    1.282   .     A
C548   C555    1.417   .     S
C549   C574    1.403   .     A
C549   H579    1.081   .     S
C549   C1277   1.381   1_554 S
C550   H580    1.081   .     S
C550   C573    1.403   .     A
C550   C1278   1.382   .     S
C551   C556    1.397   .     A
C551   H581    1.084   .     S
C552   C555    1.397   .     A
C552   H582    1.084   .     S
C552   C632    1.368   .     S
C553   H583    1.084   .     S
C553   C555    1.397   .     A
C553   C629    1.368   .     S
C554   H584    1.084   .     S
C554   C556    1.397   .     A
C557   N590    1.366   .     A
C557   H585    1.082   .     S
C558   N589    1.366   .     A
C558   H586    1.082   .     S
C558   C91     1.416   1_565 S
C559   H587    1.081   .     S
C559   N590    1.366   .     A
C560   H588    1.082   .     S
C560   N589    1.367   .     A
C560   C89     1.417   1_565 S
C561   C566    1.422   .     S
C561   O598    1.281   .     A
C561   O595    1.281   .     A
C562   O597    1.281   .     A
C562   O596    1.281   .     A
C562   C565    1.421   .     S
C563   N601    1.429   .     S
C563   C573    1.400   .     A
C563   C565    1.399   .     A
C564   C574    1.400   .     A
C564   N607    1.429   .     S
C564   C566    1.399   .     A
C565   C567    1.401   .     A
C566   C568    1.401   .     A
C567   N613    1.430   .     S
C567   C569    1.394   .     A
C568   C570    1.395   .     A
C568   N619    1.430   .     S
C569   C575    1.401   .     A
C569   C571    1.416   .     A
C570   C572    1.416   .     A
C570   C576    1.401   .     A
C571   C573    1.418   .     A
C571   C1274   1.404   .     S
C572   C574    1.418   .     A
C572   C1273   1.404   1_554 S
C575   H577    1.083   .     S
C575   C1251   1.381   .     S
C576   H578    1.083   .     S
C576   C1252   1.382   1_554 S
N589   Zn599   2.009   .     S
N590   Zn600   2.009   .     S
O591   Zn599   1.997   .     S
O592   Zn600   1.997   .     S
O593   Zn599   1.997   .     S
O594   Zn600   1.997   .     S
O595   Zn599   2.010   .     S
O596   Zn600   2.010   .     S
O597   Zn599   2.011   .     S
O598   Zn600   2.011   .     S
N601   H602    1.031   .     S
N601   C603    1.447   .     S
C603   H605    1.110   .     S
C603   H606    1.110   .     S
C603   H604    1.111   .     S
N607   C609    1.447   .     S
N607   H608    1.031   .     S
C609   H611    1.110   .     S
C609   H612    1.109   .     S
C609   H610    1.110   .     S
N613   H614    1.031   .     S
N613   C615    1.447   .     S
C615   H617    1.111   .     S
C615   H618    1.110   .     S
C615   H616    1.111   .     S
N619   H620    1.031   .     S
N619   C621    1.447   .     S
C621   H622    1.111   .     S
C621   H623    1.111   .     S
C621   H624    1.111   .     S
C625   O672    1.282   .     A
C625   C634    1.417   .     S
C625   O669    1.282   .     A
C626   O670    1.282   .     A
C626   O671    1.282   .     A
C626   C633    1.417   .     S
C627   C652    1.403   .     A
C627   H657    1.081   .     S
C627   C1355   1.381   1_554 S
C628   H658    1.081   .     S
C628   C651    1.403   .     A
C628   C1356   1.382   .     S
C629   C634    1.397   .     A
C629   H659    1.084   .     S
C630   C633    1.397   .     A
C630   H660    1.084   .     S
C630   C476    1.368   1_655 S
C631   H661    1.084   .     S
C631   C633    1.397   .     A
C631   C473    1.368   1_655 S
C632   H662    1.084   .     S
C632   C634    1.397   .     A
C635   N668    1.366   .     A
C635   H663    1.082   .     S
C636   N667    1.366   .     A
C636   H664    1.082   .     S
C636   C169    1.416   1_565 S
C637   H665    1.081   .     S
C637   N668    1.366   .     A
C638   H666    1.082   .     S
C638   N667    1.367   .     A
C638   C167    1.417   1_565 S
C639   C644    1.422   .     S
C639   O676    1.281   .     A
C639   O673    1.281   .     A
C640   O675    1.281   .     A
C640   O674    1.281   .     A
C640   C643    1.421   .     S
C641   N679    1.429   .     S
C641   C651    1.400   .     A
C641   C643    1.399   .     A
C642   C652    1.400   .     A
C642   N685    1.429   .     S
C642   C644    1.399   .     A
C643   C645    1.401   .     A
C644   C646    1.401   .     A
C645   N691    1.430   .     S
C645   C647    1.394   .     A
C646   C648    1.395   .     A
C646   N697    1.430   .     S
C647   C653    1.401   .     A
C647   C649    1.416   .     A
C648   C650    1.416   .     A
C648   C654    1.401   .     A
C649   C651    1.418   .     A
C649   C1352   1.404   .     S
C650   C652    1.418   .     A
C650   C1351   1.404   1_554 S
C653   H655    1.083   .     S
C653   C1329   1.381   .     S
C654   H656    1.083   .     S
C654   C1330   1.382   1_554 S
N667   Zn677   2.009   .     S
N668   Zn678   2.009   .     S
O669   Zn677   1.997   .     S
O670   Zn678   1.997   .     S
O671   Zn677   1.997   .     S
O672   Zn678   1.997   .     S
O673   Zn677   2.010   .     S
O674   Zn678   2.010   .     S
O675   Zn677   2.011   .     S
O676   Zn678   2.011   .     S
N679   H680    1.031   .     S
N679   C681    1.447   .     S
C681   H683    1.110   .     S
C681   H684    1.110   .     S
C681   H682    1.111   .     S
N685   C687    1.447   .     S
N685   H686    1.031   .     S
C687   H689    1.110   .     S
C687   H690    1.109   .     S
C687   H688    1.110   .     S
N691   H692    1.031   .     S
N691   C693    1.447   .     S
C693   H695    1.111   .     S
C693   H696    1.110   .     S
C693   H694    1.111   .     S
N697   H698    1.031   .     S
N697   C699    1.447   .     S
C699   H700    1.111   .     S
C699   H701    1.111   .     S
C699   H702    1.111   .     S
C703   O750    1.282   .     A
C703   C712    1.417   .     S
C703   O747    1.282   .     A
C704   O748    1.282   .     A
C704   O749    1.282   .     A
C704   C711    1.417   .     S
C705   C730    1.403   .     A
C705   H735    1.081   .     S
C706   H736    1.081   .     S
C706   C729    1.403   .     A
C706   C30     1.382   1_556 S
C707   C712    1.397   .     A
C707   H737    1.084   .     S
C707   C865    1.368   1_455 S
C708   C711    1.397   .     A
C708   H738    1.084   .     S
C708   C788    1.368   .     S
C709   H739    1.084   .     S
C709   C711    1.397   .     A
C709   C785    1.368   .     S
C710   H740    1.084   .     S
C710   C712    1.397   .     A
C710   C864    1.368   1_455 S
C713   N746    1.366   .     A
C713   H741    1.082   .     S
C713   C1184   1.417   1_545 S
C714   N745    1.366   .     A
C714   H742    1.082   .     S
C714   C949    1.416   .     S
C715   H743    1.081   .     S
C715   N746    1.366   .     A
C715   C1182   1.416   1_545 S
C716   H744    1.082   .     S
C716   N745    1.367   .     A
C716   C947    1.417   .     S
C717   C722    1.422   .     S
C717   O754    1.281   .     A
C717   O751    1.281   .     A
C718   O753    1.281   .     A
C718   O752    1.281   .     A
C718   C721    1.421   .     S
C719   N757    1.429   .     S
C719   C729    1.400   .     A
C719   C721    1.399   .     A
C720   C730    1.400   .     A
C720   N763    1.429   .     S
C720   C722    1.399   .     A
C721   C723    1.401   .     A
C722   C724    1.401   .     A
C723   N769    1.430   .     S
C723   C725    1.394   .     A
C724   C726    1.395   .     A
C724   N775    1.430   .     S
C725   C731    1.401   .     A
C725   C727    1.416   .     A
C726   C728    1.416   .     A
C726   C732    1.401   .     A
C727   C729    1.418   .     A
C727   C26     1.404   1_556 S
C728   C730    1.418   .     A
C731   H733    1.083   .     S
C731   C3      1.381   1_556 S
C732   H734    1.083   .     S
N745   Zn755   2.009   .     S
N746   Zn756   2.009   .     S
O747   Zn755   1.997   .     S
O748   Zn756   1.997   .     S
O749   Zn755   1.997   .     S
O750   Zn756   1.997   .     S
O751   Zn755   2.010   .     S
O752   Zn756   2.010   .     S
O753   Zn755   2.011   .     S
O754   Zn756   2.011   .     S
N757   H758    1.031   .     S
N757   C759    1.447   .     S
C759   H761    1.110   .     S
C759   H762    1.110   .     S
C759   H760    1.111   .     S
N763   C765    1.447   .     S
N763   H764    1.031   .     S
C765   H767    1.110   .     S
C765   H768    1.109   .     S
C765   H766    1.110   .     S
N769   H770    1.031   .     S
N769   C771    1.447   .     S
C771   H773    1.111   .     S
C771   H774    1.110   .     S
C771   H772    1.111   .     S
N775   H776    1.031   .     S
N775   C777    1.447   .     S
C777   H778    1.111   .     S
C777   H779    1.111   .     S
C777   H780    1.111   .     S
C781   O828    1.282   .     A
C781   C790    1.417   .     S
C781   O825    1.282   .     A
C782   O826    1.282   .     A
C782   O827    1.282   .     A
C782   C789    1.417   .     S
C783   C808    1.403   .     A
C783   H813    1.081   .     S
C784   H814    1.081   .     S
C784   C807    1.403   .     A
C784   C108    1.382   1_556 S
C785   C790    1.397   .     A
C785   H815    1.084   .     S
C786   C789    1.397   .     A
C786   H816    1.084   .     S
C786   C866    1.368   .     S
C787   H817    1.084   .     S
C787   C789    1.397   .     A
C787   C863    1.368   .     S
C788   H818    1.084   .     S
C788   C790    1.397   .     A
C791   N824    1.366   .     A
C791   H819    1.082   .     S
C791   C1262   1.417   1_545 S
C792   N823    1.366   .     A
C792   H820    1.082   .     S
C792   C1027   1.416   .     S
C793   H821    1.081   .     S
C793   N824    1.366   .     A
C793   C1260   1.416   1_545 S
C794   H822    1.082   .     S
C794   N823    1.367   .     A
C794   C1025   1.417   .     S
C795   C800    1.422   .     S
C795   O832    1.281   .     A
C795   O829    1.281   .     A
C796   O831    1.281   .     A
C796   O830    1.281   .     A
C796   C799    1.421   .     S
C797   N835    1.429   .     S
C797   C807    1.400   .     A
C797   C799    1.399   .     A
C798   C808    1.400   .     A
C798   N841    1.429   .     S
C798   C800    1.399   .     A
C799   C801    1.401   .     A
C800   C802    1.401   .     A
C801   N847    1.430   .     S
C801   C803    1.394   .     A
C802   C804    1.395   .     A
C802   N853    1.430   .     S
C803   C809    1.401   .     A
C803   C805    1.416   .     A
C804   C806    1.416   .     A
C804   C810    1.401   .     A
C805   C807    1.418   .     A
C805   C104    1.404   1_556 S
C806   C808    1.418   .     A
C809   H811    1.083   .     S
C809   C81     1.381   1_556 S
C810   H812    1.083   .     S
N823   Zn833   2.009   .     S
N824   Zn834   2.009   .     S
O825   Zn833   1.997   .     S
O826   Zn834   1.997   .     S
O827   Zn833   1.997   .     S
O828   Zn834   1.997   .     S
O829   Zn833   2.010   .     S
O830   Zn834   2.010   .     S
O831   Zn833   2.011   .     S
O832   Zn834   2.011   .     S
N835   H836    1.031   .     S
N835   C837    1.447   .     S
C837   H839    1.110   .     S
C837   H840    1.110   .     S
C837   H838    1.111   .     S
N841   C843    1.447   .     S
N841   H842    1.031   .     S
C843   H845    1.110   .     S
C843   H846    1.109   .     S
C843   H844    1.110   .     S
N847   H848    1.031   .     S
N847   C849    1.447   .     S
C849   H851    1.111   .     S
C849   H852    1.110   .     S
C849   H850    1.111   .     S
N853   H854    1.031   .     S
N853   C855    1.447   .     S
C855   H856    1.111   .     S
C855   H857    1.111   .     S
C855   H858    1.111   .     S
C859   O906    1.282   .     A
C859   C868    1.417   .     S
C859   O903    1.282   .     A
C860   O904    1.282   .     A
C860   O905    1.282   .     A
C860   C867    1.417   .     S
C861   C886    1.403   .     A
C861   H891    1.081   .     S
C862   H892    1.081   .     S
C862   C885    1.403   .     A
C862   C186    1.382   1_556 S
C863   C868    1.397   .     A
C863   H893    1.084   .     S
C864   C867    1.397   .     A
C864   H894    1.084   .     S
C864   C710    1.368   1_655 S
C865   H895    1.084   .     S
C865   C867    1.397   .     A
C865   C707    1.368   1_655 S
C866   H896    1.084   .     S
C866   C868    1.397   .     A
C869   N902    1.366   .     A
C869   H897    1.082   .     S
C869   C1340   1.417   1_545 S
C870   N901    1.366   .     A
C870   H898    1.082   .     S
C870   C1105   1.416   .     S
C871   H899    1.081   .     S
C871   N902    1.366   .     A
C871   C1338   1.416   1_545 S
C872   H900    1.082   .     S
C872   N901    1.367   .     A
C872   C1103   1.417   .     S
C873   C878    1.422   .     S
C873   O910    1.281   .     A
C873   O907    1.281   .     A
C874   O909    1.281   .     A
C874   O908    1.281   .     A
C874   C877    1.421   .     S
C875   N913    1.429   .     S
C875   C885    1.400   .     A
C875   C877    1.399   .     A
C876   C886    1.400   .     A
C876   N919    1.429   .     S
C876   C878    1.399   .     A
C877   C879    1.401   .     A
C878   C880    1.401   .     A
C879   N925    1.430   .     S
C879   C881    1.394   .     A
C880   C882    1.395   .     A
C880   N931    1.430   .     S
C881   C887    1.401   .     A
C881   C883    1.416   .     A
C882   C884    1.416   .     A
C882   C888    1.401   .     A
C883   C885    1.418   .     A
C883   C182    1.404   1_556 S
C884   C886    1.418   .     A
C887   H889    1.083   .     S
C887   C159    1.381   1_556 S
C888   H890    1.083   .     S
N901   Zn911   2.009   .     S
N902   Zn912   2.009   .     S
O903   Zn911   1.997   .     S
O904   Zn912   1.997   .     S
O905   Zn911   1.997   .     S
O906   Zn912   1.997   .     S
O907   Zn911   2.010   .     S
O908   Zn912   2.010   .     S
O909   Zn911   2.011   .     S
O910   Zn912   2.011   .     S
N913   H914    1.031   .     S
N913   C915    1.447   .     S
C915   H917    1.110   .     S
C915   H918    1.110   .     S
C915   H916    1.111   .     S
N919   C921    1.447   .     S
N919   H920    1.031   .     S
C921   H923    1.110   .     S
C921   H924    1.109   .     S
C921   H922    1.110   .     S
N925   H926    1.031   .     S
N925   C927    1.447   .     S
C927   H929    1.111   .     S
C927   H930    1.110   .     S
C927   H928    1.111   .     S
N931   H932    1.031   .     S
N931   C933    1.447   .     S
C933   H934    1.111   .     S
C933   H935    1.111   .     S
C933   H936    1.111   .     S
C937   O984    1.282   .     A
C937   C946    1.417   .     S
C937   O981    1.282   .     A
C938   O982    1.282   .     A
C938   O983    1.282   .     A
C938   C945    1.417   .     S
C939   C964    1.403   .     A
C939   H969    1.081   .     S
C940   H970    1.081   .     S
C940   C963    1.403   .     A
C940   C264    1.382   1_556 S
C941   C946    1.397   .     A
C941   H971    1.084   .     S
C941   C1099   1.368   1_455 S
C942   C945    1.397   .     A
C942   H972    1.084   .     S
C942   C1022   1.368   .     S
C943   H973    1.084   .     S
C943   C945    1.397   .     A
C943   C1019   1.368   .     S
C944   H974    1.084   .     S
C944   C946    1.397   .     A
C944   C1098   1.368   1_455 S
C947   N980    1.366   .     A
C947   H975    1.082   .     S
C948   N979    1.366   .     A
C948   H976    1.082   .     S
C948   C1183   1.416   .     S
C949   H977    1.081   .     S
C949   N980    1.366   .     A
C950   H978    1.082   .     S
C950   N979    1.367   .     A
C950   C1181   1.417   .     S
C951   C956    1.422   .     S
C951   O988    1.281   .     A
C951   O985    1.281   .     A
C952   O987    1.281   .     A
C952   O986    1.281   .     A
C952   C955    1.421   .     S
C953   N991    1.429   .     S
C953   C963    1.400   .     A
C953   C955    1.399   .     A
C954   C964    1.400   .     A
C954   N997    1.429   .     S
C954   C956    1.399   .     A
C955   C957    1.401   .     A
C956   C958    1.401   .     A
C957   N1003   1.430   .     S
C957   C959    1.394   .     A
C958   C960    1.395   .     A
C958   N1009   1.430   .     S
C959   C965    1.401   .     A
C959   C961    1.416   .     A
C960   C962    1.416   .     A
C960   C966    1.401   .     A
C961   C963    1.418   .     A
C961   C260    1.404   1_556 S
C962   C964    1.418   .     A
C965   H967    1.083   .     S
C965   C237    1.381   1_556 S
C966   H968    1.083   .     S
N979   Zn989   2.009   .     S
N980   Zn990   2.009   .     S
O981   Zn989   1.997   .     S
O982   Zn990   1.997   .     S
O983   Zn989   1.997   .     S
O984   Zn990   1.997   .     S
O985   Zn989   2.010   .     S
O986   Zn990   2.010   .     S
O987   Zn989   2.011   .     S
O988   Zn990   2.011   .     S
N991   H992    1.031   .     S
N991   C993    1.447   .     S
C993   H995    1.110   .     S
C993   H996    1.110   .     S
C993   H994    1.111   .     S
N997   C999    1.447   .     S
N997   H998    1.031   .     S
C999   H1001   1.110   .     S
C999   H1002   1.109   .     S
C999   H1000   1.110   .     S
N1003  H1004   1.031   .     S
N1003  C1005   1.447   .     S
C1005  H1007   1.111   .     S
C1005  H1008   1.110   .     S
C1005  H1006   1.111   .     S
N1009  H1010   1.031   .     S
N1009  C1011   1.447   .     S
C1011  H1012   1.111   .     S
C1011  H1013   1.111   .     S
C1011  H1014   1.111   .     S
C1015  O1062   1.282   .     A
C1015  C1024   1.417   .     S
C1015  O1059   1.282   .     A
C1016  O1060   1.282   .     A
C1016  O1061   1.282   .     A
C1016  C1023   1.417   .     S
C1017  C1042   1.403   .     A
C1017  H1047   1.081   .     S
C1018  H1048   1.081   .     S
C1018  C1041   1.403   .     A
C1018  C342    1.382   1_556 S
C1019  C1024   1.397   .     A
C1019  H1049   1.084   .     S
C1020  C1023   1.397   .     A
C1020  H1050   1.084   .     S
C1020  C1100   1.368   .     S
C1021  H1051   1.084   .     S
C1021  C1023   1.397   .     A
C1021  C1097   1.368   .     S
C1022  H1052   1.084   .     S
C1022  C1024   1.397   .     A
C1025  N1058   1.366   .     A
C1025  H1053   1.082   .     S
C1026  N1057   1.366   .     A
C1026  H1054   1.082   .     S
C1026  C1261   1.416   .     S
C1027  H1055   1.081   .     S
C1027  N1058   1.366   .     A
C1028  H1056   1.082   .     S
C1028  N1057   1.367   .     A
C1028  C1259   1.417   .     S
C1029  C1034   1.422   .     S
C1029  O1066   1.281   .     A
C1029  O1063   1.281   .     A
C1030  O1065   1.281   .     A
C1030  O1064   1.281   .     A
C1030  C1033   1.421   .     S
C1031  N1069   1.429   .     S
C1031  C1041   1.400   .     A
C1031  C1033   1.399   .     A
C1032  C1042   1.400   .     A
C1032  N1075   1.429   .     S
C1032  C1034   1.399   .     A
C1033  C1035   1.401   .     A
C1034  C1036   1.401   .     A
C1035  N1081   1.430   .     S
C1035  C1037   1.394   .     A
C1036  C1038   1.395   .     A
C1036  N1087   1.430   .     S
C1037  C1043   1.401   .     A
C1037  C1039   1.416   .     A
C1038  C1040   1.416   .     A
C1038  C1044   1.401   .     A
C1039  C1041   1.418   .     A
C1039  C338    1.404   1_556 S
C1040  C1042   1.418   .     A
C1043  H1045   1.083   .     S
C1043  C315    1.381   1_556 S
C1044  H1046   1.083   .     S
N1057  Zn1067  2.009   .     S
N1058  Zn1068  2.009   .     S
O1059  Zn1067  1.997   .     S
O1060  Zn1068  1.997   .     S
O1061  Zn1067  1.997   .     S
O1062  Zn1068  1.997   .     S
O1063  Zn1067  2.010   .     S
O1064  Zn1068  2.010   .     S
O1065  Zn1067  2.011   .     S
O1066  Zn1068  2.011   .     S
N1069  H1070   1.031   .     S
N1069  C1071   1.447   .     S
C1071  H1073   1.110   .     S
C1071  H1074   1.110   .     S
C1071  H1072   1.111   .     S
N1075  C1077   1.447   .     S
N1075  H1076   1.031   .     S
C1077  H1079   1.110   .     S
C1077  H1080   1.109   .     S
C1077  H1078   1.110   .     S
N1081  H1082   1.031   .     S
N1081  C1083   1.447   .     S
C1083  H1085   1.111   .     S
C1083  H1086   1.110   .     S
C1083  H1084   1.111   .     S
N1087  H1088   1.031   .     S
N1087  C1089   1.447   .     S
C1089  H1090   1.111   .     S
C1089  H1091   1.111   .     S
C1089  H1092   1.111   .     S
C1093  O1140   1.282   .     A
C1093  C1102   1.417   .     S
C1093  O1137   1.282   .     A
C1094  O1138   1.282   .     A
C1094  O1139   1.282   .     A
C1094  C1101   1.417   .     S
C1095  C1120   1.403   .     A
C1095  H1125   1.081   .     S
C1096  H1126   1.081   .     S
C1096  C1119   1.403   .     A
C1096  C420    1.382   1_556 S
C1097  C1102   1.397   .     A
C1097  H1127   1.084   .     S
C1098  C1101   1.397   .     A
C1098  H1128   1.084   .     S
C1098  C944    1.368   1_655 S
C1099  H1129   1.084   .     S
C1099  C1101   1.397   .     A
C1099  C941    1.368   1_655 S
C1100  H1130   1.084   .     S
C1100  C1102   1.397   .     A
C1103  N1136   1.366   .     A
C1103  H1131   1.082   .     S
C1104  N1135   1.366   .     A
C1104  H1132   1.082   .     S
C1104  C1339   1.416   .     S
C1105  H1133   1.081   .     S
C1105  N1136   1.366   .     A
C1106  H1134   1.082   .     S
C1106  N1135   1.367   .     A
C1106  C1337   1.417   .     S
C1107  C1112   1.422   .     S
C1107  O1144   1.281   .     A
C1107  O1141   1.281   .     A
C1108  O1143   1.281   .     A
C1108  O1142   1.281   .     A
C1108  C1111   1.421   .     S
C1109  N1147   1.429   .     S
C1109  C1119   1.400   .     A
C1109  C1111   1.399   .     A
C1110  C1120   1.400   .     A
C1110  N1153   1.429   .     S
C1110  C1112   1.399   .     A
C1111  C1113   1.401   .     A
C1112  C1114   1.401   .     A
C1113  N1159   1.430   .     S
C1113  C1115   1.394   .     A
C1114  C1116   1.395   .     A
C1114  N1165   1.430   .     S
C1115  C1121   1.401   .     A
C1115  C1117   1.416   .     A
C1116  C1118   1.416   .     A
C1116  C1122   1.401   .     A
C1117  C1119   1.418   .     A
C1117  C416    1.404   1_556 S
C1118  C1120   1.418   .     A
C1121  H1123   1.083   .     S
C1121  C393    1.381   1_556 S
C1122  H1124   1.083   .     S
N1135  Zn1145  2.009   .     S
N1136  Zn1146  2.009   .     S
O1137  Zn1145  1.997   .     S
O1138  Zn1146  1.997   .     S
O1139  Zn1145  1.997   .     S
O1140  Zn1146  1.997   .     S
O1141  Zn1145  2.010   .     S
O1142  Zn1146  2.010   .     S
O1143  Zn1145  2.011   .     S
O1144  Zn1146  2.011   .     S
N1147  H1148   1.031   .     S
N1147  C1149   1.447   .     S
C1149  H1151   1.110   .     S
C1149  H1152   1.110   .     S
C1149  H1150   1.111   .     S
N1153  C1155   1.447   .     S
N1153  H1154   1.031   .     S
C1155  H1157   1.110   .     S
C1155  H1158   1.109   .     S
C1155  H1156   1.110   .     S
N1159  H1160   1.031   .     S
N1159  C1161   1.447   .     S
C1161  H1163   1.111   .     S
C1161  H1164   1.110   .     S
C1161  H1162   1.111   .     S
N1165  H1166   1.031   .     S
N1165  C1167   1.447   .     S
C1167  H1168   1.111   .     S
C1167  H1169   1.111   .     S
C1167  H1170   1.111   .     S
C1171  O1218   1.282   .     A
C1171  C1180   1.417   .     S
C1171  O1215   1.282   .     A
C1172  O1216   1.282   .     A
C1172  O1217   1.282   .     A
C1172  C1179   1.417   .     S
C1173  C1198   1.403   .     A
C1173  H1203   1.081   .     S
C1174  H1204   1.081   .     S
C1174  C1197   1.403   .     A
C1174  C498    1.382   1_556 S
C1175  C1180   1.397   .     A
C1175  H1205   1.084   .     S
C1175  C1333   1.368   1_455 S
C1176  C1179   1.397   .     A
C1176  H1206   1.084   .     S
C1176  C1256   1.368   .     S
C1177  H1207   1.084   .     S
C1177  C1179   1.397   .     A
C1177  C1253   1.368   .     S
C1178  H1208   1.084   .     S
C1178  C1180   1.397   .     A
C1178  C1332   1.368   1_455 S
C1181  N1214   1.366   .     A
C1181  H1209   1.082   .     S
C1182  N1213   1.366   .     A
C1182  H1210   1.082   .     S
C1182  C715    1.416   1_565 S
C1183  H1211   1.081   .     S
C1183  N1214   1.366   .     A
C1184  H1212   1.082   .     S
C1184  N1213   1.367   .     A
C1184  C713    1.417   1_565 S
C1185  C1190   1.422   .     S
C1185  O1222   1.281   .     A
C1185  O1219   1.281   .     A
C1186  O1221   1.281   .     A
C1186  O1220   1.281   .     A
C1186  C1189   1.421   .     S
C1187  N1225   1.429   .     S
C1187  C1197   1.400   .     A
C1187  C1189   1.399   .     A
C1188  C1198   1.400   .     A
C1188  N1231   1.429   .     S
C1188  C1190   1.399   .     A
C1189  C1191   1.401   .     A
C1190  C1192   1.401   .     A
C1191  N1237   1.430   .     S
C1191  C1193   1.394   .     A
C1192  C1194   1.395   .     A
C1192  N1243   1.430   .     S
C1193  C1199   1.401   .     A
C1193  C1195   1.416   .     A
C1194  C1196   1.416   .     A
C1194  C1200   1.401   .     A
C1195  C1197   1.418   .     A
C1195  C494    1.404   1_556 S
C1196  C1198   1.418   .     A
C1199  H1201   1.083   .     S
C1199  C471    1.381   1_556 S
C1200  H1202   1.083   .     S
N1213  Zn1223  2.009   .     S
N1214  Zn1224  2.009   .     S
O1215  Zn1223  1.997   .     S
O1216  Zn1224  1.997   .     S
O1217  Zn1223  1.997   .     S
O1218  Zn1224  1.997   .     S
O1219  Zn1223  2.010   .     S
O1220  Zn1224  2.010   .     S
O1221  Zn1223  2.011   .     S
O1222  Zn1224  2.011   .     S
N1225  H1226   1.031   .     S
N1225  C1227   1.447   .     S
C1227  H1229   1.110   .     S
C1227  H1230   1.110   .     S
C1227  H1228   1.111   .     S
N1231  C1233   1.447   .     S
N1231  H1232   1.031   .     S
C1233  H1235   1.110   .     S
C1233  H1236   1.109   .     S
C1233  H1234   1.110   .     S
N1237  H1238   1.031   .     S
N1237  C1239   1.447   .     S
C1239  H1241   1.111   .     S
C1239  H1242   1.110   .     S
C1239  H1240   1.111   .     S
N1243  H1244   1.031   .     S
N1243  C1245   1.447   .     S
C1245  H1246   1.111   .     S
C1245  H1247   1.111   .     S
C1245  H1248   1.111   .     S
C1249  O1296   1.282   .     A
C1249  C1258   1.417   .     S
C1249  O1293   1.282   .     A
C1250  O1294   1.282   .     A
C1250  O1295   1.282   .     A
C1250  C1257   1.417   .     S
C1251  C1276   1.403   .     A
C1251  H1281   1.081   .     S
C1252  H1282   1.081   .     S
C1252  C1275   1.403   .     A
C1252  C576    1.382   1_556 S
C1253  C1258   1.397   .     A
C1253  H1283   1.084   .     S
C1254  C1257   1.397   .     A
C1254  H1284   1.084   .     S
C1254  C1334   1.368   .     S
C1255  H1285   1.084   .     S
C1255  C1257   1.397   .     A
C1255  C1331   1.368   .     S
C1256  H1286   1.084   .     S
C1256  C1258   1.397   .     A
C1259  N1292   1.366   .     A
C1259  H1287   1.082   .     S
C1260  N1291   1.366   .     A
C1260  H1288   1.082   .     S
C1260  C793    1.416   1_565 S
C1261  H1289   1.081   .     S
C1261  N1292   1.366   .     A
C1262  H1290   1.082   .     S
C1262  N1291   1.367   .     A
C1262  C791    1.417   1_565 S
C1263  C1268   1.422   .     S
C1263  O1300   1.281   .     A
C1263  O1297   1.281   .     A
C1264  O1299   1.281   .     A
C1264  O1298   1.281   .     A
C1264  C1267   1.421   .     S
C1265  N1303   1.429   .     S
C1265  C1275   1.400   .     A
C1265  C1267   1.399   .     A
C1266  C1276   1.400   .     A
C1266  N1309   1.429   .     S
C1266  C1268   1.399   .     A
C1267  C1269   1.401   .     A
C1268  C1270   1.401   .     A
C1269  N1315   1.430   .     S
C1269  C1271   1.394   .     A
C1270  C1272   1.395   .     A
C1270  N1321   1.430   .     S
C1271  C1277   1.401   .     A
C1271  C1273   1.416   .     A
C1272  C1274   1.416   .     A
C1272  C1278   1.401   .     A
C1273  C1275   1.418   .     A
C1273  C572    1.404   1_556 S
C1274  C1276   1.418   .     A
C1277  H1279   1.083   .     S
C1277  C549    1.381   1_556 S
C1278  H1280   1.083   .     S
N1291  Zn1301  2.009   .     S
N1292  Zn1302  2.009   .     S
O1293  Zn1301  1.997   .     S
O1294  Zn1302  1.997   .     S
O1295  Zn1301  1.997   .     S
O1296  Zn1302  1.997   .     S
O1297  Zn1301  2.010   .     S
O1298  Zn1302  2.010   .     S
O1299  Zn1301  2.011   .     S
O1300  Zn1302  2.011   .     S
N1303  H1304   1.031   .     S
N1303  C1305   1.447   .     S
C1305  H1307   1.110   .     S
C1305  H1308   1.110   .     S
C1305  H1306   1.111   .     S
N1309  C1311   1.447   .     S
N1309  H1310   1.031   .     S
C1311  H1313   1.110   .     S
C1311  H1314   1.109   .     S
C1311  H1312   1.110   .     S
N1315  H1316   1.031   .     S
N1315  C1317   1.447   .     S
C1317  H1319   1.111   .     S
C1317  H1320   1.110   .     S
C1317  H1318   1.111   .     S
N1321  H1322   1.031   .     S
N1321  C1323   1.447   .     S
C1323  H1324   1.111   .     S
C1323  H1325   1.111   .     S
C1323  H1326   1.111   .     S
C1327  O1374   1.282   .     A
C1327  C1336   1.417   .     S
C1327  O1371   1.282   .     A
C1328  O1372   1.282   .     A
C1328  O1373   1.282   .     A
C1328  C1335   1.417   .     S
C1329  C1354   1.403   .     A
C1329  H1359   1.081   .     S
C1330  H1360   1.081   .     S
C1330  C1353   1.403   .     A
C1330  C654    1.382   1_556 S
C1331  C1336   1.397   .     A
C1331  H1361   1.084   .     S
C1332  C1335   1.397   .     A
C1332  H1362   1.084   .     S
C1332  C1178   1.368   1_655 S
C1333  H1363   1.084   .     S
C1333  C1335   1.397   .     A
C1333  C1175   1.368   1_655 S
C1334  H1364   1.084   .     S
C1334  C1336   1.397   .     A
C1337  N1370   1.366   .     A
C1337  H1365   1.082   .     S
C1338  N1369   1.366   .     A
C1338  H1366   1.082   .     S
C1338  C871    1.416   1_565 S
C1339  H1367   1.081   .     S
C1339  N1370   1.366   .     A
C1340  H1368   1.082   .     S
C1340  N1369   1.367   .     A
C1340  C869    1.417   1_565 S
C1341  C1346   1.422   .     S
C1341  O1378   1.281   .     A
C1341  O1375   1.281   .     A
C1342  O1377   1.281   .     A
C1342  O1376   1.281   .     A
C1342  C1345   1.421   .     S
C1343  N1381   1.429   .     S
C1343  C1353   1.400   .     A
C1343  C1345   1.399   .     A
C1344  C1354   1.400   .     A
C1344  N1387   1.429   .     S
C1344  C1346   1.399   .     A
C1345  C1347   1.401   .     A
C1346  C1348   1.401   .     A
C1347  N1393   1.430   .     S
C1347  C1349   1.394   .     A
C1348  C1350   1.395   .     A
C1348  N1399   1.430   .     S
C1349  C1355   1.401   .     A
C1349  C1351   1.416   .     A
C1350  C1352   1.416   .     A
C1350  C1356   1.401   .     A
C1351  C1353   1.418   .     A
C1351  C650    1.404   1_556 S
C1352  C1354   1.418   .     A
C1355  H1357   1.083   .     S
C1355  C627    1.381   1_556 S
C1356  H1358   1.083   .     S
N1369  Zn1379  2.009   .     S
N1370  Zn1380  2.009   .     S
O1371  Zn1379  1.997   .     S
O1372  Zn1380  1.997   .     S
O1373  Zn1379  1.997   .     S
O1374  Zn1380  1.997   .     S
O1375  Zn1379  2.010   .     S
O1376  Zn1380  2.010   .     S
O1377  Zn1379  2.011   .     S
O1378  Zn1380  2.011   .     S
N1381  H1382   1.031   .     S
N1381  C1383   1.447   .     S
C1383  H1385   1.110   .     S
C1383  H1386   1.110   .     S
C1383  H1384   1.111   .     S
N1387  C1389   1.447   .     S
N1387  H1388   1.031   .     S
C1389  H1391   1.110   .     S
C1389  H1392   1.109   .     S
C1389  H1390   1.110   .     S
N1393  H1394   1.031   .     S
N1393  C1395   1.447   .     S
C1395  H1397   1.111   .     S
C1395  H1398   1.110   .     S
C1395  H1396   1.111   .     S
N1399  H1400   1.031   .     S
N1399  C1401   1.447   .     S
C1401  H1402   1.111   .     S
C1401  H1403   1.111   .     S
C1401  H1404   1.111   .     S
