data_str_m2_o10_o18_pcu_sym.89
_audit_creation_date              2020-01-03
_audit_creation_method            'Materials Studio'
_symmetry_space_group_name_H-M    'P1'
_symmetry_Int_Tables_number       1
_symmetry_cell_setting            triclinic
loop_
_symmetry_equiv_pos_as_xyz
  x,y,z
_cell_length_a                    22.2775
_cell_length_b                    26.0774
_cell_length_c                    31.5195
_cell_angle_alpha                 94.1998
_cell_angle_beta                  74.4899
_cell_angle_gamma                 103.2608
loop_
_atom_site_label
_atom_site_type_symbol
_atom_site_fract_x
_atom_site_fract_y
_atom_site_fract_z
_atom_site_U_iso_or_equiv
_atom_site_adp_type
_atom_site_occupancy
C1     C     0.18172   0.26674   0.25131   0.00000  Uiso   1.00
C2     C     0.20585   0.17080   0.16666   0.00000  Uiso   1.00
C3     C     0.10251   0.15597   0.38148   0.00000  Uiso   1.00
C4     C     0.23082   0.17736   0.11853   0.00000  Uiso   1.00
C5     C     0.02528   0.11288   0.44556   0.00000  Uiso   1.00
C6     C     0.30806   0.22045   0.05444   0.00000  Uiso   1.00
C7     C     0.04310   0.12237   0.40044   0.00000  Uiso   1.00
C8     C     0.29023   0.21097   0.09956   0.00000  Uiso   1.00
C9     C     0.14220   0.18024   0.40864   0.00000  Uiso   1.00
C10    C     0.19113   0.15310   0.09137   0.00000  Uiso   1.00
C11    C     0.13007   0.16203   0.45201   0.00000  Uiso   1.00
C12    C     0.15162   0.06660   0.24869   0.00000  Uiso   1.00
C13    C     0.20326   0.17130   0.04799   0.00000  Uiso   1.00
C14    C     0.06828   0.13194   0.47126   0.00000  Uiso   1.00
C15    C     0.26505   0.20139   0.02874   0.00000  Uiso   1.00
C16    C     0.17628   0.17293   0.47720   0.00000  Uiso   1.00
C17    C     0.15706   0.16040   0.02280   0.00000  Uiso   1.00
C18    C     0.00084   0.23594   0.12518   0.00000  Uiso   1.00
C19    C     0.33250   0.09739   0.37482   0.00000  Uiso   1.00
C20    C     0.09174   0.14014   0.04214   0.00000  Uiso   1.00
C21    C     0.24160   0.19319   0.45786   0.00000  Uiso   1.00
C22    C     0.04911   0.12293   0.01641   0.00000  Uiso   1.00
C23    C     0.28422   0.21040   0.48359   0.00000  Uiso   1.00
C24    C     0.19017   0.32271   0.25198   0.00000  Uiso   1.00
C25    C     0.14316   0.01062   0.24802   0.00000  Uiso   1.00
C26    C     0.12748   0.16253   0.33334   0.00000  Uiso   1.00
Cl27   Cl    0.13930   0.09129   0.10837   0.00000  Uiso   1.00
Cl28   Cl    0.19403   0.24204   0.39163   0.00000  Uiso   1.00
Cu29   Cu    0.10737   0.16108   0.24517   0.00000  Uiso   1.00
Cu30   Cu    0.22596   0.17225   0.25484   0.00000  Uiso   1.00
H31    H     0.00021   0.10410   0.03219   0.00000  Uiso   1.00
H32    H     0.33223   0.12849   0.21540   0.00000  Uiso   1.00
H33    H     0.33312   0.22923   0.46781   0.00000  Uiso   1.00
H34    H     0.31171   0.08917   0.46049   0.00000  Uiso   1.00
H35    H     0.02162   0.24416   0.03951   0.00000  Uiso   1.00
H36    H     0.07234   0.13768   0.07733   0.00000  Uiso   1.00
H37    H     0.26099   0.19565   0.42267   0.00000  Uiso   1.00
H38    H     0.23544   0.01322   0.25574   0.00000  Uiso   1.00
H39    H     0.09789   0.32011   0.24426   0.00000  Uiso   1.00
H40    H     0.00110   0.20485   0.28460   0.00000  Uiso   1.00
N41    N     0.31506   0.18068   0.26212   0.00000  Uiso   1.00
N42    N     0.01827   0.15265   0.23788   0.00000  Uiso   1.00
N43    N     0.03614   0.25595   0.14562   0.00000  Uiso   1.00
N44    N     0.29719   0.07738   0.35438   0.00000  Uiso   1.00
O45    O     0.12815   0.23809   0.24686   0.00000  Uiso   1.00
O46    O     0.20518   0.09524   0.25314   0.00000  Uiso   1.00
O47    O     0.22829   0.24753   0.25503   0.00000  Uiso   1.00
O48    O     0.10504   0.08580   0.24498   0.00000  Uiso   1.00
O49    O     0.08851   0.15930   0.30855   0.00000  Uiso   1.00
O50    O     0.24482   0.17403   0.19146   0.00000  Uiso   1.00
O51    O     0.18866   0.16874   0.31671   0.00000  Uiso   1.00
O52    O     0.14468   0.16460   0.18329   0.00000  Uiso   1.00
C53    C     0.51505   0.26674   0.25131   0.00000  Uiso   1.00
C54    C     0.53919   0.17080   0.16666   0.00000  Uiso   1.00
C55    C     0.43585   0.15597   0.38148   0.00000  Uiso   1.00
C56    C     0.56415   0.17736   0.11853   0.00000  Uiso   1.00
C57    C     0.35861   0.11288   0.44556   0.00000  Uiso   1.00
C58    C     0.64139   0.22045   0.05444   0.00000  Uiso   1.00
C59    C     0.37643   0.12237   0.40044   0.00000  Uiso   1.00
C60    C     0.62357   0.21097   0.09956   0.00000  Uiso   1.00
C61    C     0.47554   0.18024   0.40864   0.00000  Uiso   1.00
C62    C     0.52446   0.15310   0.09137   0.00000  Uiso   1.00
C63    C     0.46340   0.16203   0.45201   0.00000  Uiso   1.00
C64    C     0.48495   0.06660   0.24869   0.00000  Uiso   1.00
C65    C     0.53660   0.17130   0.04799   0.00000  Uiso   1.00
C66    C     0.40162   0.13194   0.47126   0.00000  Uiso   1.00
C67    C     0.59838   0.20139   0.02874   0.00000  Uiso   1.00
C68    C     0.50961   0.17293   0.47720   0.00000  Uiso   1.00
C69    C     0.49039   0.16040   0.02280   0.00000  Uiso   1.00
C70    C     0.33417   0.23594   0.12518   0.00000  Uiso   1.00
C71    C     0.66583   0.09739   0.37482   0.00000  Uiso   1.00
C72    C     0.42507   0.14014   0.04214   0.00000  Uiso   1.00
C73    C     0.57493   0.19319   0.45786   0.00000  Uiso   1.00
C74    C     0.38244   0.12293   0.01641   0.00000  Uiso   1.00
C75    C     0.61756   0.21040   0.48359   0.00000  Uiso   1.00
C76    C     0.52350   0.32271   0.25198   0.00000  Uiso   1.00
C77    C     0.47650   0.01062   0.24802   0.00000  Uiso   1.00
C78    C     0.46081   0.16253   0.33334   0.00000  Uiso   1.00
Cl79   Cl    0.47263   0.09129   0.10837   0.00000  Uiso   1.00
Cl80   Cl    0.52737   0.24204   0.39163   0.00000  Uiso   1.00
Cu81   Cu    0.44071   0.16108   0.24517   0.00000  Uiso   1.00
Cu82   Cu    0.55929   0.17225   0.25484   0.00000  Uiso   1.00
H83    H     0.33355   0.10410   0.03219   0.00000  Uiso   1.00
H84    H     0.66556   0.12849   0.21540   0.00000  Uiso   1.00
H85    H     0.66645   0.22923   0.46781   0.00000  Uiso   1.00
H86    H     0.64504   0.08917   0.46049   0.00000  Uiso   1.00
H87    H     0.35496   0.24416   0.03951   0.00000  Uiso   1.00
H88    H     0.40567   0.13768   0.07733   0.00000  Uiso   1.00
H89    H     0.59433   0.19565   0.42267   0.00000  Uiso   1.00
H90    H     0.56877   0.01322   0.25574   0.00000  Uiso   1.00
H91    H     0.43123   0.32011   0.24426   0.00000  Uiso   1.00
H92    H     0.33444   0.20485   0.28460   0.00000  Uiso   1.00
N93    N     0.64839   0.18068   0.26212   0.00000  Uiso   1.00
N94    N     0.35161   0.15265   0.23788   0.00000  Uiso   1.00
N95    N     0.36948   0.25595   0.14562   0.00000  Uiso   1.00
N96    N     0.63052   0.07738   0.35438   0.00000  Uiso   1.00
O97    O     0.46148   0.23809   0.24686   0.00000  Uiso   1.00
O98    O     0.53852   0.09524   0.25314   0.00000  Uiso   1.00
O99    O     0.56163   0.24753   0.25503   0.00000  Uiso   1.00
O100   O     0.43837   0.08580   0.24498   0.00000  Uiso   1.00
O101   O     0.42185   0.15930   0.30855   0.00000  Uiso   1.00
O102   O     0.57815   0.17403   0.19146   0.00000  Uiso   1.00
O103   O     0.52199   0.16874   0.31671   0.00000  Uiso   1.00
O104   O     0.47801   0.16460   0.18329   0.00000  Uiso   1.00
C105   C     0.84838   0.26674   0.25131   0.00000  Uiso   1.00
C106   C     0.87252   0.17080   0.16666   0.00000  Uiso   1.00
C107   C     0.76918   0.15597   0.38148   0.00000  Uiso   1.00
C108   C     0.89749   0.17736   0.11853   0.00000  Uiso   1.00
C109   C     0.69194   0.11288   0.44556   0.00000  Uiso   1.00
C110   C     0.97472   0.22045   0.05444   0.00000  Uiso   1.00
C111   C     0.70976   0.12237   0.40044   0.00000  Uiso   1.00
C112   C     0.95690   0.21097   0.09956   0.00000  Uiso   1.00
C113   C     0.80887   0.18024   0.40864   0.00000  Uiso   1.00
C114   C     0.85780   0.15310   0.09137   0.00000  Uiso   1.00
C115   C     0.79674   0.16203   0.45201   0.00000  Uiso   1.00
C116   C     0.81828   0.06660   0.24869   0.00000  Uiso   1.00
C117   C     0.86993   0.17130   0.04799   0.00000  Uiso   1.00
C118   C     0.73495   0.13194   0.47126   0.00000  Uiso   1.00
C119   C     0.93172   0.20139   0.02874   0.00000  Uiso   1.00
C120   C     0.84294   0.17293   0.47720   0.00000  Uiso   1.00
C121   C     0.82372   0.16040   0.02280   0.00000  Uiso   1.00
C122   C     0.66750   0.23594   0.12518   0.00000  Uiso   1.00
C123   C     0.99916   0.09739   0.37482   0.00000  Uiso   1.00
C124   C     0.75840   0.14014   0.04214   0.00000  Uiso   1.00
C125   C     0.90826   0.19319   0.45786   0.00000  Uiso   1.00
C126   C     0.71578   0.12293   0.01641   0.00000  Uiso   1.00
C127   C     0.95089   0.21040   0.48359   0.00000  Uiso   1.00
C128   C     0.85684   0.32271   0.25198   0.00000  Uiso   1.00
C129   C     0.80983   0.01062   0.24802   0.00000  Uiso   1.00
C130   C     0.79415   0.16253   0.33334   0.00000  Uiso   1.00
Cl131  Cl    0.80597   0.09129   0.10837   0.00000  Uiso   1.00
Cl132  Cl    0.86070   0.24204   0.39163   0.00000  Uiso   1.00
Cu133  Cu    0.77404   0.16108   0.24517   0.00000  Uiso   1.00
Cu134  Cu    0.89263   0.17225   0.25484   0.00000  Uiso   1.00
H135   H     0.66688   0.10410   0.03219   0.00000  Uiso   1.00
H136   H     0.99890   0.12849   0.21540   0.00000  Uiso   1.00
H137   H     0.99979   0.22923   0.46781   0.00000  Uiso   1.00
H138   H     0.97838   0.08917   0.46049   0.00000  Uiso   1.00
H139   H     0.68829   0.24416   0.03951   0.00000  Uiso   1.00
H140   H     0.73901   0.13768   0.07733   0.00000  Uiso   1.00
H141   H     0.92766   0.19565   0.42267   0.00000  Uiso   1.00
H142   H     0.90211   0.01322   0.25574   0.00000  Uiso   1.00
H143   H     0.76456   0.32011   0.24426   0.00000  Uiso   1.00
H144   H     0.66777   0.20485   0.28460   0.00000  Uiso   1.00
N145   N     0.98173   0.18068   0.26212   0.00000  Uiso   1.00
N146   N     0.68494   0.15265   0.23788   0.00000  Uiso   1.00
N147   N     0.70281   0.25595   0.14562   0.00000  Uiso   1.00
N148   N     0.96386   0.07738   0.35438   0.00000  Uiso   1.00
O149   O     0.79482   0.23809   0.24686   0.00000  Uiso   1.00
O150   O     0.87185   0.09524   0.25314   0.00000  Uiso   1.00
O151   O     0.89496   0.24753   0.25503   0.00000  Uiso   1.00
O152   O     0.77171   0.08580   0.24498   0.00000  Uiso   1.00
O153   O     0.75518   0.15930   0.30855   0.00000  Uiso   1.00
O154   O     0.91149   0.17403   0.19146   0.00000  Uiso   1.00
O155   O     0.85532   0.16874   0.31671   0.00000  Uiso   1.00
O156   O     0.81134   0.16460   0.18329   0.00000  Uiso   1.00
C157   C     0.18172   0.60007   0.25131   0.00000  Uiso   1.00
C158   C     0.20585   0.50413   0.16666   0.00000  Uiso   1.00
C159   C     0.10251   0.48930   0.38148   0.00000  Uiso   1.00
C160   C     0.23082   0.51070   0.11853   0.00000  Uiso   1.00
C161   C     0.02528   0.44621   0.44556   0.00000  Uiso   1.00
C162   C     0.30806   0.55379   0.05444   0.00000  Uiso   1.00
C163   C     0.04310   0.45570   0.40044   0.00000  Uiso   1.00
C164   C     0.29023   0.54430   0.09956   0.00000  Uiso   1.00
C165   C     0.14220   0.51357   0.40864   0.00000  Uiso   1.00
C166   C     0.19113   0.48643   0.09137   0.00000  Uiso   1.00
C167   C     0.13007   0.49537   0.45201   0.00000  Uiso   1.00
C168   C     0.15162   0.39993   0.24869   0.00000  Uiso   1.00
C169   C     0.20326   0.50463   0.04799   0.00000  Uiso   1.00
C170   C     0.06828   0.46528   0.47126   0.00000  Uiso   1.00
C171   C     0.26505   0.53472   0.02874   0.00000  Uiso   1.00
C172   C     0.17628   0.50627   0.47720   0.00000  Uiso   1.00
C173   C     0.15706   0.49373   0.02280   0.00000  Uiso   1.00
C174   C     0.00084   0.56927   0.12518   0.00000  Uiso   1.00
C175   C     0.33250   0.43072   0.37482   0.00000  Uiso   1.00
C176   C     0.09174   0.47347   0.04214   0.00000  Uiso   1.00
C177   C     0.24160   0.52653   0.45786   0.00000  Uiso   1.00
C178   C     0.04911   0.45627   0.01641   0.00000  Uiso   1.00
C179   C     0.28422   0.54373   0.48359   0.00000  Uiso   1.00
C180   C     0.19017   0.65605   0.25198   0.00000  Uiso   1.00
C181   C     0.14316   0.34395   0.24802   0.00000  Uiso   1.00
C182   C     0.12748   0.49586   0.33334   0.00000  Uiso   1.00
Cl183  Cl    0.13930   0.42463   0.10837   0.00000  Uiso   1.00
Cl184  Cl    0.19403   0.57537   0.39163   0.00000  Uiso   1.00
Cu185  Cu    0.10737   0.49441   0.24517   0.00000  Uiso   1.00
Cu186  Cu    0.22596   0.50559   0.25484   0.00000  Uiso   1.00
H187   H     0.00021   0.43743   0.03219   0.00000  Uiso   1.00
H188   H     0.33223   0.46182   0.21540   0.00000  Uiso   1.00
H189   H     0.33312   0.56257   0.46781   0.00000  Uiso   1.00
H190   H     0.31171   0.42251   0.46049   0.00000  Uiso   1.00
H191   H     0.02162   0.57749   0.03951   0.00000  Uiso   1.00
H192   H     0.07234   0.47102   0.07733   0.00000  Uiso   1.00
H193   H     0.26099   0.52898   0.42267   0.00000  Uiso   1.00
H194   H     0.23544   0.34655   0.25574   0.00000  Uiso   1.00
H195   H     0.09789   0.65344   0.24426   0.00000  Uiso   1.00
H196   H     0.00110   0.53818   0.28460   0.00000  Uiso   1.00
N197   N     0.31506   0.51401   0.26212   0.00000  Uiso   1.00
N198   N     0.01827   0.48599   0.23788   0.00000  Uiso   1.00
N199   N     0.03614   0.58928   0.14562   0.00000  Uiso   1.00
N200   N     0.29719   0.41072   0.35438   0.00000  Uiso   1.00
O201   O     0.12815   0.57142   0.24686   0.00000  Uiso   1.00
O202   O     0.20518   0.42858   0.25314   0.00000  Uiso   1.00
O203   O     0.22829   0.58086   0.25503   0.00000  Uiso   1.00
O204   O     0.10504   0.41914   0.24498   0.00000  Uiso   1.00
O205   O     0.08851   0.49263   0.30855   0.00000  Uiso   1.00
O206   O     0.24482   0.50737   0.19146   0.00000  Uiso   1.00
O207   O     0.18866   0.50207   0.31671   0.00000  Uiso   1.00
O208   O     0.14468   0.49793   0.18329   0.00000  Uiso   1.00
C209   C     0.51505   0.60007   0.25131   0.00000  Uiso   1.00
C210   C     0.53919   0.50413   0.16666   0.00000  Uiso   1.00
C211   C     0.43585   0.48930   0.38148   0.00000  Uiso   1.00
C212   C     0.56415   0.51070   0.11853   0.00000  Uiso   1.00
C213   C     0.35861   0.44621   0.44556   0.00000  Uiso   1.00
C214   C     0.64139   0.55379   0.05444   0.00000  Uiso   1.00
C215   C     0.37643   0.45570   0.40044   0.00000  Uiso   1.00
C216   C     0.62357   0.54430   0.09956   0.00000  Uiso   1.00
C217   C     0.47554   0.51357   0.40864   0.00000  Uiso   1.00
C218   C     0.52446   0.48643   0.09137   0.00000  Uiso   1.00
C219   C     0.46340   0.49537   0.45201   0.00000  Uiso   1.00
C220   C     0.48495   0.39993   0.24869   0.00000  Uiso   1.00
C221   C     0.53660   0.50463   0.04799   0.00000  Uiso   1.00
C222   C     0.40162   0.46528   0.47126   0.00000  Uiso   1.00
C223   C     0.59838   0.53472   0.02874   0.00000  Uiso   1.00
C224   C     0.50961   0.50627   0.47720   0.00000  Uiso   1.00
C225   C     0.49039   0.49373   0.02280   0.00000  Uiso   1.00
C226   C     0.33417   0.56927   0.12518   0.00000  Uiso   1.00
C227   C     0.66583   0.43072   0.37482   0.00000  Uiso   1.00
C228   C     0.42507   0.47347   0.04214   0.00000  Uiso   1.00
C229   C     0.57493   0.52653   0.45786   0.00000  Uiso   1.00
C230   C     0.38244   0.45627   0.01641   0.00000  Uiso   1.00
C231   C     0.61756   0.54373   0.48359   0.00000  Uiso   1.00
C232   C     0.52350   0.65605   0.25198   0.00000  Uiso   1.00
C233   C     0.47650   0.34395   0.24802   0.00000  Uiso   1.00
C234   C     0.46081   0.49586   0.33334   0.00000  Uiso   1.00
Cl235  Cl    0.47263   0.42463   0.10837   0.00000  Uiso   1.00
Cl236  Cl    0.52737   0.57537   0.39163   0.00000  Uiso   1.00
Cu237  Cu    0.44071   0.49441   0.24517   0.00000  Uiso   1.00
Cu238  Cu    0.55929   0.50559   0.25484   0.00000  Uiso   1.00
H239   H     0.33355   0.43743   0.03219   0.00000  Uiso   1.00
H240   H     0.66556   0.46182   0.21540   0.00000  Uiso   1.00
H241   H     0.66645   0.56257   0.46781   0.00000  Uiso   1.00
H242   H     0.64504   0.42251   0.46049   0.00000  Uiso   1.00
H243   H     0.35496   0.57749   0.03951   0.00000  Uiso   1.00
H244   H     0.40567   0.47102   0.07733   0.00000  Uiso   1.00
H245   H     0.59433   0.52898   0.42267   0.00000  Uiso   1.00
H246   H     0.56877   0.34655   0.25574   0.00000  Uiso   1.00
H247   H     0.43123   0.65344   0.24426   0.00000  Uiso   1.00
H248   H     0.33444   0.53818   0.28460   0.00000  Uiso   1.00
N249   N     0.64839   0.51401   0.26212   0.00000  Uiso   1.00
N250   N     0.35161   0.48599   0.23788   0.00000  Uiso   1.00
N251   N     0.36948   0.58928   0.14562   0.00000  Uiso   1.00
N252   N     0.63052   0.41072   0.35438   0.00000  Uiso   1.00
O253   O     0.46148   0.57142   0.24686   0.00000  Uiso   1.00
O254   O     0.53852   0.42858   0.25314   0.00000  Uiso   1.00
O255   O     0.56163   0.58086   0.25503   0.00000  Uiso   1.00
O256   O     0.43837   0.41914   0.24498   0.00000  Uiso   1.00
O257   O     0.42185   0.49263   0.30855   0.00000  Uiso   1.00
O258   O     0.57815   0.50737   0.19146   0.00000  Uiso   1.00
O259   O     0.52199   0.50207   0.31671   0.00000  Uiso   1.00
O260   O     0.47801   0.49793   0.18329   0.00000  Uiso   1.00
C261   C     0.84838   0.60007   0.25131   0.00000  Uiso   1.00
C262   C     0.87252   0.50413   0.16666   0.00000  Uiso   1.00
C263   C     0.76918   0.48930   0.38148   0.00000  Uiso   1.00
C264   C     0.89749   0.51070   0.11853   0.00000  Uiso   1.00
C265   C     0.69194   0.44621   0.44556   0.00000  Uiso   1.00
C266   C     0.97472   0.55379   0.05444   0.00000  Uiso   1.00
C267   C     0.70976   0.45570   0.40044   0.00000  Uiso   1.00
C268   C     0.95690   0.54430   0.09956   0.00000  Uiso   1.00
C269   C     0.80887   0.51357   0.40864   0.00000  Uiso   1.00
C270   C     0.85780   0.48643   0.09137   0.00000  Uiso   1.00
C271   C     0.79674   0.49537   0.45201   0.00000  Uiso   1.00
C272   C     0.81828   0.39993   0.24869   0.00000  Uiso   1.00
C273   C     0.86993   0.50463   0.04799   0.00000  Uiso   1.00
C274   C     0.73495   0.46528   0.47126   0.00000  Uiso   1.00
C275   C     0.93172   0.53472   0.02874   0.00000  Uiso   1.00
C276   C     0.84294   0.50627   0.47720   0.00000  Uiso   1.00
C277   C     0.82372   0.49373   0.02280   0.00000  Uiso   1.00
C278   C     0.66750   0.56927   0.12518   0.00000  Uiso   1.00
C279   C     0.99916   0.43072   0.37482   0.00000  Uiso   1.00
C280   C     0.75840   0.47347   0.04214   0.00000  Uiso   1.00
C281   C     0.90826   0.52653   0.45786   0.00000  Uiso   1.00
C282   C     0.71578   0.45627   0.01641   0.00000  Uiso   1.00
C283   C     0.95089   0.54373   0.48359   0.00000  Uiso   1.00
C284   C     0.85684   0.65605   0.25198   0.00000  Uiso   1.00
C285   C     0.80983   0.34395   0.24802   0.00000  Uiso   1.00
C286   C     0.79415   0.49586   0.33334   0.00000  Uiso   1.00
Cl287  Cl    0.80597   0.42463   0.10837   0.00000  Uiso   1.00
Cl288  Cl    0.86070   0.57537   0.39163   0.00000  Uiso   1.00
Cu289  Cu    0.77404   0.49441   0.24517   0.00000  Uiso   1.00
Cu290  Cu    0.89263   0.50559   0.25484   0.00000  Uiso   1.00
H291   H     0.66688   0.43743   0.03219   0.00000  Uiso   1.00
H292   H     0.99890   0.46182   0.21540   0.00000  Uiso   1.00
H293   H     0.99979   0.56257   0.46781   0.00000  Uiso   1.00
H294   H     0.97838   0.42251   0.46049   0.00000  Uiso   1.00
H295   H     0.68829   0.57749   0.03951   0.00000  Uiso   1.00
H296   H     0.73901   0.47102   0.07733   0.00000  Uiso   1.00
H297   H     0.92766   0.52898   0.42267   0.00000  Uiso   1.00
H298   H     0.90211   0.34655   0.25574   0.00000  Uiso   1.00
H299   H     0.76456   0.65344   0.24426   0.00000  Uiso   1.00
H300   H     0.66777   0.53818   0.28460   0.00000  Uiso   1.00
N301   N     0.98173   0.51401   0.26212   0.00000  Uiso   1.00
N302   N     0.68494   0.48599   0.23788   0.00000  Uiso   1.00
N303   N     0.70281   0.58928   0.14562   0.00000  Uiso   1.00
N304   N     0.96386   0.41072   0.35438   0.00000  Uiso   1.00
O305   O     0.79482   0.57142   0.24686   0.00000  Uiso   1.00
O306   O     0.87185   0.42858   0.25314   0.00000  Uiso   1.00
O307   O     0.89496   0.58086   0.25503   0.00000  Uiso   1.00
O308   O     0.77171   0.41914   0.24498   0.00000  Uiso   1.00
O309   O     0.75518   0.49263   0.30855   0.00000  Uiso   1.00
O310   O     0.91149   0.50737   0.19146   0.00000  Uiso   1.00
O311   O     0.85532   0.50207   0.31671   0.00000  Uiso   1.00
O312   O     0.81134   0.49793   0.18329   0.00000  Uiso   1.00
C313   C     0.18172   0.93340   0.25131   0.00000  Uiso   1.00
C314   C     0.20585   0.83747   0.16666   0.00000  Uiso   1.00
C315   C     0.10251   0.82264   0.38148   0.00000  Uiso   1.00
C316   C     0.23082   0.84403   0.11853   0.00000  Uiso   1.00
C317   C     0.02528   0.77955   0.44556   0.00000  Uiso   1.00
C318   C     0.30806   0.88712   0.05444   0.00000  Uiso   1.00
C319   C     0.04310   0.78903   0.40044   0.00000  Uiso   1.00
C320   C     0.29023   0.87763   0.09956   0.00000  Uiso   1.00
C321   C     0.14220   0.84690   0.40864   0.00000  Uiso   1.00
C322   C     0.19113   0.81976   0.09137   0.00000  Uiso   1.00
C323   C     0.13007   0.82870   0.45201   0.00000  Uiso   1.00
C324   C     0.15162   0.73326   0.24869   0.00000  Uiso   1.00
C325   C     0.20326   0.83797   0.04799   0.00000  Uiso   1.00
C326   C     0.06828   0.79861   0.47126   0.00000  Uiso   1.00
C327   C     0.26505   0.86805   0.02874   0.00000  Uiso   1.00
C328   C     0.17628   0.83960   0.47720   0.00000  Uiso   1.00
C329   C     0.15706   0.82707   0.02280   0.00000  Uiso   1.00
C330   C     0.00084   0.90261   0.12518   0.00000  Uiso   1.00
C331   C     0.33250   0.76406   0.37482   0.00000  Uiso   1.00
C332   C     0.09174   0.80681   0.04214   0.00000  Uiso   1.00
C333   C     0.24160   0.85986   0.45786   0.00000  Uiso   1.00
C334   C     0.04911   0.78960   0.01641   0.00000  Uiso   1.00
C335   C     0.28422   0.87707   0.48359   0.00000  Uiso   1.00
C336   C     0.19017   0.98938   0.25198   0.00000  Uiso   1.00
C337   C     0.14316   0.67729   0.24802   0.00000  Uiso   1.00
C338   C     0.12748   0.82920   0.33334   0.00000  Uiso   1.00
Cl339  Cl    0.13930   0.75796   0.10837   0.00000  Uiso   1.00
Cl340  Cl    0.19403   0.90870   0.39163   0.00000  Uiso   1.00
Cu341  Cu    0.10737   0.82775   0.24517   0.00000  Uiso   1.00
Cu342  Cu    0.22596   0.83892   0.25484   0.00000  Uiso   1.00
H343   H     0.00021   0.77077   0.03219   0.00000  Uiso   1.00
H344   H     0.33223   0.79515   0.21540   0.00000  Uiso   1.00
H345   H     0.33312   0.89590   0.46781   0.00000  Uiso   1.00
H346   H     0.31171   0.75584   0.46049   0.00000  Uiso   1.00
H347   H     0.02162   0.91082   0.03951   0.00000  Uiso   1.00
H348   H     0.07234   0.80435   0.07733   0.00000  Uiso   1.00
H349   H     0.26099   0.86232   0.42267   0.00000  Uiso   1.00
H350   H     0.23544   0.67989   0.25574   0.00000  Uiso   1.00
H351   H     0.09789   0.98678   0.24426   0.00000  Uiso   1.00
H352   H     0.00110   0.87151   0.28460   0.00000  Uiso   1.00
N353   N     0.31506   0.84735   0.26212   0.00000  Uiso   1.00
N354   N     0.01827   0.81932   0.23788   0.00000  Uiso   1.00
N355   N     0.03614   0.92262   0.14562   0.00000  Uiso   1.00
N356   N     0.29719   0.74405   0.35438   0.00000  Uiso   1.00
O357   O     0.12815   0.90476   0.24686   0.00000  Uiso   1.00
O358   O     0.20518   0.76191   0.25314   0.00000  Uiso   1.00
O359   O     0.22829   0.91420   0.25503   0.00000  Uiso   1.00
O360   O     0.10504   0.75247   0.24498   0.00000  Uiso   1.00
O361   O     0.08851   0.82597   0.30855   0.00000  Uiso   1.00
O362   O     0.24482   0.84070   0.19146   0.00000  Uiso   1.00
O363   O     0.18866   0.83540   0.31671   0.00000  Uiso   1.00
O364   O     0.14468   0.83126   0.18329   0.00000  Uiso   1.00
C365   C     0.51505   0.93340   0.25131   0.00000  Uiso   1.00
C366   C     0.53919   0.83747   0.16666   0.00000  Uiso   1.00
C367   C     0.43585   0.82264   0.38148   0.00000  Uiso   1.00
C368   C     0.56415   0.84403   0.11853   0.00000  Uiso   1.00
C369   C     0.35861   0.77955   0.44556   0.00000  Uiso   1.00
C370   C     0.64139   0.88712   0.05444   0.00000  Uiso   1.00
C371   C     0.37643   0.78903   0.40044   0.00000  Uiso   1.00
C372   C     0.62357   0.87763   0.09956   0.00000  Uiso   1.00
C373   C     0.47554   0.84690   0.40864   0.00000  Uiso   1.00
C374   C     0.52446   0.81976   0.09137   0.00000  Uiso   1.00
C375   C     0.46340   0.82870   0.45201   0.00000  Uiso   1.00
C376   C     0.48495   0.73326   0.24869   0.00000  Uiso   1.00
C377   C     0.53660   0.83797   0.04799   0.00000  Uiso   1.00
C378   C     0.40162   0.79861   0.47126   0.00000  Uiso   1.00
C379   C     0.59838   0.86805   0.02874   0.00000  Uiso   1.00
C380   C     0.50961   0.83960   0.47720   0.00000  Uiso   1.00
C381   C     0.49039   0.82707   0.02280   0.00000  Uiso   1.00
C382   C     0.33417   0.90261   0.12518   0.00000  Uiso   1.00
C383   C     0.66583   0.76406   0.37482   0.00000  Uiso   1.00
C384   C     0.42507   0.80681   0.04214   0.00000  Uiso   1.00
C385   C     0.57493   0.85986   0.45786   0.00000  Uiso   1.00
C386   C     0.38244   0.78960   0.01641   0.00000  Uiso   1.00
C387   C     0.61756   0.87707   0.48359   0.00000  Uiso   1.00
C388   C     0.52350   0.98938   0.25198   0.00000  Uiso   1.00
C389   C     0.47650   0.67729   0.24802   0.00000  Uiso   1.00
C390   C     0.46081   0.82920   0.33334   0.00000  Uiso   1.00
Cl391  Cl    0.47263   0.75796   0.10837   0.00000  Uiso   1.00
Cl392  Cl    0.52737   0.90870   0.39163   0.00000  Uiso   1.00
Cu393  Cu    0.44071   0.82775   0.24517   0.00000  Uiso   1.00
Cu394  Cu    0.55929   0.83892   0.25484   0.00000  Uiso   1.00
H395   H     0.33355   0.77077   0.03219   0.00000  Uiso   1.00
H396   H     0.66556   0.79515   0.21540   0.00000  Uiso   1.00
H397   H     0.66645   0.89590   0.46781   0.00000  Uiso   1.00
H398   H     0.64504   0.75584   0.46049   0.00000  Uiso   1.00
H399   H     0.35496   0.91082   0.03951   0.00000  Uiso   1.00
H400   H     0.40567   0.80435   0.07733   0.00000  Uiso   1.00
H401   H     0.59433   0.86232   0.42267   0.00000  Uiso   1.00
H402   H     0.56877   0.67989   0.25574   0.00000  Uiso   1.00
H403   H     0.43123   0.98678   0.24426   0.00000  Uiso   1.00
H404   H     0.33444   0.87151   0.28460   0.00000  Uiso   1.00
N405   N     0.64839   0.84735   0.26212   0.00000  Uiso   1.00
N406   N     0.35161   0.81932   0.23788   0.00000  Uiso   1.00
N407   N     0.36948   0.92262   0.14562   0.00000  Uiso   1.00
N408   N     0.63052   0.74405   0.35438   0.00000  Uiso   1.00
O409   O     0.46148   0.90476   0.24686   0.00000  Uiso   1.00
O410   O     0.53852   0.76191   0.25314   0.00000  Uiso   1.00
O411   O     0.56163   0.91420   0.25503   0.00000  Uiso   1.00
O412   O     0.43837   0.75247   0.24498   0.00000  Uiso   1.00
O413   O     0.42185   0.82597   0.30855   0.00000  Uiso   1.00
O414   O     0.57815   0.84070   0.19146   0.00000  Uiso   1.00
O415   O     0.52199   0.83540   0.31671   0.00000  Uiso   1.00
O416   O     0.47801   0.83126   0.18329   0.00000  Uiso   1.00
C417   C     0.84838   0.93340   0.25131   0.00000  Uiso   1.00
C418   C     0.87252   0.83747   0.16666   0.00000  Uiso   1.00
C419   C     0.76918   0.82264   0.38148   0.00000  Uiso   1.00
C420   C     0.89749   0.84403   0.11853   0.00000  Uiso   1.00
C421   C     0.69194   0.77955   0.44556   0.00000  Uiso   1.00
C422   C     0.97472   0.88712   0.05444   0.00000  Uiso   1.00
C423   C     0.70976   0.78903   0.40044   0.00000  Uiso   1.00
C424   C     0.95690   0.87763   0.09956   0.00000  Uiso   1.00
C425   C     0.80887   0.84690   0.40864   0.00000  Uiso   1.00
C426   C     0.85780   0.81976   0.09137   0.00000  Uiso   1.00
C427   C     0.79674   0.82870   0.45201   0.00000  Uiso   1.00
C428   C     0.81828   0.73326   0.24869   0.00000  Uiso   1.00
C429   C     0.86993   0.83797   0.04799   0.00000  Uiso   1.00
C430   C     0.73495   0.79861   0.47126   0.00000  Uiso   1.00
C431   C     0.93172   0.86805   0.02874   0.00000  Uiso   1.00
C432   C     0.84294   0.83960   0.47720   0.00000  Uiso   1.00
C433   C     0.82372   0.82707   0.02280   0.00000  Uiso   1.00
C434   C     0.66750   0.90261   0.12518   0.00000  Uiso   1.00
C435   C     0.99916   0.76406   0.37482   0.00000  Uiso   1.00
C436   C     0.75840   0.80681   0.04214   0.00000  Uiso   1.00
C437   C     0.90826   0.85986   0.45786   0.00000  Uiso   1.00
C438   C     0.71578   0.78960   0.01641   0.00000  Uiso   1.00
C439   C     0.95089   0.87707   0.48359   0.00000  Uiso   1.00
C440   C     0.85684   0.98938   0.25198   0.00000  Uiso   1.00
C441   C     0.80983   0.67729   0.24802   0.00000  Uiso   1.00
C442   C     0.79415   0.82920   0.33334   0.00000  Uiso   1.00
Cl443  Cl    0.80597   0.75796   0.10837   0.00000  Uiso   1.00
Cl444  Cl    0.86070   0.90870   0.39163   0.00000  Uiso   1.00
Cu445  Cu    0.77404   0.82775   0.24517   0.00000  Uiso   1.00
Cu446  Cu    0.89263   0.83892   0.25484   0.00000  Uiso   1.00
H447   H     0.66688   0.77077   0.03219   0.00000  Uiso   1.00
H448   H     0.99890   0.79515   0.21540   0.00000  Uiso   1.00
H449   H     0.99979   0.89590   0.46781   0.00000  Uiso   1.00
H450   H     0.97838   0.75584   0.46049   0.00000  Uiso   1.00
H451   H     0.68829   0.91082   0.03951   0.00000  Uiso   1.00
H452   H     0.73901   0.80435   0.07733   0.00000  Uiso   1.00
H453   H     0.92766   0.86232   0.42267   0.00000  Uiso   1.00
H454   H     0.90211   0.67989   0.25574   0.00000  Uiso   1.00
H455   H     0.76456   0.98678   0.24426   0.00000  Uiso   1.00
H456   H     0.66777   0.87151   0.28460   0.00000  Uiso   1.00
N457   N     0.98173   0.84735   0.26212   0.00000  Uiso   1.00
N458   N     0.68494   0.81932   0.23788   0.00000  Uiso   1.00
N459   N     0.70281   0.92262   0.14562   0.00000  Uiso   1.00
N460   N     0.96386   0.74405   0.35438   0.00000  Uiso   1.00
O461   O     0.79482   0.90476   0.24686   0.00000  Uiso   1.00
O462   O     0.87185   0.76191   0.25314   0.00000  Uiso   1.00
O463   O     0.89496   0.91420   0.25503   0.00000  Uiso   1.00
O464   O     0.77171   0.75247   0.24498   0.00000  Uiso   1.00
O465   O     0.75518   0.82597   0.30855   0.00000  Uiso   1.00
O466   O     0.91149   0.84070   0.19146   0.00000  Uiso   1.00
O467   O     0.85532   0.83540   0.31671   0.00000  Uiso   1.00
O468   O     0.81134   0.83126   0.18329   0.00000  Uiso   1.00
C469   C     0.18172   0.26674   0.75131   0.00000  Uiso   1.00
C470   C     0.20585   0.17080   0.66666   0.00000  Uiso   1.00
C471   C     0.10251   0.15597   0.88148   0.00000  Uiso   1.00
C472   C     0.23082   0.17736   0.61853   0.00000  Uiso   1.00
C473   C     0.02528   0.11288   0.94556   0.00000  Uiso   1.00
C474   C     0.30806   0.22045   0.55444   0.00000  Uiso   1.00
C475   C     0.04310   0.12237   0.90044   0.00000  Uiso   1.00
C476   C     0.29023   0.21097   0.59956   0.00000  Uiso   1.00
C477   C     0.14220   0.18024   0.90864   0.00000  Uiso   1.00
C478   C     0.19113   0.15310   0.59137   0.00000  Uiso   1.00
C479   C     0.13007   0.16203   0.95201   0.00000  Uiso   1.00
C480   C     0.15162   0.06660   0.74869   0.00000  Uiso   1.00
C481   C     0.20326   0.17130   0.54799   0.00000  Uiso   1.00
C482   C     0.06828   0.13194   0.97126   0.00000  Uiso   1.00
C483   C     0.26505   0.20139   0.52874   0.00000  Uiso   1.00
C484   C     0.17628   0.17293   0.97720   0.00000  Uiso   1.00
C485   C     0.15706   0.16040   0.52280   0.00000  Uiso   1.00
C486   C     0.00084   0.23594   0.62518   0.00000  Uiso   1.00
C487   C     0.33250   0.09739   0.87482   0.00000  Uiso   1.00
C488   C     0.09174   0.14014   0.54214   0.00000  Uiso   1.00
C489   C     0.24160   0.19319   0.95786   0.00000  Uiso   1.00
C490   C     0.04911   0.12293   0.51641   0.00000  Uiso   1.00
C491   C     0.28422   0.21040   0.98359   0.00000  Uiso   1.00
C492   C     0.19017   0.32271   0.75198   0.00000  Uiso   1.00
C493   C     0.14316   0.01062   0.74802   0.00000  Uiso   1.00
C494   C     0.12748   0.16253   0.83334   0.00000  Uiso   1.00
Cl495  Cl    0.13930   0.09129   0.60837   0.00000  Uiso   1.00
Cl496  Cl    0.19403   0.24204   0.89163   0.00000  Uiso   1.00
Cu497  Cu    0.10737   0.16108   0.74517   0.00000  Uiso   1.00
Cu498  Cu    0.22596   0.17225   0.75484   0.00000  Uiso   1.00
H499   H     0.00021   0.10410   0.53219   0.00000  Uiso   1.00
H500   H     0.33223   0.12849   0.71540   0.00000  Uiso   1.00
H501   H     0.33312   0.22923   0.96781   0.00000  Uiso   1.00
H502   H     0.31171   0.08917   0.96049   0.00000  Uiso   1.00
H503   H     0.02162   0.24416   0.53951   0.00000  Uiso   1.00
H504   H     0.07234   0.13768   0.57733   0.00000  Uiso   1.00
H505   H     0.26099   0.19565   0.92267   0.00000  Uiso   1.00
H506   H     0.23544   0.01322   0.75574   0.00000  Uiso   1.00
H507   H     0.09789   0.32011   0.74426   0.00000  Uiso   1.00
H508   H     0.00110   0.20485   0.78460   0.00000  Uiso   1.00
N509   N     0.31506   0.18068   0.76212   0.00000  Uiso   1.00
N510   N     0.01827   0.15265   0.73788   0.00000  Uiso   1.00
N511   N     0.03614   0.25595   0.64562   0.00000  Uiso   1.00
N512   N     0.29719   0.07738   0.85438   0.00000  Uiso   1.00
O513   O     0.12815   0.23809   0.74686   0.00000  Uiso   1.00
O514   O     0.20518   0.09524   0.75314   0.00000  Uiso   1.00
O515   O     0.22829   0.24753   0.75503   0.00000  Uiso   1.00
O516   O     0.10504   0.08580   0.74498   0.00000  Uiso   1.00
O517   O     0.08851   0.15930   0.80855   0.00000  Uiso   1.00
O518   O     0.24482   0.17403   0.69146   0.00000  Uiso   1.00
O519   O     0.18866   0.16874   0.81671   0.00000  Uiso   1.00
O520   O     0.14468   0.16460   0.68329   0.00000  Uiso   1.00
C521   C     0.51505   0.26674   0.75131   0.00000  Uiso   1.00
C522   C     0.53919   0.17080   0.66666   0.00000  Uiso   1.00
C523   C     0.43585   0.15597   0.88148   0.00000  Uiso   1.00
C524   C     0.56415   0.17736   0.61853   0.00000  Uiso   1.00
C525   C     0.35861   0.11288   0.94556   0.00000  Uiso   1.00
C526   C     0.64139   0.22045   0.55444   0.00000  Uiso   1.00
C527   C     0.37643   0.12237   0.90044   0.00000  Uiso   1.00
C528   C     0.62357   0.21097   0.59956   0.00000  Uiso   1.00
C529   C     0.47554   0.18024   0.90864   0.00000  Uiso   1.00
C530   C     0.52446   0.15310   0.59137   0.00000  Uiso   1.00
C531   C     0.46340   0.16203   0.95201   0.00000  Uiso   1.00
C532   C     0.48495   0.06660   0.74869   0.00000  Uiso   1.00
C533   C     0.53660   0.17130   0.54799   0.00000  Uiso   1.00
C534   C     0.40162   0.13194   0.97126   0.00000  Uiso   1.00
C535   C     0.59838   0.20139   0.52874   0.00000  Uiso   1.00
C536   C     0.50961   0.17293   0.97720   0.00000  Uiso   1.00
C537   C     0.49039   0.16040   0.52280   0.00000  Uiso   1.00
C538   C     0.33417   0.23594   0.62518   0.00000  Uiso   1.00
C539   C     0.66583   0.09739   0.87482   0.00000  Uiso   1.00
C540   C     0.42507   0.14014   0.54214   0.00000  Uiso   1.00
C541   C     0.57493   0.19319   0.95786   0.00000  Uiso   1.00
C542   C     0.38244   0.12293   0.51641   0.00000  Uiso   1.00
C543   C     0.61756   0.21040   0.98359   0.00000  Uiso   1.00
C544   C     0.52350   0.32271   0.75198   0.00000  Uiso   1.00
C545   C     0.47650   0.01062   0.74802   0.00000  Uiso   1.00
C546   C     0.46081   0.16253   0.83334   0.00000  Uiso   1.00
Cl547  Cl    0.47263   0.09129   0.60837   0.00000  Uiso   1.00
Cl548  Cl    0.52737   0.24204   0.89163   0.00000  Uiso   1.00
Cu549  Cu    0.44071   0.16108   0.74517   0.00000  Uiso   1.00
Cu550  Cu    0.55929   0.17225   0.75484   0.00000  Uiso   1.00
H551   H     0.33355   0.10410   0.53219   0.00000  Uiso   1.00
H552   H     0.66556   0.12849   0.71540   0.00000  Uiso   1.00
H553   H     0.66645   0.22923   0.96781   0.00000  Uiso   1.00
H554   H     0.64504   0.08917   0.96049   0.00000  Uiso   1.00
H555   H     0.35496   0.24416   0.53951   0.00000  Uiso   1.00
H556   H     0.40567   0.13768   0.57733   0.00000  Uiso   1.00
H557   H     0.59433   0.19565   0.92267   0.00000  Uiso   1.00
H558   H     0.56877   0.01322   0.75574   0.00000  Uiso   1.00
H559   H     0.43123   0.32011   0.74426   0.00000  Uiso   1.00
H560   H     0.33444   0.20485   0.78460   0.00000  Uiso   1.00
N561   N     0.64839   0.18068   0.76212   0.00000  Uiso   1.00
N562   N     0.35161   0.15265   0.73788   0.00000  Uiso   1.00
N563   N     0.36948   0.25595   0.64562   0.00000  Uiso   1.00
N564   N     0.63052   0.07738   0.85438   0.00000  Uiso   1.00
O565   O     0.46148   0.23809   0.74686   0.00000  Uiso   1.00
O566   O     0.53852   0.09524   0.75314   0.00000  Uiso   1.00
O567   O     0.56163   0.24753   0.75503   0.00000  Uiso   1.00
O568   O     0.43837   0.08580   0.74498   0.00000  Uiso   1.00
O569   O     0.42185   0.15930   0.80855   0.00000  Uiso   1.00
O570   O     0.57815   0.17403   0.69146   0.00000  Uiso   1.00
O571   O     0.52199   0.16874   0.81671   0.00000  Uiso   1.00
O572   O     0.47801   0.16460   0.68329   0.00000  Uiso   1.00
C573   C     0.84838   0.26674   0.75131   0.00000  Uiso   1.00
C574   C     0.87252   0.17080   0.66666   0.00000  Uiso   1.00
C575   C     0.76918   0.15597   0.88148   0.00000  Uiso   1.00
C576   C     0.89749   0.17736   0.61853   0.00000  Uiso   1.00
C577   C     0.69194   0.11288   0.94556   0.00000  Uiso   1.00
C578   C     0.97472   0.22045   0.55444   0.00000  Uiso   1.00
C579   C     0.70976   0.12237   0.90044   0.00000  Uiso   1.00
C580   C     0.95690   0.21097   0.59956   0.00000  Uiso   1.00
C581   C     0.80887   0.18024   0.90864   0.00000  Uiso   1.00
C582   C     0.85780   0.15310   0.59137   0.00000  Uiso   1.00
C583   C     0.79674   0.16203   0.95201   0.00000  Uiso   1.00
C584   C     0.81828   0.06660   0.74869   0.00000  Uiso   1.00
C585   C     0.86993   0.17130   0.54799   0.00000  Uiso   1.00
C586   C     0.73495   0.13194   0.97126   0.00000  Uiso   1.00
C587   C     0.93172   0.20139   0.52874   0.00000  Uiso   1.00
C588   C     0.84294   0.17293   0.97720   0.00000  Uiso   1.00
C589   C     0.82372   0.16040   0.52280   0.00000  Uiso   1.00
C590   C     0.66750   0.23594   0.62518   0.00000  Uiso   1.00
C591   C     0.99916   0.09739   0.87482   0.00000  Uiso   1.00
C592   C     0.75840   0.14014   0.54214   0.00000  Uiso   1.00
C593   C     0.90826   0.19319   0.95786   0.00000  Uiso   1.00
C594   C     0.71578   0.12293   0.51641   0.00000  Uiso   1.00
C595   C     0.95089   0.21040   0.98359   0.00000  Uiso   1.00
C596   C     0.85684   0.32271   0.75198   0.00000  Uiso   1.00
C597   C     0.80983   0.01062   0.74802   0.00000  Uiso   1.00
C598   C     0.79415   0.16253   0.83334   0.00000  Uiso   1.00
Cl599  Cl    0.80597   0.09129   0.60837   0.00000  Uiso   1.00
Cl600  Cl    0.86070   0.24204   0.89163   0.00000  Uiso   1.00
Cu601  Cu    0.77404   0.16108   0.74517   0.00000  Uiso   1.00
Cu602  Cu    0.89263   0.17225   0.75484   0.00000  Uiso   1.00
H603   H     0.66688   0.10410   0.53219   0.00000  Uiso   1.00
H604   H     0.99890   0.12849   0.71540   0.00000  Uiso   1.00
H605   H     0.99979   0.22923   0.96781   0.00000  Uiso   1.00
H606   H     0.97838   0.08917   0.96049   0.00000  Uiso   1.00
H607   H     0.68829   0.24416   0.53951   0.00000  Uiso   1.00
H608   H     0.73901   0.13768   0.57733   0.00000  Uiso   1.00
H609   H     0.92766   0.19565   0.92267   0.00000  Uiso   1.00
H610   H     0.90211   0.01322   0.75574   0.00000  Uiso   1.00
H611   H     0.76456   0.32011   0.74426   0.00000  Uiso   1.00
H612   H     0.66777   0.20485   0.78460   0.00000  Uiso   1.00
N613   N     0.98173   0.18068   0.76212   0.00000  Uiso   1.00
N614   N     0.68494   0.15265   0.73788   0.00000  Uiso   1.00
N615   N     0.70281   0.25595   0.64562   0.00000  Uiso   1.00
N616   N     0.96386   0.07738   0.85438   0.00000  Uiso   1.00
O617   O     0.79482   0.23809   0.74686   0.00000  Uiso   1.00
O618   O     0.87185   0.09524   0.75314   0.00000  Uiso   1.00
O619   O     0.89496   0.24753   0.75503   0.00000  Uiso   1.00
O620   O     0.77171   0.08580   0.74498   0.00000  Uiso   1.00
O621   O     0.75518   0.15930   0.80855   0.00000  Uiso   1.00
O622   O     0.91149   0.17403   0.69146   0.00000  Uiso   1.00
O623   O     0.85532   0.16874   0.81671   0.00000  Uiso   1.00
O624   O     0.81134   0.16460   0.68329   0.00000  Uiso   1.00
C625   C     0.18172   0.60007   0.75131   0.00000  Uiso   1.00
C626   C     0.20585   0.50413   0.66666   0.00000  Uiso   1.00
C627   C     0.10251   0.48930   0.88148   0.00000  Uiso   1.00
C628   C     0.23082   0.51070   0.61853   0.00000  Uiso   1.00
C629   C     0.02528   0.44621   0.94556   0.00000  Uiso   1.00
C630   C     0.30806   0.55379   0.55444   0.00000  Uiso   1.00
C631   C     0.04310   0.45570   0.90044   0.00000  Uiso   1.00
C632   C     0.29023   0.54430   0.59956   0.00000  Uiso   1.00
C633   C     0.14220   0.51357   0.90864   0.00000  Uiso   1.00
C634   C     0.19113   0.48643   0.59137   0.00000  Uiso   1.00
C635   C     0.13007   0.49537   0.95201   0.00000  Uiso   1.00
C636   C     0.15162   0.39993   0.74869   0.00000  Uiso   1.00
C637   C     0.20326   0.50463   0.54799   0.00000  Uiso   1.00
C638   C     0.06828   0.46528   0.97126   0.00000  Uiso   1.00
C639   C     0.26505   0.53472   0.52874   0.00000  Uiso   1.00
C640   C     0.17628   0.50627   0.97720   0.00000  Uiso   1.00
C641   C     0.15706   0.49373   0.52280   0.00000  Uiso   1.00
C642   C     0.00084   0.56927   0.62518   0.00000  Uiso   1.00
C643   C     0.33250   0.43072   0.87482   0.00000  Uiso   1.00
C644   C     0.09174   0.47347   0.54214   0.00000  Uiso   1.00
C645   C     0.24160   0.52653   0.95786   0.00000  Uiso   1.00
C646   C     0.04911   0.45627   0.51641   0.00000  Uiso   1.00
C647   C     0.28422   0.54373   0.98359   0.00000  Uiso   1.00
C648   C     0.19017   0.65605   0.75198   0.00000  Uiso   1.00
C649   C     0.14316   0.34395   0.74802   0.00000  Uiso   1.00
C650   C     0.12748   0.49586   0.83334   0.00000  Uiso   1.00
Cl651  Cl    0.13930   0.42463   0.60837   0.00000  Uiso   1.00
Cl652  Cl    0.19403   0.57537   0.89163   0.00000  Uiso   1.00
Cu653  Cu    0.10737   0.49441   0.74517   0.00000  Uiso   1.00
Cu654  Cu    0.22596   0.50559   0.75484   0.00000  Uiso   1.00
H655   H     0.00021   0.43743   0.53219   0.00000  Uiso   1.00
H656   H     0.33223   0.46182   0.71540   0.00000  Uiso   1.00
H657   H     0.33312   0.56257   0.96781   0.00000  Uiso   1.00
H658   H     0.31171   0.42251   0.96049   0.00000  Uiso   1.00
H659   H     0.02162   0.57749   0.53951   0.00000  Uiso   1.00
H660   H     0.07234   0.47102   0.57733   0.00000  Uiso   1.00
H661   H     0.26099   0.52898   0.92267   0.00000  Uiso   1.00
H662   H     0.23544   0.34655   0.75574   0.00000  Uiso   1.00
H663   H     0.09789   0.65344   0.74426   0.00000  Uiso   1.00
H664   H     0.00110   0.53818   0.78460   0.00000  Uiso   1.00
N665   N     0.31506   0.51401   0.76212   0.00000  Uiso   1.00
N666   N     0.01827   0.48599   0.73788   0.00000  Uiso   1.00
N667   N     0.03614   0.58928   0.64562   0.00000  Uiso   1.00
N668   N     0.29719   0.41072   0.85438   0.00000  Uiso   1.00
O669   O     0.12815   0.57142   0.74686   0.00000  Uiso   1.00
O670   O     0.20518   0.42858   0.75314   0.00000  Uiso   1.00
O671   O     0.22829   0.58086   0.75503   0.00000  Uiso   1.00
O672   O     0.10504   0.41914   0.74498   0.00000  Uiso   1.00
O673   O     0.08851   0.49263   0.80855   0.00000  Uiso   1.00
O674   O     0.24482   0.50737   0.69146   0.00000  Uiso   1.00
O675   O     0.18866   0.50207   0.81671   0.00000  Uiso   1.00
O676   O     0.14468   0.49793   0.68329   0.00000  Uiso   1.00
C677   C     0.51505   0.60007   0.75131   0.00000  Uiso   1.00
C678   C     0.53919   0.50413   0.66666   0.00000  Uiso   1.00
C679   C     0.43585   0.48930   0.88148   0.00000  Uiso   1.00
C680   C     0.56415   0.51070   0.61853   0.00000  Uiso   1.00
C681   C     0.35861   0.44621   0.94556   0.00000  Uiso   1.00
C682   C     0.64139   0.55379   0.55444   0.00000  Uiso   1.00
C683   C     0.37643   0.45570   0.90044   0.00000  Uiso   1.00
C684   C     0.62357   0.54430   0.59956   0.00000  Uiso   1.00
C685   C     0.47554   0.51357   0.90864   0.00000  Uiso   1.00
C686   C     0.52446   0.48643   0.59137   0.00000  Uiso   1.00
C687   C     0.46340   0.49537   0.95201   0.00000  Uiso   1.00
C688   C     0.48495   0.39993   0.74869   0.00000  Uiso   1.00
C689   C     0.53660   0.50463   0.54799   0.00000  Uiso   1.00
C690   C     0.40162   0.46528   0.97126   0.00000  Uiso   1.00
C691   C     0.59838   0.53472   0.52874   0.00000  Uiso   1.00
C692   C     0.50961   0.50627   0.97720   0.00000  Uiso   1.00
C693   C     0.49039   0.49373   0.52280   0.00000  Uiso   1.00
C694   C     0.33417   0.56927   0.62518   0.00000  Uiso   1.00
C695   C     0.66583   0.43072   0.87482   0.00000  Uiso   1.00
C696   C     0.42507   0.47347   0.54214   0.00000  Uiso   1.00
C697   C     0.57493   0.52653   0.95786   0.00000  Uiso   1.00
C698   C     0.38244   0.45627   0.51641   0.00000  Uiso   1.00
C699   C     0.61756   0.54373   0.98359   0.00000  Uiso   1.00
C700   C     0.52350   0.65605   0.75198   0.00000  Uiso   1.00
C701   C     0.47650   0.34395   0.74802   0.00000  Uiso   1.00
C702   C     0.46081   0.49586   0.83334   0.00000  Uiso   1.00
Cl703  Cl    0.47263   0.42463   0.60837   0.00000  Uiso   1.00
Cl704  Cl    0.52737   0.57537   0.89163   0.00000  Uiso   1.00
Cu705  Cu    0.44071   0.49441   0.74517   0.00000  Uiso   1.00
Cu706  Cu    0.55929   0.50559   0.75484   0.00000  Uiso   1.00
H707   H     0.33355   0.43743   0.53219   0.00000  Uiso   1.00
H708   H     0.66556   0.46182   0.71540   0.00000  Uiso   1.00
H709   H     0.66645   0.56257   0.96781   0.00000  Uiso   1.00
H710   H     0.64504   0.42251   0.96049   0.00000  Uiso   1.00
H711   H     0.35496   0.57749   0.53951   0.00000  Uiso   1.00
H712   H     0.40567   0.47102   0.57733   0.00000  Uiso   1.00
H713   H     0.59433   0.52898   0.92267   0.00000  Uiso   1.00
H714   H     0.56877   0.34655   0.75574   0.00000  Uiso   1.00
H715   H     0.43123   0.65344   0.74426   0.00000  Uiso   1.00
H716   H     0.33444   0.53818   0.78460   0.00000  Uiso   1.00
N717   N     0.64839   0.51401   0.76212   0.00000  Uiso   1.00
N718   N     0.35161   0.48599   0.73788   0.00000  Uiso   1.00
N719   N     0.36948   0.58928   0.64562   0.00000  Uiso   1.00
N720   N     0.63052   0.41072   0.85438   0.00000  Uiso   1.00
O721   O     0.46148   0.57142   0.74686   0.00000  Uiso   1.00
O722   O     0.53852   0.42858   0.75314   0.00000  Uiso   1.00
O723   O     0.56163   0.58086   0.75503   0.00000  Uiso   1.00
O724   O     0.43837   0.41914   0.74498   0.00000  Uiso   1.00
O725   O     0.42185   0.49263   0.80855   0.00000  Uiso   1.00
O726   O     0.57815   0.50737   0.69146   0.00000  Uiso   1.00
O727   O     0.52199   0.50207   0.81671   0.00000  Uiso   1.00
O728   O     0.47801   0.49793   0.68329   0.00000  Uiso   1.00
C729   C     0.84838   0.60007   0.75131   0.00000  Uiso   1.00
C730   C     0.87252   0.50413   0.66666   0.00000  Uiso   1.00
C731   C     0.76918   0.48930   0.88148   0.00000  Uiso   1.00
C732   C     0.89749   0.51070   0.61853   0.00000  Uiso   1.00
C733   C     0.69194   0.44621   0.94556   0.00000  Uiso   1.00
C734   C     0.97472   0.55379   0.55444   0.00000  Uiso   1.00
C735   C     0.70976   0.45570   0.90044   0.00000  Uiso   1.00
C736   C     0.95690   0.54430   0.59956   0.00000  Uiso   1.00
C737   C     0.80887   0.51357   0.90864   0.00000  Uiso   1.00
C738   C     0.85780   0.48643   0.59137   0.00000  Uiso   1.00
C739   C     0.79674   0.49537   0.95201   0.00000  Uiso   1.00
C740   C     0.81828   0.39993   0.74869   0.00000  Uiso   1.00
C741   C     0.86993   0.50463   0.54799   0.00000  Uiso   1.00
C742   C     0.73495   0.46528   0.97126   0.00000  Uiso   1.00
C743   C     0.93172   0.53472   0.52874   0.00000  Uiso   1.00
C744   C     0.84294   0.50627   0.97720   0.00000  Uiso   1.00
C745   C     0.82372   0.49373   0.52280   0.00000  Uiso   1.00
C746   C     0.66750   0.56927   0.62518   0.00000  Uiso   1.00
C747   C     0.99916   0.43072   0.87482   0.00000  Uiso   1.00
C748   C     0.75840   0.47347   0.54214   0.00000  Uiso   1.00
C749   C     0.90826   0.52653   0.95786   0.00000  Uiso   1.00
C750   C     0.71578   0.45627   0.51641   0.00000  Uiso   1.00
C751   C     0.95089   0.54373   0.98359   0.00000  Uiso   1.00
C752   C     0.85684   0.65605   0.75198   0.00000  Uiso   1.00
C753   C     0.80983   0.34395   0.74802   0.00000  Uiso   1.00
C754   C     0.79415   0.49586   0.83334   0.00000  Uiso   1.00
Cl755  Cl    0.80597   0.42463   0.60837   0.00000  Uiso   1.00
Cl756  Cl    0.86070   0.57537   0.89163   0.00000  Uiso   1.00
Cu757  Cu    0.77404   0.49441   0.74517   0.00000  Uiso   1.00
Cu758  Cu    0.89263   0.50559   0.75484   0.00000  Uiso   1.00
H759   H     0.66688   0.43743   0.53219   0.00000  Uiso   1.00
H760   H     0.99890   0.46182   0.71540   0.00000  Uiso   1.00
H761   H     0.99979   0.56257   0.96781   0.00000  Uiso   1.00
H762   H     0.97838   0.42251   0.96049   0.00000  Uiso   1.00
H763   H     0.68829   0.57749   0.53951   0.00000  Uiso   1.00
H764   H     0.73901   0.47102   0.57733   0.00000  Uiso   1.00
H765   H     0.92766   0.52898   0.92267   0.00000  Uiso   1.00
H766   H     0.90211   0.34655   0.75574   0.00000  Uiso   1.00
H767   H     0.76456   0.65344   0.74426   0.00000  Uiso   1.00
H768   H     0.66777   0.53818   0.78460   0.00000  Uiso   1.00
N769   N     0.98173   0.51401   0.76212   0.00000  Uiso   1.00
N770   N     0.68494   0.48599   0.73788   0.00000  Uiso   1.00
N771   N     0.70281   0.58928   0.64562   0.00000  Uiso   1.00
N772   N     0.96386   0.41072   0.85438   0.00000  Uiso   1.00
O773   O     0.79482   0.57142   0.74686   0.00000  Uiso   1.00
O774   O     0.87185   0.42858   0.75314   0.00000  Uiso   1.00
O775   O     0.89496   0.58086   0.75503   0.00000  Uiso   1.00
O776   O     0.77171   0.41914   0.74498   0.00000  Uiso   1.00
O777   O     0.75518   0.49263   0.80855   0.00000  Uiso   1.00
O778   O     0.91149   0.50737   0.69146   0.00000  Uiso   1.00
O779   O     0.85532   0.50207   0.81671   0.00000  Uiso   1.00
O780   O     0.81134   0.49793   0.68329   0.00000  Uiso   1.00
C781   C     0.18172   0.93340   0.75131   0.00000  Uiso   1.00
C782   C     0.20585   0.83747   0.66666   0.00000  Uiso   1.00
C783   C     0.10251   0.82264   0.88148   0.00000  Uiso   1.00
C784   C     0.23082   0.84403   0.61853   0.00000  Uiso   1.00
C785   C     0.02528   0.77955   0.94556   0.00000  Uiso   1.00
C786   C     0.30806   0.88712   0.55444   0.00000  Uiso   1.00
C787   C     0.04310   0.78903   0.90044   0.00000  Uiso   1.00
C788   C     0.29023   0.87763   0.59956   0.00000  Uiso   1.00
C789   C     0.14220   0.84690   0.90864   0.00000  Uiso   1.00
C790   C     0.19113   0.81976   0.59137   0.00000  Uiso   1.00
C791   C     0.13007   0.82870   0.95201   0.00000  Uiso   1.00
C792   C     0.15162   0.73326   0.74869   0.00000  Uiso   1.00
C793   C     0.20326   0.83797   0.54799   0.00000  Uiso   1.00
C794   C     0.06828   0.79861   0.97126   0.00000  Uiso   1.00
C795   C     0.26505   0.86805   0.52874   0.00000  Uiso   1.00
C796   C     0.17628   0.83960   0.97720   0.00000  Uiso   1.00
C797   C     0.15706   0.82707   0.52280   0.00000  Uiso   1.00
C798   C     0.00084   0.90261   0.62518   0.00000  Uiso   1.00
C799   C     0.33250   0.76406   0.87482   0.00000  Uiso   1.00
C800   C     0.09174   0.80681   0.54214   0.00000  Uiso   1.00
C801   C     0.24160   0.85986   0.95786   0.00000  Uiso   1.00
C802   C     0.04911   0.78960   0.51641   0.00000  Uiso   1.00
C803   C     0.28422   0.87707   0.98359   0.00000  Uiso   1.00
C804   C     0.19017   0.98938   0.75198   0.00000  Uiso   1.00
C805   C     0.14316   0.67729   0.74802   0.00000  Uiso   1.00
C806   C     0.12748   0.82920   0.83334   0.00000  Uiso   1.00
Cl807  Cl    0.13930   0.75796   0.60837   0.00000  Uiso   1.00
Cl808  Cl    0.19403   0.90870   0.89163   0.00000  Uiso   1.00
Cu809  Cu    0.10737   0.82775   0.74517   0.00000  Uiso   1.00
Cu810  Cu    0.22596   0.83892   0.75484   0.00000  Uiso   1.00
H811   H     0.00021   0.77077   0.53219   0.00000  Uiso   1.00
H812   H     0.33223   0.79515   0.71540   0.00000  Uiso   1.00
H813   H     0.33312   0.89590   0.96781   0.00000  Uiso   1.00
H814   H     0.31171   0.75584   0.96049   0.00000  Uiso   1.00
H815   H     0.02162   0.91082   0.53951   0.00000  Uiso   1.00
H816   H     0.07234   0.80435   0.57733   0.00000  Uiso   1.00
H817   H     0.26099   0.86232   0.92267   0.00000  Uiso   1.00
H818   H     0.23544   0.67989   0.75574   0.00000  Uiso   1.00
H819   H     0.09789   0.98678   0.74426   0.00000  Uiso   1.00
H820   H     0.00110   0.87151   0.78460   0.00000  Uiso   1.00
N821   N     0.31506   0.84735   0.76212   0.00000  Uiso   1.00
N822   N     0.01827   0.81932   0.73788   0.00000  Uiso   1.00
N823   N     0.03614   0.92262   0.64562   0.00000  Uiso   1.00
N824   N     0.29719   0.74405   0.85438   0.00000  Uiso   1.00
O825   O     0.12815   0.90476   0.74686   0.00000  Uiso   1.00
O826   O     0.20518   0.76191   0.75314   0.00000  Uiso   1.00
O827   O     0.22829   0.91420   0.75503   0.00000  Uiso   1.00
O828   O     0.10504   0.75247   0.74498   0.00000  Uiso   1.00
O829   O     0.08851   0.82597   0.80855   0.00000  Uiso   1.00
O830   O     0.24482   0.84070   0.69146   0.00000  Uiso   1.00
O831   O     0.18866   0.83540   0.81671   0.00000  Uiso   1.00
O832   O     0.14468   0.83126   0.68329   0.00000  Uiso   1.00
C833   C     0.51505   0.93340   0.75131   0.00000  Uiso   1.00
C834   C     0.53919   0.83747   0.66666   0.00000  Uiso   1.00
C835   C     0.43585   0.82264   0.88148   0.00000  Uiso   1.00
C836   C     0.56415   0.84403   0.61853   0.00000  Uiso   1.00
C837   C     0.35861   0.77955   0.94556   0.00000  Uiso   1.00
C838   C     0.64139   0.88712   0.55444   0.00000  Uiso   1.00
C839   C     0.37643   0.78903   0.90044   0.00000  Uiso   1.00
C840   C     0.62357   0.87763   0.59956   0.00000  Uiso   1.00
C841   C     0.47554   0.84690   0.90864   0.00000  Uiso   1.00
C842   C     0.52446   0.81976   0.59137   0.00000  Uiso   1.00
C843   C     0.46340   0.82870   0.95201   0.00000  Uiso   1.00
C844   C     0.48495   0.73326   0.74869   0.00000  Uiso   1.00
C845   C     0.53660   0.83797   0.54799   0.00000  Uiso   1.00
C846   C     0.40162   0.79861   0.97126   0.00000  Uiso   1.00
C847   C     0.59838   0.86805   0.52874   0.00000  Uiso   1.00
C848   C     0.50961   0.83960   0.97720   0.00000  Uiso   1.00
C849   C     0.49039   0.82707   0.52280   0.00000  Uiso   1.00
C850   C     0.33417   0.90261   0.62518   0.00000  Uiso   1.00
C851   C     0.66583   0.76406   0.87482   0.00000  Uiso   1.00
C852   C     0.42507   0.80681   0.54214   0.00000  Uiso   1.00
C853   C     0.57493   0.85986   0.95786   0.00000  Uiso   1.00
C854   C     0.38244   0.78960   0.51641   0.00000  Uiso   1.00
C855   C     0.61756   0.87707   0.98359   0.00000  Uiso   1.00
C856   C     0.52350   0.98938   0.75198   0.00000  Uiso   1.00
C857   C     0.47650   0.67729   0.74802   0.00000  Uiso   1.00
C858   C     0.46081   0.82920   0.83334   0.00000  Uiso   1.00
Cl859  Cl    0.47263   0.75796   0.60837   0.00000  Uiso   1.00
Cl860  Cl    0.52737   0.90870   0.89163   0.00000  Uiso   1.00
Cu861  Cu    0.44071   0.82775   0.74517   0.00000  Uiso   1.00
Cu862  Cu    0.55929   0.83892   0.75484   0.00000  Uiso   1.00
H863   H     0.33355   0.77077   0.53219   0.00000  Uiso   1.00
H864   H     0.66556   0.79515   0.71540   0.00000  Uiso   1.00
H865   H     0.66645   0.89590   0.96781   0.00000  Uiso   1.00
H866   H     0.64504   0.75584   0.96049   0.00000  Uiso   1.00
H867   H     0.35496   0.91082   0.53951   0.00000  Uiso   1.00
H868   H     0.40567   0.80435   0.57733   0.00000  Uiso   1.00
H869   H     0.59433   0.86232   0.92267   0.00000  Uiso   1.00
H870   H     0.56877   0.67989   0.75574   0.00000  Uiso   1.00
H871   H     0.43123   0.98678   0.74426   0.00000  Uiso   1.00
H872   H     0.33444   0.87151   0.78460   0.00000  Uiso   1.00
N873   N     0.64839   0.84735   0.76212   0.00000  Uiso   1.00
N874   N     0.35161   0.81932   0.73788   0.00000  Uiso   1.00
N875   N     0.36948   0.92262   0.64562   0.00000  Uiso   1.00
N876   N     0.63052   0.74405   0.85438   0.00000  Uiso   1.00
O877   O     0.46148   0.90476   0.74686   0.00000  Uiso   1.00
O878   O     0.53852   0.76191   0.75314   0.00000  Uiso   1.00
O879   O     0.56163   0.91420   0.75503   0.00000  Uiso   1.00
O880   O     0.43837   0.75247   0.74498   0.00000  Uiso   1.00
O881   O     0.42185   0.82597   0.80855   0.00000  Uiso   1.00
O882   O     0.57815   0.84070   0.69146   0.00000  Uiso   1.00
O883   O     0.52199   0.83540   0.81671   0.00000  Uiso   1.00
O884   O     0.47801   0.83126   0.68329   0.00000  Uiso   1.00
C885   C     0.84838   0.93340   0.75131   0.00000  Uiso   1.00
C886   C     0.87252   0.83747   0.66666   0.00000  Uiso   1.00
C887   C     0.76918   0.82264   0.88148   0.00000  Uiso   1.00
C888   C     0.89749   0.84403   0.61853   0.00000  Uiso   1.00
C889   C     0.69194   0.77955   0.94556   0.00000  Uiso   1.00
C890   C     0.97472   0.88712   0.55444   0.00000  Uiso   1.00
C891   C     0.70976   0.78903   0.90044   0.00000  Uiso   1.00
C892   C     0.95690   0.87763   0.59956   0.00000  Uiso   1.00
C893   C     0.80887   0.84690   0.90864   0.00000  Uiso   1.00
C894   C     0.85780   0.81976   0.59137   0.00000  Uiso   1.00
C895   C     0.79674   0.82870   0.95201   0.00000  Uiso   1.00
C896   C     0.81828   0.73326   0.74869   0.00000  Uiso   1.00
C897   C     0.86993   0.83797   0.54799   0.00000  Uiso   1.00
C898   C     0.73495   0.79861   0.97126   0.00000  Uiso   1.00
C899   C     0.93172   0.86805   0.52874   0.00000  Uiso   1.00
C900   C     0.84294   0.83960   0.97720   0.00000  Uiso   1.00
C901   C     0.82372   0.82707   0.52280   0.00000  Uiso   1.00
C902   C     0.66750   0.90261   0.62518   0.00000  Uiso   1.00
C903   C     0.99916   0.76406   0.87482   0.00000  Uiso   1.00
C904   C     0.75840   0.80681   0.54214   0.00000  Uiso   1.00
C905   C     0.90826   0.85986   0.95786   0.00000  Uiso   1.00
C906   C     0.71578   0.78960   0.51641   0.00000  Uiso   1.00
C907   C     0.95089   0.87707   0.98359   0.00000  Uiso   1.00
C908   C     0.85684   0.98938   0.75198   0.00000  Uiso   1.00
C909   C     0.80983   0.67729   0.74802   0.00000  Uiso   1.00
C910   C     0.79415   0.82920   0.83334   0.00000  Uiso   1.00
Cl911  Cl    0.80597   0.75796   0.60837   0.00000  Uiso   1.00
Cl912  Cl    0.86070   0.90870   0.89163   0.00000  Uiso   1.00
Cu913  Cu    0.77404   0.82775   0.74517   0.00000  Uiso   1.00
Cu914  Cu    0.89263   0.83892   0.75484   0.00000  Uiso   1.00
H915   H     0.66688   0.77077   0.53219   0.00000  Uiso   1.00
H916   H     0.99890   0.79515   0.71540   0.00000  Uiso   1.00
H917   H     0.99979   0.89590   0.96781   0.00000  Uiso   1.00
H918   H     0.97838   0.75584   0.96049   0.00000  Uiso   1.00
H919   H     0.68829   0.91082   0.53951   0.00000  Uiso   1.00
H920   H     0.73901   0.80435   0.57733   0.00000  Uiso   1.00
H921   H     0.92766   0.86232   0.92267   0.00000  Uiso   1.00
H922   H     0.90211   0.67989   0.75574   0.00000  Uiso   1.00
H923   H     0.76456   0.98678   0.74426   0.00000  Uiso   1.00
H924   H     0.66777   0.87151   0.78460   0.00000  Uiso   1.00
N925   N     0.98173   0.84735   0.76212   0.00000  Uiso   1.00
N926   N     0.68494   0.81932   0.73788   0.00000  Uiso   1.00
N927   N     0.70281   0.92262   0.64562   0.00000  Uiso   1.00
N928   N     0.96386   0.74405   0.85438   0.00000  Uiso   1.00
O929   O     0.79482   0.90476   0.74686   0.00000  Uiso   1.00
O930   O     0.87185   0.76191   0.75314   0.00000  Uiso   1.00
O931   O     0.89496   0.91420   0.75503   0.00000  Uiso   1.00
O932   O     0.77171   0.75247   0.74498   0.00000  Uiso   1.00
O933   O     0.75518   0.82597   0.80855   0.00000  Uiso   1.00
O934   O     0.91149   0.84070   0.69146   0.00000  Uiso   1.00
O935   O     0.85532   0.83540   0.81671   0.00000  Uiso   1.00
O936   O     0.81134   0.83126   0.68329   0.00000  Uiso   1.00
loop_
_geom_bond_atom_site_label_1
_geom_bond_atom_site_label_2
_geom_bond_distance
_geom_bond_site_symmetry_2
_ccdc_geom_bond_type
C1     O45     1.291   .     A
C1     C24     1.428   .     S
C1     O47     1.286   .     A
C2     C4      1.478   .     S
C2     O52     1.299   .     A
C2     O50     1.300   .     A
C3     C9      1.409   .     A
C3     C7      1.414   .     A
C3     C26     1.478   .     S
C4     C10     1.409   .     A
C4     C8      1.414   .     A
C5     C14     1.400   .     A
C5     C7      1.395   .     A
C5     H138    1.086   1_455 S
C6     C8      1.395   .     A
C6     C15     1.400   .     A
C6     H87     1.086   .     S
C7     C123    1.445   1_455 S
C8     C70     1.445   .     S
C9     C11     1.416   .     A
C9     Cl28    1.778   .     S
C10    Cl27    1.778   .     S
C10    C13     1.416   .     A
C11    C14     1.416   .     A
C11    C16     1.428   .     A
C12    C25     1.428   .     S
C12    O48     1.286   .     A
C12    O46     1.291   .     A
C13    C17     1.428   .     A
C13    C15     1.416   .     A
C14    C490    1.393   .     S
C15    C491    1.393   1_554 S
C16    C21     1.410   .     A
C16    C485    1.425   .     S
C17    C20     1.410   .     A
C17    C484    1.425   1_554 S
C18    N43     1.158   .     T
C18    C112    1.445   1_455 S
C19    N44     1.158   .     T
C19    C59     1.445   .     S
C20    C22     1.387   .     A
C20    H36     1.078   .     S
C21    C23     1.387   .     A
C21    H37     1.078   .     S
C22    H31     1.084   .     S
C22    C482    1.393   1_554 S
C23    H33     1.084   .     S
C23    C483    1.393   .     S
C24    C181    1.329   .     S
C24    H194    1.088   .     S
C25    C336    1.329   1_545 S
C25    H351    1.088   1_545 S
C26    O49     1.300   .     A
C26    O51     1.299   .     A
Cu29   Cu30    2.687   .     S
Cu29   N42     2.019   .     S
Cu29   O49     1.930   .     S
Cu29   O48     1.951   .     S
Cu29   O45     1.955   .     S
Cu29   O52     1.904   .     S
Cu30   N41     2.019   .     S
Cu30   O50     1.930   .     S
Cu30   O51     1.904   .     S
Cu30   O47     1.951   .     S
Cu30   O46     1.955   .     S
H32    N94     1.029   .     S
H34    C57     1.086   .     S
H35    C110    1.086   1_455 S
H38    C336    1.088   1_545 S
H39    C181    1.088   .     S
H40    N145    1.029   1_455 S
N41    H92     1.029   .     S
N41    N94     1.280   .     S
N42    H136    1.029   1_455 S
N42    N145    1.280   1_455 S
C53    O97     1.291   .     A
C53    C76     1.428   .     S
C53    O99     1.286   .     A
C54    C56     1.478   .     S
C54    O104    1.299   .     A
C54    O102    1.300   .     A
C55    C61     1.409   .     A
C55    C59     1.414   .     A
C55    C78     1.478   .     S
C56    C62     1.409   .     A
C56    C60     1.414   .     A
C57    C66     1.400   .     A
C57    C59     1.395   .     A
C58    C60     1.395   .     A
C58    C67     1.400   .     A
C58    H139    1.086   .     S
C60    C122    1.445   .     S
C61    C63     1.416   .     A
C61    Cl80    1.778   .     S
C62    Cl79    1.778   .     S
C62    C65     1.416   .     A
C63    C66     1.416   .     A
C63    C68     1.428   .     A
C64    C77     1.428   .     S
C64    O100    1.286   .     A
C64    O98     1.291   .     A
C65    C69     1.428   .     A
C65    C67     1.416   .     A
C66    C542    1.393   .     S
C67    C543    1.393   1_554 S
C68    C73     1.410   .     A
C68    C537    1.425   .     S
C69    C72     1.410   .     A
C69    C536    1.425   1_554 S
C70    N95     1.158   .     T
C71    N96     1.158   .     T
C71    C111    1.445   .     S
C72    C74     1.387   .     A
C72    H88     1.078   .     S
C73    C75     1.387   .     A
C73    H89     1.078   .     S
C74    H83     1.084   .     S
C74    C534    1.393   1_554 S
C75    H85     1.084   .     S
C75    C535    1.393   .     S
C76    C233    1.329   .     S
C76    H246    1.088   .     S
C77    C388    1.329   1_545 S
C77    H403    1.088   1_545 S
C78    O101    1.300   .     A
C78    O103    1.299   .     A
Cu81   Cu82    2.687   .     S
Cu81   N94     2.019   .     S
Cu81   O101    1.930   .     S
Cu81   O100    1.951   .     S
Cu81   O97     1.955   .     S
Cu81   O104    1.904   .     S
Cu82   N93     2.019   .     S
Cu82   O102    1.930   .     S
Cu82   O103    1.904   .     S
Cu82   O99     1.951   .     S
Cu82   O98     1.955   .     S
H84    N146    1.029   .     S
H86    C109    1.086   .     S
H90    C388    1.088   1_545 S
H91    C233    1.088   .     S
N93    H144    1.029   .     S
N93    N146    1.280   .     S
C105   O149    1.291   .     A
C105   C128    1.428   .     S
C105   O151    1.286   .     A
C106   C108    1.478   .     S
C106   O156    1.299   .     A
C106   O154    1.300   .     A
C107   C113    1.409   .     A
C107   C111    1.414   .     A
C107   C130    1.478   .     S
C108   C114    1.409   .     A
C108   C112    1.414   .     A
C109   C118    1.400   .     A
C109   C111    1.395   .     A
C110   C112    1.395   .     A
C110   C119    1.400   .     A
C110   H35     1.086   1_655 S
C112   C18     1.445   1_655 S
C113   C115    1.416   .     A
C113   Cl132   1.778   .     S
C114   Cl131   1.778   .     S
C114   C117    1.416   .     A
C115   C118    1.416   .     A
C115   C120    1.428   .     A
C116   C129    1.428   .     S
C116   O152    1.286   .     A
C116   O150    1.291   .     A
C117   C121    1.428   .     A
C117   C119    1.416   .     A
C118   C594    1.393   .     S
C119   C595    1.393   1_554 S
C120   C125    1.410   .     A
C120   C589    1.425   .     S
C121   C124    1.410   .     A
C121   C588    1.425   1_554 S
C122   N147    1.158   .     T
C123   N148    1.158   .     T
C123   C7      1.445   1_655 S
C124   C126    1.387   .     A
C124   H140    1.078   .     S
C125   C127    1.387   .     A
C125   H141    1.078   .     S
C126   H135    1.084   .     S
C126   C586    1.393   1_554 S
C127   H137    1.084   .     S
C127   C587    1.393   .     S
C128   C285    1.329   .     S
C128   H298    1.088   .     S
C129   C440    1.329   1_545 S
C129   H455    1.088   1_545 S
C130   O153    1.300   .     A
C130   O155    1.299   .     A
Cu133  Cu134   2.687   .     S
Cu133  N146    2.019   .     S
Cu133  O153    1.930   .     S
Cu133  O152    1.951   .     S
Cu133  O149    1.955   .     S
Cu133  O156    1.904   .     S
Cu134  N145    2.019   .     S
Cu134  O154    1.930   .     S
Cu134  O155    1.904   .     S
Cu134  O151    1.951   .     S
Cu134  O150    1.955   .     S
H136   N42     1.029   1_655 S
H138   C5      1.086   1_655 S
H142   C440    1.088   1_545 S
H143   C285    1.088   .     S
N145   H40     1.029   1_655 S
N145   N42     1.280   1_655 S
C157   O201    1.291   .     A
C157   C180    1.428   .     S
C157   O203    1.286   .     A
C158   C160    1.478   .     S
C158   O208    1.299   .     A
C158   O206    1.300   .     A
C159   C165    1.409   .     A
C159   C163    1.414   .     A
C159   C182    1.478   .     S
C160   C166    1.409   .     A
C160   C164    1.414   .     A
C161   C170    1.400   .     A
C161   C163    1.395   .     A
C161   H294    1.086   1_455 S
C162   C164    1.395   .     A
C162   C171    1.400   .     A
C162   H243    1.086   .     S
C163   C279    1.445   1_455 S
C164   C226    1.445   .     S
C165   C167    1.416   .     A
C165   Cl184   1.778   .     S
C166   Cl183   1.778   .     S
C166   C169    1.416   .     A
C167   C170    1.416   .     A
C167   C172    1.428   .     A
C168   C181    1.428   .     S
C168   O204    1.286   .     A
C168   O202    1.291   .     A
C169   C173    1.428   .     A
C169   C171    1.416   .     A
C170   C646    1.393   .     S
C171   C647    1.393   1_554 S
C172   C177    1.410   .     A
C172   C641    1.425   .     S
C173   C176    1.410   .     A
C173   C640    1.425   1_554 S
C174   N199    1.158   .     T
C174   C268    1.445   1_455 S
C175   N200    1.158   .     T
C175   C215    1.445   .     S
C176   C178    1.387   .     A
C176   H192    1.078   .     S
C177   C179    1.387   .     A
C177   H193    1.078   .     S
C178   H187    1.084   .     S
C178   C638    1.393   1_554 S
C179   H189    1.084   .     S
C179   C639    1.393   .     S
C180   C337    1.329   .     S
C180   H350    1.088   .     S
C182   O205    1.300   .     A
C182   O207    1.299   .     A
Cu185  Cu186   2.687   .     S
Cu185  N198    2.019   .     S
Cu185  O205    1.930   .     S
Cu185  O204    1.951   .     S
Cu185  O201    1.955   .     S
Cu185  O208    1.904   .     S
Cu186  N197    2.019   .     S
Cu186  O206    1.930   .     S
Cu186  O207    1.904   .     S
Cu186  O203    1.951   .     S
Cu186  O202    1.955   .     S
H188   N250    1.029   .     S
H190   C213    1.086   .     S
H191   C266    1.086   1_455 S
H195   C337    1.088   .     S
H196   N301    1.029   1_455 S
N197   H248    1.029   .     S
N197   N250    1.280   .     S
N198   H292    1.029   1_455 S
N198   N301    1.280   1_455 S
C209   O253    1.291   .     A
C209   C232    1.428   .     S
C209   O255    1.286   .     A
C210   C212    1.478   .     S
C210   O260    1.299   .     A
C210   O258    1.300   .     A
C211   C217    1.409   .     A
C211   C215    1.414   .     A
C211   C234    1.478   .     S
C212   C218    1.409   .     A
C212   C216    1.414   .     A
C213   C222    1.400   .     A
C213   C215    1.395   .     A
C214   C216    1.395   .     A
C214   C223    1.400   .     A
C214   H295    1.086   .     S
C216   C278    1.445   .     S
C217   C219    1.416   .     A
C217   Cl236   1.778   .     S
C218   Cl235   1.778   .     S
C218   C221    1.416   .     A
C219   C222    1.416   .     A
C219   C224    1.428   .     A
C220   C233    1.428   .     S
C220   O256    1.286   .     A
C220   O254    1.291   .     A
C221   C225    1.428   .     A
C221   C223    1.416   .     A
C222   C698    1.393   .     S
C223   C699    1.393   1_554 S
C224   C229    1.410   .     A
C224   C693    1.425   .     S
C225   C228    1.410   .     A
C225   C692    1.425   1_554 S
C226   N251    1.158   .     T
C227   N252    1.158   .     T
C227   C267    1.445   .     S
C228   C230    1.387   .     A
C228   H244    1.078   .     S
C229   C231    1.387   .     A
C229   H245    1.078   .     S
C230   H239    1.084   .     S
C230   C690    1.393   1_554 S
C231   H241    1.084   .     S
C231   C691    1.393   .     S
C232   C389    1.329   .     S
C232   H402    1.088   .     S
C234   O257    1.300   .     A
C234   O259    1.299   .     A
Cu237  Cu238   2.687   .     S
Cu237  N250    2.019   .     S
Cu237  O257    1.930   .     S
Cu237  O256    1.951   .     S
Cu237  O253    1.955   .     S
Cu237  O260    1.904   .     S
Cu238  N249    2.019   .     S
Cu238  O258    1.930   .     S
Cu238  O259    1.904   .     S
Cu238  O255    1.951   .     S
Cu238  O254    1.955   .     S
H240   N302    1.029   .     S
H242   C265    1.086   .     S
H247   C389    1.088   .     S
N249   H300    1.029   .     S
N249   N302    1.280   .     S
C261   O305    1.291   .     A
C261   C284    1.428   .     S
C261   O307    1.286   .     A
C262   C264    1.478   .     S
C262   O312    1.299   .     A
C262   O310    1.300   .     A
C263   C269    1.409   .     A
C263   C267    1.414   .     A
C263   C286    1.478   .     S
C264   C270    1.409   .     A
C264   C268    1.414   .     A
C265   C274    1.400   .     A
C265   C267    1.395   .     A
C266   C268    1.395   .     A
C266   C275    1.400   .     A
C266   H191    1.086   1_655 S
C268   C174    1.445   1_655 S
C269   C271    1.416   .     A
C269   Cl288   1.778   .     S
C270   Cl287   1.778   .     S
C270   C273    1.416   .     A
C271   C274    1.416   .     A
C271   C276    1.428   .     A
C272   C285    1.428   .     S
C272   O308    1.286   .     A
C272   O306    1.291   .     A
C273   C277    1.428   .     A
C273   C275    1.416   .     A
C274   C750    1.393   .     S
C275   C751    1.393   1_554 S
C276   C281    1.410   .     A
C276   C745    1.425   .     S
C277   C280    1.410   .     A
C277   C744    1.425   1_554 S
C278   N303    1.158   .     T
C279   N304    1.158   .     T
C279   C163    1.445   1_655 S
C280   C282    1.387   .     A
C280   H296    1.078   .     S
C281   C283    1.387   .     A
C281   H297    1.078   .     S
C282   H291    1.084   .     S
C282   C742    1.393   1_554 S
C283   H293    1.084   .     S
C283   C743    1.393   .     S
C284   C441    1.329   .     S
C284   H454    1.088   .     S
C286   O309    1.300   .     A
C286   O311    1.299   .     A
Cu289  Cu290   2.687   .     S
Cu289  N302    2.019   .     S
Cu289  O309    1.930   .     S
Cu289  O308    1.951   .     S
Cu289  O305    1.955   .     S
Cu289  O312    1.904   .     S
Cu290  N301    2.019   .     S
Cu290  O310    1.930   .     S
Cu290  O311    1.904   .     S
Cu290  O307    1.951   .     S
Cu290  O306    1.955   .     S
H292   N198    1.029   1_655 S
H294   C161    1.086   1_655 S
H299   C441    1.088   .     S
N301   H196    1.029   1_655 S
N301   N198    1.280   1_655 S
C313   O357    1.291   .     A
C313   C336    1.428   .     S
C313   O359    1.286   .     A
C314   C316    1.478   .     S
C314   O364    1.299   .     A
C314   O362    1.300   .     A
C315   C321    1.409   .     A
C315   C319    1.414   .     A
C315   C338    1.478   .     S
C316   C322    1.409   .     A
C316   C320    1.414   .     A
C317   C326    1.400   .     A
C317   C319    1.395   .     A
C317   H450    1.086   1_455 S
C318   C320    1.395   .     A
C318   C327    1.400   .     A
C318   H399    1.086   .     S
C319   C435    1.445   1_455 S
C320   C382    1.445   .     S
C321   C323    1.416   .     A
C321   Cl340   1.778   .     S
C322   Cl339   1.778   .     S
C322   C325    1.416   .     A
C323   C326    1.416   .     A
C323   C328    1.428   .     A
C324   C337    1.428   .     S
C324   O360    1.286   .     A
C324   O358    1.291   .     A
C325   C329    1.428   .     A
C325   C327    1.416   .     A
C326   C802    1.393   .     S
C327   C803    1.393   1_554 S
C328   C333    1.410   .     A
C328   C797    1.425   .     S
C329   C332    1.410   .     A
C329   C796    1.425   1_554 S
C330   N355    1.158   .     T
C330   C424    1.445   1_455 S
C331   N356    1.158   .     T
C331   C371    1.445   .     S
C332   C334    1.387   .     A
C332   H348    1.078   .     S
C333   C335    1.387   .     A
C333   H349    1.078   .     S
C334   H343    1.084   .     S
C334   C794    1.393   1_554 S
C335   H345    1.084   .     S
C335   C795    1.393   .     S
C336   C25     1.329   1_565 S
C336   H38     1.088   1_565 S
C338   O361    1.300   .     A
C338   O363    1.299   .     A
Cu341  Cu342   2.687   .     S
Cu341  N354    2.019   .     S
Cu341  O361    1.930   .     S
Cu341  O360    1.951   .     S
Cu341  O357    1.955   .     S
Cu341  O364    1.904   .     S
Cu342  N353    2.019   .     S
Cu342  O362    1.930   .     S
Cu342  O363    1.904   .     S
Cu342  O359    1.951   .     S
Cu342  O358    1.955   .     S
H344   N406    1.029   .     S
H346   C369    1.086   .     S
H347   C422    1.086   1_455 S
H351   C25     1.088   1_565 S
H352   N457    1.029   1_455 S
N353   H404    1.029   .     S
N353   N406    1.280   .     S
N354   H448    1.029   1_455 S
N354   N457    1.280   1_455 S
C365   O409    1.291   .     A
C365   C388    1.428   .     S
C365   O411    1.286   .     A
C366   C368    1.478   .     S
C366   O416    1.299   .     A
C366   O414    1.300   .     A
C367   C373    1.409   .     A
C367   C371    1.414   .     A
C367   C390    1.478   .     S
C368   C374    1.409   .     A
C368   C372    1.414   .     A
C369   C378    1.400   .     A
C369   C371    1.395   .     A
C370   C372    1.395   .     A
C370   C379    1.400   .     A
C370   H451    1.086   .     S
C372   C434    1.445   .     S
C373   C375    1.416   .     A
C373   Cl392   1.778   .     S
C374   Cl391   1.778   .     S
C374   C377    1.416   .     A
C375   C378    1.416   .     A
C375   C380    1.428   .     A
C376   C389    1.428   .     S
C376   O412    1.286   .     A
C376   O410    1.291   .     A
C377   C381    1.428   .     A
C377   C379    1.416   .     A
C378   C854    1.393   .     S
C379   C855    1.393   1_554 S
C380   C385    1.410   .     A
C380   C849    1.425   .     S
C381   C384    1.410   .     A
C381   C848    1.425   1_554 S
C382   N407    1.158   .     T
C383   N408    1.158   .     T
C383   C423    1.445   .     S
C384   C386    1.387   .     A
C384   H400    1.078   .     S
C385   C387    1.387   .     A
C385   H401    1.078   .     S
C386   H395    1.084   .     S
C386   C846    1.393   1_554 S
C387   H397    1.084   .     S
C387   C847    1.393   .     S
C388   C77     1.329   1_565 S
C388   H90     1.088   1_565 S
C390   O413    1.300   .     A
C390   O415    1.299   .     A
Cu393  Cu394   2.687   .     S
Cu393  N406    2.019   .     S
Cu393  O413    1.930   .     S
Cu393  O412    1.951   .     S
Cu393  O409    1.955   .     S
Cu393  O416    1.904   .     S
Cu394  N405    2.019   .     S
Cu394  O414    1.930   .     S
Cu394  O415    1.904   .     S
Cu394  O411    1.951   .     S
Cu394  O410    1.955   .     S
H396   N458    1.029   .     S
H398   C421    1.086   .     S
H403   C77     1.088   1_565 S
N405   H456    1.029   .     S
N405   N458    1.280   .     S
C417   O461    1.291   .     A
C417   C440    1.428   .     S
C417   O463    1.286   .     A
C418   C420    1.478   .     S
C418   O468    1.299   .     A
C418   O466    1.300   .     A
C419   C425    1.409   .     A
C419   C423    1.414   .     A
C419   C442    1.478   .     S
C420   C426    1.409   .     A
C420   C424    1.414   .     A
C421   C430    1.400   .     A
C421   C423    1.395   .     A
C422   C424    1.395   .     A
C422   C431    1.400   .     A
C422   H347    1.086   1_655 S
C424   C330    1.445   1_655 S
C425   C427    1.416   .     A
C425   Cl444   1.778   .     S
C426   Cl443   1.778   .     S
C426   C429    1.416   .     A
C427   C430    1.416   .     A
C427   C432    1.428   .     A
C428   C441    1.428   .     S
C428   O464    1.286   .     A
C428   O462    1.291   .     A
C429   C433    1.428   .     A
C429   C431    1.416   .     A
C430   C906    1.393   .     S
C431   C907    1.393   1_554 S
C432   C437    1.410   .     A
C432   C901    1.425   .     S
C433   C436    1.410   .     A
C433   C900    1.425   1_554 S
C434   N459    1.158   .     T
C435   N460    1.158   .     T
C435   C319    1.445   1_655 S
C436   C438    1.387   .     A
C436   H452    1.078   .     S
C437   C439    1.387   .     A
C437   H453    1.078   .     S
C438   H447    1.084   .     S
C438   C898    1.393   1_554 S
C439   H449    1.084   .     S
C439   C899    1.393   .     S
C440   C129    1.329   1_565 S
C440   H142    1.088   1_565 S
C442   O465    1.300   .     A
C442   O467    1.299   .     A
Cu445  Cu446   2.687   .     S
Cu445  N458    2.019   .     S
Cu445  O465    1.930   .     S
Cu445  O464    1.951   .     S
Cu445  O461    1.955   .     S
Cu445  O468    1.904   .     S
Cu446  N457    2.019   .     S
Cu446  O466    1.930   .     S
Cu446  O467    1.904   .     S
Cu446  O463    1.951   .     S
Cu446  O462    1.955   .     S
H448   N354    1.029   1_655 S
H450   C317    1.086   1_655 S
H455   C129    1.088   1_565 S
N457   H352    1.029   1_655 S
N457   N354    1.280   1_655 S
C469   O513    1.291   .     A
C469   C492    1.428   .     S
C469   O515    1.286   .     A
C470   C472    1.478   .     S
C470   O520    1.299   .     A
C470   O518    1.300   .     A
C471   C477    1.409   .     A
C471   C475    1.414   .     A
C471   C494    1.478   .     S
C472   C478    1.409   .     A
C472   C476    1.414   .     A
C473   C482    1.400   .     A
C473   C475    1.395   .     A
C473   H606    1.086   1_455 S
C474   C476    1.395   .     A
C474   C483    1.400   .     A
C474   H555    1.086   .     S
C475   C591    1.445   1_455 S
C476   C538    1.445   .     S
C477   C479    1.416   .     A
C477   Cl496   1.778   .     S
C478   Cl495   1.778   .     S
C478   C481    1.416   .     A
C479   C482    1.416   .     A
C479   C484    1.428   .     A
C480   C493    1.428   .     S
C480   O516    1.286   .     A
C480   O514    1.291   .     A
C481   C485    1.428   .     A
C481   C483    1.416   .     A
C482   C22     1.393   1_556 S
C484   C489    1.410   .     A
C484   C17     1.425   1_556 S
C485   C488    1.410   .     A
C486   N511    1.158   .     T
C486   C580    1.445   1_455 S
C487   N512    1.158   .     T
C487   C527    1.445   .     S
C488   C490    1.387   .     A
C488   H504    1.078   .     S
C489   C491    1.387   .     A
C489   H505    1.078   .     S
C490   H499    1.084   .     S
C491   H501    1.084   .     S
C491   C15     1.393   1_556 S
C492   C649    1.329   .     S
C492   H662    1.088   .     S
C493   C804    1.329   1_545 S
C493   H819    1.088   1_545 S
C494   O517    1.300   .     A
C494   O519    1.299   .     A
Cu497  Cu498   2.687   .     S
Cu497  N510    2.019   .     S
Cu497  O517    1.930   .     S
Cu497  O516    1.951   .     S
Cu497  O513    1.955   .     S
Cu497  O520    1.904   .     S
Cu498  N509    2.019   .     S
Cu498  O518    1.930   .     S
Cu498  O519    1.904   .     S
Cu498  O515    1.951   .     S
Cu498  O514    1.955   .     S
H500   N562    1.029   .     S
H502   C525    1.086   .     S
H503   C578    1.086   1_455 S
H506   C804    1.088   1_545 S
H507   C649    1.088   .     S
H508   N613    1.029   1_455 S
N509   H560    1.029   .     S
N509   N562    1.280   .     S
N510   H604    1.029   1_455 S
N510   N613    1.280   1_455 S
C521   O565    1.291   .     A
C521   C544    1.428   .     S
C521   O567    1.286   .     A
C522   C524    1.478   .     S
C522   O572    1.299   .     A
C522   O570    1.300   .     A
C523   C529    1.409   .     A
C523   C527    1.414   .     A
C523   C546    1.478   .     S
C524   C530    1.409   .     A
C524   C528    1.414   .     A
C525   C534    1.400   .     A
C525   C527    1.395   .     A
C526   C528    1.395   .     A
C526   C535    1.400   .     A
C526   H607    1.086   .     S
C528   C590    1.445   .     S
C529   C531    1.416   .     A
C529   Cl548   1.778   .     S
C530   Cl547   1.778   .     S
C530   C533    1.416   .     A
C531   C534    1.416   .     A
C531   C536    1.428   .     A
C532   C545    1.428   .     S
C532   O568    1.286   .     A
C532   O566    1.291   .     A
C533   C537    1.428   .     A
C533   C535    1.416   .     A
C534   C74     1.393   1_556 S
C536   C541    1.410   .     A
C536   C69     1.425   1_556 S
C537   C540    1.410   .     A
C538   N563    1.158   .     T
C539   N564    1.158   .     T
C539   C579    1.445   .     S
C540   C542    1.387   .     A
C540   H556    1.078   .     S
C541   C543    1.387   .     A
C541   H557    1.078   .     S
C542   H551    1.084   .     S
C543   H553    1.084   .     S
C543   C67     1.393   1_556 S
C544   C701    1.329   .     S
C544   H714    1.088   .     S
C545   C856    1.329   1_545 S
C545   H871    1.088   1_545 S
C546   O569    1.300   .     A
C546   O571    1.299   .     A
Cu549  Cu550   2.687   .     S
Cu549  N562    2.019   .     S
Cu549  O569    1.930   .     S
Cu549  O568    1.951   .     S
Cu549  O565    1.955   .     S
Cu549  O572    1.904   .     S
Cu550  N561    2.019   .     S
Cu550  O570    1.930   .     S
Cu550  O571    1.904   .     S
Cu550  O567    1.951   .     S
Cu550  O566    1.955   .     S
H552   N614    1.029   .     S
H554   C577    1.086   .     S
H558   C856    1.088   1_545 S
H559   C701    1.088   .     S
N561   H612    1.029   .     S
N561   N614    1.280   .     S
C573   O617    1.291   .     A
C573   C596    1.428   .     S
C573   O619    1.286   .     A
C574   C576    1.478   .     S
C574   O624    1.299   .     A
C574   O622    1.300   .     A
C575   C581    1.409   .     A
C575   C579    1.414   .     A
C575   C598    1.478   .     S
C576   C582    1.409   .     A
C576   C580    1.414   .     A
C577   C586    1.400   .     A
C577   C579    1.395   .     A
C578   C580    1.395   .     A
C578   C587    1.400   .     A
C578   H503    1.086   1_655 S
C580   C486    1.445   1_655 S
C581   C583    1.416   .     A
C581   Cl600   1.778   .     S
C582   Cl599   1.778   .     S
C582   C585    1.416   .     A
C583   C586    1.416   .     A
C583   C588    1.428   .     A
C584   C597    1.428   .     S
C584   O620    1.286   .     A
C584   O618    1.291   .     A
C585   C589    1.428   .     A
C585   C587    1.416   .     A
C586   C126    1.393   1_556 S
C588   C593    1.410   .     A
C588   C121    1.425   1_556 S
C589   C592    1.410   .     A
C590   N615    1.158   .     T
C591   N616    1.158   .     T
C591   C475    1.445   1_655 S
C592   C594    1.387   .     A
C592   H608    1.078   .     S
C593   C595    1.387   .     A
C593   H609    1.078   .     S
C594   H603    1.084   .     S
C595   H605    1.084   .     S
C595   C119    1.393   1_556 S
C596   C753    1.329   .     S
C596   H766    1.088   .     S
C597   C908    1.329   1_545 S
C597   H923    1.088   1_545 S
C598   O621    1.300   .     A
C598   O623    1.299   .     A
Cu601  Cu602   2.687   .     S
Cu601  N614    2.019   .     S
Cu601  O621    1.930   .     S
Cu601  O620    1.951   .     S
Cu601  O617    1.955   .     S
Cu601  O624    1.904   .     S
Cu602  N613    2.019   .     S
Cu602  O622    1.930   .     S
Cu602  O623    1.904   .     S
Cu602  O619    1.951   .     S
Cu602  O618    1.955   .     S
H604   N510    1.029   1_655 S
H606   C473    1.086   1_655 S
H610   C908    1.088   1_545 S
H611   C753    1.088   .     S
N613   H508    1.029   1_655 S
N613   N510    1.280   1_655 S
C625   O669    1.291   .     A
C625   C648    1.428   .     S
C625   O671    1.286   .     A
C626   C628    1.478   .     S
C626   O676    1.299   .     A
C626   O674    1.300   .     A
C627   C633    1.409   .     A
C627   C631    1.414   .     A
C627   C650    1.478   .     S
C628   C634    1.409   .     A
C628   C632    1.414   .     A
C629   C638    1.400   .     A
C629   C631    1.395   .     A
C629   H762    1.086   1_455 S
C630   C632    1.395   .     A
C630   C639    1.400   .     A
C630   H711    1.086   .     S
C631   C747    1.445   1_455 S
C632   C694    1.445   .     S
C633   C635    1.416   .     A
C633   Cl652   1.778   .     S
C634   Cl651   1.778   .     S
C634   C637    1.416   .     A
C635   C638    1.416   .     A
C635   C640    1.428   .     A
C636   C649    1.428   .     S
C636   O672    1.286   .     A
C636   O670    1.291   .     A
C637   C641    1.428   .     A
C637   C639    1.416   .     A
C638   C178    1.393   1_556 S
C640   C645    1.410   .     A
C640   C173    1.425   1_556 S
C641   C644    1.410   .     A
C642   N667    1.158   .     T
C642   C736    1.445   1_455 S
C643   N668    1.158   .     T
C643   C683    1.445   .     S
C644   C646    1.387   .     A
C644   H660    1.078   .     S
C645   C647    1.387   .     A
C645   H661    1.078   .     S
C646   H655    1.084   .     S
C647   H657    1.084   .     S
C647   C171    1.393   1_556 S
C648   C805    1.329   .     S
C648   H818    1.088   .     S
C650   O673    1.300   .     A
C650   O675    1.299   .     A
Cu653  Cu654   2.687   .     S
Cu653  N666    2.019   .     S
Cu653  O673    1.930   .     S
Cu653  O672    1.951   .     S
Cu653  O669    1.955   .     S
Cu653  O676    1.904   .     S
Cu654  N665    2.019   .     S
Cu654  O674    1.930   .     S
Cu654  O675    1.904   .     S
Cu654  O671    1.951   .     S
Cu654  O670    1.955   .     S
H656   N718    1.029   .     S
H658   C681    1.086   .     S
H659   C734    1.086   1_455 S
H663   C805    1.088   .     S
H664   N769    1.029   1_455 S
N665   H716    1.029   .     S
N665   N718    1.280   .     S
N666   H760    1.029   1_455 S
N666   N769    1.280   1_455 S
C677   O721    1.291   .     A
C677   C700    1.428   .     S
C677   O723    1.286   .     A
C678   C680    1.478   .     S
C678   O728    1.299   .     A
C678   O726    1.300   .     A
C679   C685    1.409   .     A
C679   C683    1.414   .     A
C679   C702    1.478   .     S
C680   C686    1.409   .     A
C680   C684    1.414   .     A
C681   C690    1.400   .     A
C681   C683    1.395   .     A
C682   C684    1.395   .     A
C682   C691    1.400   .     A
C682   H763    1.086   .     S
C684   C746    1.445   .     S
C685   C687    1.416   .     A
C685   Cl704   1.778   .     S
C686   Cl703   1.778   .     S
C686   C689    1.416   .     A
C687   C690    1.416   .     A
C687   C692    1.428   .     A
C688   C701    1.428   .     S
C688   O724    1.286   .     A
C688   O722    1.291   .     A
C689   C693    1.428   .     A
C689   C691    1.416   .     A
C690   C230    1.393   1_556 S
C692   C697    1.410   .     A
C692   C225    1.425   1_556 S
C693   C696    1.410   .     A
C694   N719    1.158   .     T
C695   N720    1.158   .     T
C695   C735    1.445   .     S
C696   C698    1.387   .     A
C696   H712    1.078   .     S
C697   C699    1.387   .     A
C697   H713    1.078   .     S
C698   H707    1.084   .     S
C699   H709    1.084   .     S
C699   C223    1.393   1_556 S
C700   C857    1.329   .     S
C700   H870    1.088   .     S
C702   O725    1.300   .     A
C702   O727    1.299   .     A
Cu705  Cu706   2.687   .     S
Cu705  N718    2.019   .     S
Cu705  O725    1.930   .     S
Cu705  O724    1.951   .     S
Cu705  O721    1.955   .     S
Cu705  O728    1.904   .     S
Cu706  N717    2.019   .     S
Cu706  O726    1.930   .     S
Cu706  O727    1.904   .     S
Cu706  O723    1.951   .     S
Cu706  O722    1.955   .     S
H708   N770    1.029   .     S
H710   C733    1.086   .     S
H715   C857    1.088   .     S
N717   H768    1.029   .     S
N717   N770    1.280   .     S
C729   O773    1.291   .     A
C729   C752    1.428   .     S
C729   O775    1.286   .     A
C730   C732    1.478   .     S
C730   O780    1.299   .     A
C730   O778    1.300   .     A
C731   C737    1.409   .     A
C731   C735    1.414   .     A
C731   C754    1.478   .     S
C732   C738    1.409   .     A
C732   C736    1.414   .     A
C733   C742    1.400   .     A
C733   C735    1.395   .     A
C734   C736    1.395   .     A
C734   C743    1.400   .     A
C734   H659    1.086   1_655 S
C736   C642    1.445   1_655 S
C737   C739    1.416   .     A
C737   Cl756   1.778   .     S
C738   Cl755   1.778   .     S
C738   C741    1.416   .     A
C739   C742    1.416   .     A
C739   C744    1.428   .     A
C740   C753    1.428   .     S
C740   O776    1.286   .     A
C740   O774    1.291   .     A
C741   C745    1.428   .     A
C741   C743    1.416   .     A
C742   C282    1.393   1_556 S
C744   C749    1.410   .     A
C744   C277    1.425   1_556 S
C745   C748    1.410   .     A
C746   N771    1.158   .     T
C747   N772    1.158   .     T
C747   C631    1.445   1_655 S
C748   C750    1.387   .     A
C748   H764    1.078   .     S
C749   C751    1.387   .     A
C749   H765    1.078   .     S
C750   H759    1.084   .     S
C751   H761    1.084   .     S
C751   C275    1.393   1_556 S
C752   C909    1.329   .     S
C752   H922    1.088   .     S
C754   O777    1.300   .     A
C754   O779    1.299   .     A
Cu757  Cu758   2.687   .     S
Cu757  N770    2.019   .     S
Cu757  O777    1.930   .     S
Cu757  O776    1.951   .     S
Cu757  O773    1.955   .     S
Cu757  O780    1.904   .     S
Cu758  N769    2.019   .     S
Cu758  O778    1.930   .     S
Cu758  O779    1.904   .     S
Cu758  O775    1.951   .     S
Cu758  O774    1.955   .     S
H760   N666    1.029   1_655 S
H762   C629    1.086   1_655 S
H767   C909    1.088   .     S
N769   H664    1.029   1_655 S
N769   N666    1.280   1_655 S
C781   O825    1.291   .     A
C781   C804    1.428   .     S
C781   O827    1.286   .     A
C782   C784    1.478   .     S
C782   O832    1.299   .     A
C782   O830    1.300   .     A
C783   C789    1.409   .     A
C783   C787    1.414   .     A
C783   C806    1.478   .     S
C784   C790    1.409   .     A
C784   C788    1.414   .     A
C785   C794    1.400   .     A
C785   C787    1.395   .     A
C785   H918    1.086   1_455 S
C786   C788    1.395   .     A
C786   C795    1.400   .     A
C786   H867    1.086   .     S
C787   C903    1.445   1_455 S
C788   C850    1.445   .     S
C789   C791    1.416   .     A
C789   Cl808   1.778   .     S
C790   Cl807   1.778   .     S
C790   C793    1.416   .     A
C791   C794    1.416   .     A
C791   C796    1.428   .     A
C792   C805    1.428   .     S
C792   O828    1.286   .     A
C792   O826    1.291   .     A
C793   C797    1.428   .     A
C793   C795    1.416   .     A
C794   C334    1.393   1_556 S
C796   C801    1.410   .     A
C796   C329    1.425   1_556 S
C797   C800    1.410   .     A
C798   N823    1.158   .     T
C798   C892    1.445   1_455 S
C799   N824    1.158   .     T
C799   C839    1.445   .     S
C800   C802    1.387   .     A
C800   H816    1.078   .     S
C801   C803    1.387   .     A
C801   H817    1.078   .     S
C802   H811    1.084   .     S
C803   H813    1.084   .     S
C803   C327    1.393   1_556 S
C804   C493    1.329   1_565 S
C804   H506    1.088   1_565 S
C806   O829    1.300   .     A
C806   O831    1.299   .     A
Cu809  Cu810   2.687   .     S
Cu809  N822    2.019   .     S
Cu809  O829    1.930   .     S
Cu809  O828    1.951   .     S
Cu809  O825    1.955   .     S
Cu809  O832    1.904   .     S
Cu810  N821    2.019   .     S
Cu810  O830    1.930   .     S
Cu810  O831    1.904   .     S
Cu810  O827    1.951   .     S
Cu810  O826    1.955   .     S
H812   N874    1.029   .     S
H814   C837    1.086   .     S
H815   C890    1.086   1_455 S
H819   C493    1.088   1_565 S
H820   N925    1.029   1_455 S
N821   H872    1.029   .     S
N821   N874    1.280   .     S
N822   H916    1.029   1_455 S
N822   N925    1.280   1_455 S
C833   O877    1.291   .     A
C833   C856    1.428   .     S
C833   O879    1.286   .     A
C834   C836    1.478   .     S
C834   O884    1.299   .     A
C834   O882    1.300   .     A
C835   C841    1.409   .     A
C835   C839    1.414   .     A
C835   C858    1.478   .     S
C836   C842    1.409   .     A
C836   C840    1.414   .     A
C837   C846    1.400   .     A
C837   C839    1.395   .     A
C838   C840    1.395   .     A
C838   C847    1.400   .     A
C838   H919    1.086   .     S
C840   C902    1.445   .     S
C841   C843    1.416   .     A
C841   Cl860   1.778   .     S
C842   Cl859   1.778   .     S
C842   C845    1.416   .     A
C843   C846    1.416   .     A
C843   C848    1.428   .     A
C844   C857    1.428   .     S
C844   O880    1.286   .     A
C844   O878    1.291   .     A
C845   C849    1.428   .     A
C845   C847    1.416   .     A
C846   C386    1.393   1_556 S
C848   C853    1.410   .     A
C848   C381    1.425   1_556 S
C849   C852    1.410   .     A
C850   N875    1.158   .     T
C851   N876    1.158   .     T
C851   C891    1.445   .     S
C852   C854    1.387   .     A
C852   H868    1.078   .     S
C853   C855    1.387   .     A
C853   H869    1.078   .     S
C854   H863    1.084   .     S
C855   H865    1.084   .     S
C855   C379    1.393   1_556 S
C856   C545    1.329   1_565 S
C856   H558    1.088   1_565 S
C858   O881    1.300   .     A
C858   O883    1.299   .     A
Cu861  Cu862   2.687   .     S
Cu861  N874    2.019   .     S
Cu861  O881    1.930   .     S
Cu861  O880    1.951   .     S
Cu861  O877    1.955   .     S
Cu861  O884    1.904   .     S
Cu862  N873    2.019   .     S
Cu862  O882    1.930   .     S
Cu862  O883    1.904   .     S
Cu862  O879    1.951   .     S
Cu862  O878    1.955   .     S
H864   N926    1.029   .     S
H866   C889    1.086   .     S
H871   C545    1.088   1_565 S
N873   H924    1.029   .     S
N873   N926    1.280   .     S
C885   O929    1.291   .     A
C885   C908    1.428   .     S
C885   O931    1.286   .     A
C886   C888    1.478   .     S
C886   O936    1.299   .     A
C886   O934    1.300   .     A
C887   C893    1.409   .     A
C887   C891    1.414   .     A
C887   C910    1.478   .     S
C888   C894    1.409   .     A
C888   C892    1.414   .     A
C889   C898    1.400   .     A
C889   C891    1.395   .     A
C890   C892    1.395   .     A
C890   C899    1.400   .     A
C890   H815    1.086   1_655 S
C892   C798    1.445   1_655 S
C893   C895    1.416   .     A
C893   Cl912   1.778   .     S
C894   Cl911   1.778   .     S
C894   C897    1.416   .     A
C895   C898    1.416   .     A
C895   C900    1.428   .     A
C896   C909    1.428   .     S
C896   O932    1.286   .     A
C896   O930    1.291   .     A
C897   C901    1.428   .     A
C897   C899    1.416   .     A
C898   C438    1.393   1_556 S
C900   C905    1.410   .     A
C900   C433    1.425   1_556 S
C901   C904    1.410   .     A
C902   N927    1.158   .     T
C903   N928    1.158   .     T
C903   C787    1.445   1_655 S
C904   C906    1.387   .     A
C904   H920    1.078   .     S
C905   C907    1.387   .     A
C905   H921    1.078   .     S
C906   H915    1.084   .     S
C907   H917    1.084   .     S
C907   C431    1.393   1_556 S
C908   C597    1.329   1_565 S
C908   H610    1.088   1_565 S
C910   O933    1.300   .     A
C910   O935    1.299   .     A
Cu913  Cu914   2.687   .     S
Cu913  N926    2.019   .     S
Cu913  O933    1.930   .     S
Cu913  O932    1.951   .     S
Cu913  O929    1.955   .     S
Cu913  O936    1.904   .     S
Cu914  N925    2.019   .     S
Cu914  O934    1.930   .     S
Cu914  O935    1.904   .     S
Cu914  O931    1.951   .     S
Cu914  O930    1.955   .     S
H916   N822    1.029   1_655 S
H918   C785    1.086   1_655 S
H923   C597    1.088   1_565 S
N925   H820    1.029   1_655 S
N925   N822    1.280   1_655 S
