data_str_m1_o10_o16_pcu_sym.125
_audit_creation_date              2020-01-03
_audit_creation_method            'Materials Studio'
_symmetry_space_group_name_H-M    'P1'
_symmetry_Int_Tables_number       1
_symmetry_cell_setting            triclinic
loop_
_symmetry_equiv_pos_as_xyz
  x,y,z
_cell_length_a                    32.5747
_cell_length_b                    32.4949
_cell_length_c                    31.1825
_cell_angle_alpha                 96.5356
_cell_angle_beta                  74.4152
_cell_angle_gamma                 98.8179
loop_
_atom_site_label
_atom_site_type_symbol
_atom_site_fract_x
_atom_site_fract_y
_atom_site_fract_z
_atom_site_U_iso_or_equiv
_atom_site_adp_type
_atom_site_occupancy
C1     C     0.05272   0.15953   0.26014   0.00000  Uiso   1.00
C2     C     0.17267   0.16852   0.05960   0.00000  Uiso   1.00
C3     C     0.20853   0.10707   0.05880   0.00000  Uiso   1.00
C4     C     0.28086   0.17413   0.24000   0.00000  Uiso   1.00
C5     C     0.14315   0.19511   0.41883   0.00000  Uiso   1.00
C6     C     0.32704   0.17783   0.23605   0.00000  Uiso   1.00
C7     C     0.00752   0.15753   0.26351   0.00000  Uiso   1.00
C8     C     0.18045   0.32263   0.23533   0.00000  Uiso   1.00
C9     C     0.15191   0.01170   0.26337   0.00000  Uiso   1.00
C10    C     0.15576   0.05596   0.26045   0.00000  Uiso   1.00
C11    C     0.17655   0.27793   0.23985   0.00000  Uiso   1.00
C12    C     0.14862   0.25301   0.47386   0.00000  Uiso   1.00
C13    C     0.18467   0.14884   0.12944   0.00000  Uiso   1.00
C14    C     0.14791   0.18418   0.37085   0.00000  Uiso   1.00
C15    C     0.20260   0.09322   0.01657   0.00000  Uiso   1.00
C16    C     0.19070   0.14278   0.08141   0.00000  Uiso   1.00
C17    C     0.13948   0.23706   0.43394   0.00000  Uiso   1.00
C18    C     0.26727   0.09991   0.08234   0.00000  Uiso   1.00
C19    C     0.20740   0.00266   0.16240   0.00000  Uiso   1.00
C20    C     0.25311   0.05922   0.46636   0.00000  Uiso   1.00
C21    C     0.16538   0.22954   0.10709   0.00000  Uiso   1.00
C22    C     0.13078   0.06450   0.38900   0.00000  Uiso   1.00
C23    C     0.16113   0.22732   0.49932   0.00000  Uiso   1.00
C24    C     0.02616   0.24217   0.21560   0.00000  Uiso   1.00
C25    C     0.16033   0.18389   0.48799   0.00000  Uiso   1.00
C26    C     0.15043   0.16724   0.44722   0.00000  Uiso   1.00
C27    C     0.17236   0.15730   0.01440   0.00000  Uiso   1.00
C28    C     0.18208   0.11708   0.49554   0.00000  Uiso   1.00
C29    C     0.16823   0.09991   0.45783   0.00000  Uiso   1.00
C30    C     0.14878   0.12363   0.43549   0.00000  Uiso   1.00
H31    H     0.26585   0.12580   0.10896   0.00000  Uiso   1.00
H32    H     0.25215   0.07778   0.43885   0.00000  Uiso   1.00
H33    H     0.26109   0.02791   0.45127   0.00000  Uiso   1.00
H34    H     0.27918   0.07383   0.48209   0.00000  Uiso   1.00
H35    H     0.20107   0.23414   0.09428   0.00000  Uiso   1.00
H36    H     0.15583   0.22533   0.14340   0.00000  Uiso   1.00
H37    H     0.15357   0.25886   0.10339   0.00000  Uiso   1.00
H38    H     0.13342   0.25862   0.41294   0.00000  Uiso   1.00
H39    H     0.17374   0.24262   0.02624   0.00000  Uiso   1.00
H40    H     0.14890   0.28610   0.48361   0.00000  Uiso   1.00
H41    H     0.11387   0.05541   0.36221   0.00000  Uiso   1.00
H42    H     0.28707   0.11134   0.04987   0.00000  Uiso   1.00
H43    H     0.11573   0.04309   0.41590   0.00000  Uiso   1.00
H44    H     0.16528   0.06101   0.37410   0.00000  Uiso   1.00
H45    H     0.03688   0.24878   0.24700   0.00000  Uiso   1.00
H46    H     0.32869   0.25478   0.21965   0.00000  Uiso   1.00
H47    H     0.05080   0.25899   0.18925   0.00000  Uiso   1.00
H48    H     0.28399   0.07597   0.09093   0.00000  Uiso   1.00
H49    H     0.31875   0.13970   0.28958   0.00000  Uiso   1.00
H50    H     0.17722   0.01473   0.16232   0.00000  Uiso   1.00
H51    H     0.20633   0.30259   0.14980   0.00000  Uiso   1.00
H52    H     0.23420   0.02031   0.13883   0.00000  Uiso   1.00
H53    H     0.12485   0.33078   0.28820   0.00000  Uiso   1.00
H54    H     0.17102   0.06737   0.44751   0.00000  Uiso   1.00
O55    O     0.16667   0.16667   0.25000   0.00000  Uiso   1.00
O56    O     0.15451   0.12637   0.15459   0.00000  Uiso   1.00
O57    O     0.12940   0.20391   0.34968   0.00000  Uiso   1.00
O58    O     0.20824   0.17759   0.14606   0.00000  Uiso   1.00
O59    O     0.17451   0.15880   0.34968   0.00000  Uiso   1.00
O60    O     0.22559   0.08151   0.08031   0.00000  Uiso   1.00
O61    O     0.21541   0.00875   0.20505   0.00000  Uiso   1.00
O62    O     0.21312   0.05417   0.49826   0.00000  Uiso   1.00
O63    O     0.14459   0.19610   0.08427   0.00000  Uiso   1.00
O64    O     0.12531   0.10626   0.40468   0.00000  Uiso   1.00
O65    O     0.02276   0.19915   0.20210   0.00000  Uiso   1.00
O66    O     0.17930   0.08019   0.28214   0.00000  Uiso   1.00
O67    O     0.14632   0.26085   0.27014   0.00000  Uiso   1.00
O68    O     0.07412   0.13291   0.23413   0.00000  Uiso   1.00
O69    O     0.26693   0.19272   0.21361   0.00000  Uiso   1.00
O70    O     0.07071   0.18878   0.28213   0.00000  Uiso   1.00
O71    O     0.25491   0.15226   0.27014   0.00000  Uiso   1.00
O72    O     0.13760   0.06944   0.23413   0.00000  Uiso   1.00
O73    O     0.20345   0.25620   0.21361   0.00000  Uiso   1.00
Zn74   Zn    0.19338   0.13994   0.28734   0.00000  Uiso   1.00
Zn75   Zn    0.13379   0.12458   0.21876   0.00000  Uiso   1.00
Zn76   Zn    0.21056   0.19775   0.20657   0.00000  Uiso   1.00
Zn77   Zn    0.12893   0.20439   0.28734   0.00000  Uiso   1.00
C78    C     0.38605   0.15953   0.26014   0.00000  Uiso   1.00
C79    C     0.50600   0.16852   0.05960   0.00000  Uiso   1.00
C80    C     0.54186   0.10707   0.05880   0.00000  Uiso   1.00
C81    C     0.61419   0.17413   0.24000   0.00000  Uiso   1.00
C82    C     0.47648   0.19511   0.41883   0.00000  Uiso   1.00
C83    C     0.66038   0.17783   0.23605   0.00000  Uiso   1.00
C84    C     0.34085   0.15753   0.26351   0.00000  Uiso   1.00
C85    C     0.51378   0.32263   0.23533   0.00000  Uiso   1.00
C86    C     0.48524   0.01170   0.26337   0.00000  Uiso   1.00
C87    C     0.48910   0.05596   0.26045   0.00000  Uiso   1.00
C88    C     0.50988   0.27793   0.23985   0.00000  Uiso   1.00
C89    C     0.48196   0.25301   0.47386   0.00000  Uiso   1.00
C90    C     0.51801   0.14884   0.12944   0.00000  Uiso   1.00
C91    C     0.48125   0.18418   0.37085   0.00000  Uiso   1.00
C92    C     0.53593   0.09322   0.01657   0.00000  Uiso   1.00
C93    C     0.52404   0.14278   0.08141   0.00000  Uiso   1.00
C94    C     0.47282   0.23706   0.43394   0.00000  Uiso   1.00
C95    C     0.60060   0.09991   0.08234   0.00000  Uiso   1.00
C96    C     0.54074   0.00266   0.16240   0.00000  Uiso   1.00
C97    C     0.58644   0.05922   0.46636   0.00000  Uiso   1.00
C98    C     0.49872   0.22954   0.10709   0.00000  Uiso   1.00
C99    C     0.46411   0.06450   0.38900   0.00000  Uiso   1.00
C100   C     0.49446   0.22732   0.49932   0.00000  Uiso   1.00
C101   C     0.35950   0.24217   0.21560   0.00000  Uiso   1.00
C102   C     0.49366   0.18389   0.48799   0.00000  Uiso   1.00
C103   C     0.48377   0.16724   0.44722   0.00000  Uiso   1.00
C104   C     0.50570   0.15730   0.01440   0.00000  Uiso   1.00
C105   C     0.51541   0.11708   0.49554   0.00000  Uiso   1.00
C106   C     0.50156   0.09991   0.45783   0.00000  Uiso   1.00
C107   C     0.48211   0.12363   0.43549   0.00000  Uiso   1.00
H108   H     0.59919   0.12580   0.10896   0.00000  Uiso   1.00
H109   H     0.58549   0.07778   0.43885   0.00000  Uiso   1.00
H110   H     0.59442   0.02791   0.45127   0.00000  Uiso   1.00
H111   H     0.61251   0.07383   0.48209   0.00000  Uiso   1.00
H112   H     0.53440   0.23414   0.09428   0.00000  Uiso   1.00
H113   H     0.48916   0.22533   0.14340   0.00000  Uiso   1.00
H114   H     0.48691   0.25886   0.10339   0.00000  Uiso   1.00
H115   H     0.46676   0.25862   0.41294   0.00000  Uiso   1.00
H116   H     0.50708   0.24262   0.02624   0.00000  Uiso   1.00
H117   H     0.48224   0.28610   0.48361   0.00000  Uiso   1.00
H118   H     0.44720   0.05541   0.36221   0.00000  Uiso   1.00
H119   H     0.62040   0.11134   0.04987   0.00000  Uiso   1.00
H120   H     0.44906   0.04309   0.41590   0.00000  Uiso   1.00
H121   H     0.49861   0.06101   0.37410   0.00000  Uiso   1.00
H122   H     0.37021   0.24878   0.24700   0.00000  Uiso   1.00
H123   H     0.66202   0.25478   0.21965   0.00000  Uiso   1.00
H124   H     0.38413   0.25899   0.18925   0.00000  Uiso   1.00
H125   H     0.61733   0.07597   0.09093   0.00000  Uiso   1.00
H126   H     0.65208   0.13970   0.28958   0.00000  Uiso   1.00
H127   H     0.51055   0.01473   0.16232   0.00000  Uiso   1.00
H128   H     0.53966   0.30259   0.14980   0.00000  Uiso   1.00
H129   H     0.56754   0.02031   0.13883   0.00000  Uiso   1.00
H130   H     0.45819   0.33078   0.28820   0.00000  Uiso   1.00
H131   H     0.50435   0.06737   0.44751   0.00000  Uiso   1.00
O132   O     0.50000   0.16667   0.25000   0.00000  Uiso   1.00
O133   O     0.48784   0.12637   0.15459   0.00000  Uiso   1.00
O134   O     0.46274   0.20391   0.34968   0.00000  Uiso   1.00
O135   O     0.54157   0.17759   0.14606   0.00000  Uiso   1.00
O136   O     0.50785   0.15880   0.34968   0.00000  Uiso   1.00
O137   O     0.55893   0.08151   0.08031   0.00000  Uiso   1.00
O138   O     0.54875   0.00875   0.20505   0.00000  Uiso   1.00
O139   O     0.54645   0.05417   0.49826   0.00000  Uiso   1.00
O140   O     0.47793   0.19610   0.08427   0.00000  Uiso   1.00
O141   O     0.45864   0.10626   0.40468   0.00000  Uiso   1.00
O142   O     0.35610   0.19915   0.20210   0.00000  Uiso   1.00
O143   O     0.51264   0.08019   0.28214   0.00000  Uiso   1.00
O144   O     0.47965   0.26085   0.27014   0.00000  Uiso   1.00
O145   O     0.40745   0.13291   0.23413   0.00000  Uiso   1.00
O146   O     0.60026   0.19272   0.21361   0.00000  Uiso   1.00
O147   O     0.40405   0.18878   0.28213   0.00000  Uiso   1.00
O148   O     0.58824   0.15226   0.27014   0.00000  Uiso   1.00
O149   O     0.47093   0.06944   0.23413   0.00000  Uiso   1.00
O150   O     0.53678   0.25620   0.21361   0.00000  Uiso   1.00
Zn151  Zn    0.52672   0.13994   0.28734   0.00000  Uiso   1.00
Zn152  Zn    0.46713   0.12458   0.21876   0.00000  Uiso   1.00
Zn153  Zn    0.54389   0.19775   0.20657   0.00000  Uiso   1.00
Zn154  Zn    0.46226   0.20439   0.28734   0.00000  Uiso   1.00
C155   C     0.71938   0.15953   0.26014   0.00000  Uiso   1.00
C156   C     0.83933   0.16852   0.05960   0.00000  Uiso   1.00
C157   C     0.87519   0.10707   0.05880   0.00000  Uiso   1.00
C158   C     0.94752   0.17413   0.24000   0.00000  Uiso   1.00
C159   C     0.80982   0.19511   0.41883   0.00000  Uiso   1.00
C160   C     0.99371   0.17783   0.23605   0.00000  Uiso   1.00
C161   C     0.67418   0.15753   0.26351   0.00000  Uiso   1.00
C162   C     0.84712   0.32263   0.23533   0.00000  Uiso   1.00
C163   C     0.81857   0.01170   0.26337   0.00000  Uiso   1.00
C164   C     0.82243   0.05596   0.26045   0.00000  Uiso   1.00
C165   C     0.84321   0.27793   0.23985   0.00000  Uiso   1.00
C166   C     0.81529   0.25301   0.47386   0.00000  Uiso   1.00
C167   C     0.85134   0.14884   0.12944   0.00000  Uiso   1.00
C168   C     0.81458   0.18418   0.37085   0.00000  Uiso   1.00
C169   C     0.86926   0.09322   0.01657   0.00000  Uiso   1.00
C170   C     0.85737   0.14278   0.08141   0.00000  Uiso   1.00
C171   C     0.80615   0.23706   0.43394   0.00000  Uiso   1.00
C172   C     0.93394   0.09991   0.08234   0.00000  Uiso   1.00
C173   C     0.87407   0.00266   0.16240   0.00000  Uiso   1.00
C174   C     0.91978   0.05922   0.46636   0.00000  Uiso   1.00
C175   C     0.83205   0.22954   0.10709   0.00000  Uiso   1.00
C176   C     0.79745   0.06450   0.38900   0.00000  Uiso   1.00
C177   C     0.82779   0.22732   0.49932   0.00000  Uiso   1.00
C178   C     0.69283   0.24217   0.21560   0.00000  Uiso   1.00
C179   C     0.82700   0.18389   0.48799   0.00000  Uiso   1.00
C180   C     0.81710   0.16724   0.44722   0.00000  Uiso   1.00
C181   C     0.83903   0.15730   0.01440   0.00000  Uiso   1.00
C182   C     0.84875   0.11708   0.49554   0.00000  Uiso   1.00
C183   C     0.83489   0.09991   0.45783   0.00000  Uiso   1.00
C184   C     0.81544   0.12363   0.43549   0.00000  Uiso   1.00
H185   H     0.93252   0.12580   0.10896   0.00000  Uiso   1.00
H186   H     0.91882   0.07778   0.43885   0.00000  Uiso   1.00
H187   H     0.92775   0.02791   0.45127   0.00000  Uiso   1.00
H188   H     0.94584   0.07383   0.48209   0.00000  Uiso   1.00
H189   H     0.86774   0.23414   0.09428   0.00000  Uiso   1.00
H190   H     0.82249   0.22533   0.14340   0.00000  Uiso   1.00
H191   H     0.82024   0.25886   0.10339   0.00000  Uiso   1.00
H192   H     0.80009   0.25862   0.41294   0.00000  Uiso   1.00
H193   H     0.84041   0.24262   0.02624   0.00000  Uiso   1.00
H194   H     0.81557   0.28610   0.48361   0.00000  Uiso   1.00
H195   H     0.78054   0.05541   0.36221   0.00000  Uiso   1.00
H196   H     0.95373   0.11134   0.04987   0.00000  Uiso   1.00
H197   H     0.78239   0.04309   0.41590   0.00000  Uiso   1.00
H198   H     0.83194   0.06101   0.37410   0.00000  Uiso   1.00
H199   H     0.70355   0.24878   0.24700   0.00000  Uiso   1.00
H200   H     0.99536   0.25478   0.21965   0.00000  Uiso   1.00
H201   H     0.71747   0.25899   0.18925   0.00000  Uiso   1.00
H202   H     0.95066   0.07597   0.09093   0.00000  Uiso   1.00
H203   H     0.98542   0.13970   0.28958   0.00000  Uiso   1.00
H204   H     0.84389   0.01473   0.16232   0.00000  Uiso   1.00
H205   H     0.87300   0.30259   0.14980   0.00000  Uiso   1.00
H206   H     0.90087   0.02031   0.13883   0.00000  Uiso   1.00
H207   H     0.79152   0.33078   0.28820   0.00000  Uiso   1.00
H208   H     0.83768   0.06737   0.44751   0.00000  Uiso   1.00
O209   O     0.83333   0.16667   0.25000   0.00000  Uiso   1.00
O210   O     0.82118   0.12637   0.15459   0.00000  Uiso   1.00
O211   O     0.79607   0.20391   0.34968   0.00000  Uiso   1.00
O212   O     0.87491   0.17759   0.14606   0.00000  Uiso   1.00
O213   O     0.84118   0.15880   0.34968   0.00000  Uiso   1.00
O214   O     0.89226   0.08151   0.08031   0.00000  Uiso   1.00
O215   O     0.88208   0.00875   0.20505   0.00000  Uiso   1.00
O216   O     0.87978   0.05417   0.49826   0.00000  Uiso   1.00
O217   O     0.81126   0.19610   0.08427   0.00000  Uiso   1.00
O218   O     0.79197   0.10626   0.40468   0.00000  Uiso   1.00
O219   O     0.68943   0.19915   0.20210   0.00000  Uiso   1.00
O220   O     0.84597   0.08019   0.28214   0.00000  Uiso   1.00
O221   O     0.81298   0.26085   0.27014   0.00000  Uiso   1.00
O222   O     0.74078   0.13291   0.23413   0.00000  Uiso   1.00
O223   O     0.93360   0.19272   0.21361   0.00000  Uiso   1.00
O224   O     0.73738   0.18878   0.28213   0.00000  Uiso   1.00
O225   O     0.92158   0.15226   0.27014   0.00000  Uiso   1.00
O226   O     0.80426   0.06944   0.23413   0.00000  Uiso   1.00
O227   O     0.87012   0.25620   0.21361   0.00000  Uiso   1.00
Zn228  Zn    0.86005   0.13994   0.28734   0.00000  Uiso   1.00
Zn229  Zn    0.80046   0.12458   0.21876   0.00000  Uiso   1.00
Zn230  Zn    0.87723   0.19775   0.20657   0.00000  Uiso   1.00
Zn231  Zn    0.79560   0.20439   0.28734   0.00000  Uiso   1.00
C232   C     0.05272   0.49287   0.26014   0.00000  Uiso   1.00
C233   C     0.17267   0.50185   0.05960   0.00000  Uiso   1.00
C234   C     0.20853   0.44040   0.05880   0.00000  Uiso   1.00
C235   C     0.28086   0.50746   0.24000   0.00000  Uiso   1.00
C236   C     0.14315   0.52844   0.41883   0.00000  Uiso   1.00
C237   C     0.32704   0.51116   0.23605   0.00000  Uiso   1.00
C238   C     0.00752   0.49086   0.26351   0.00000  Uiso   1.00
C239   C     0.18045   0.65596   0.23533   0.00000  Uiso   1.00
C240   C     0.15191   0.34503   0.26337   0.00000  Uiso   1.00
C241   C     0.15576   0.38929   0.26045   0.00000  Uiso   1.00
C242   C     0.17655   0.61126   0.23985   0.00000  Uiso   1.00
C243   C     0.14862   0.58635   0.47386   0.00000  Uiso   1.00
C244   C     0.18467   0.48218   0.12944   0.00000  Uiso   1.00
C245   C     0.14791   0.51751   0.37085   0.00000  Uiso   1.00
C246   C     0.20260   0.42656   0.01657   0.00000  Uiso   1.00
C247   C     0.19070   0.47611   0.08141   0.00000  Uiso   1.00
C248   C     0.13948   0.57040   0.43394   0.00000  Uiso   1.00
C249   C     0.26727   0.43325   0.08234   0.00000  Uiso   1.00
C250   C     0.20740   0.33600   0.16240   0.00000  Uiso   1.00
C251   C     0.25311   0.39255   0.46636   0.00000  Uiso   1.00
C252   C     0.16538   0.56287   0.10709   0.00000  Uiso   1.00
C253   C     0.13078   0.39783   0.38900   0.00000  Uiso   1.00
C254   C     0.16113   0.56066   0.49932   0.00000  Uiso   1.00
C255   C     0.02616   0.57551   0.21560   0.00000  Uiso   1.00
C256   C     0.16033   0.51722   0.48799   0.00000  Uiso   1.00
C257   C     0.15043   0.50057   0.44722   0.00000  Uiso   1.00
C258   C     0.17236   0.49064   0.01440   0.00000  Uiso   1.00
C259   C     0.18208   0.45041   0.49554   0.00000  Uiso   1.00
C260   C     0.16823   0.43324   0.45783   0.00000  Uiso   1.00
C261   C     0.14878   0.45696   0.43549   0.00000  Uiso   1.00
H262   H     0.26585   0.45913   0.10896   0.00000  Uiso   1.00
H263   H     0.25215   0.41111   0.43885   0.00000  Uiso   1.00
H264   H     0.26109   0.36125   0.45127   0.00000  Uiso   1.00
H265   H     0.27918   0.40716   0.48209   0.00000  Uiso   1.00
H266   H     0.20107   0.56747   0.09428   0.00000  Uiso   1.00
H267   H     0.15583   0.55867   0.14340   0.00000  Uiso   1.00
H268   H     0.15357   0.59220   0.10339   0.00000  Uiso   1.00
H269   H     0.13342   0.59195   0.41294   0.00000  Uiso   1.00
H270   H     0.17374   0.57595   0.02624   0.00000  Uiso   1.00
H271   H     0.14890   0.61944   0.48361   0.00000  Uiso   1.00
H272   H     0.11387   0.38875   0.36221   0.00000  Uiso   1.00
H273   H     0.28707   0.44467   0.04987   0.00000  Uiso   1.00
H274   H     0.11573   0.37642   0.41590   0.00000  Uiso   1.00
H275   H     0.16528   0.39434   0.37410   0.00000  Uiso   1.00
H276   H     0.03688   0.58211   0.24700   0.00000  Uiso   1.00
H277   H     0.32869   0.58811   0.21965   0.00000  Uiso   1.00
H278   H     0.05080   0.59232   0.18925   0.00000  Uiso   1.00
H279   H     0.28399   0.40930   0.09093   0.00000  Uiso   1.00
H280   H     0.31875   0.47303   0.28958   0.00000  Uiso   1.00
H281   H     0.17722   0.34806   0.16232   0.00000  Uiso   1.00
H282   H     0.20633   0.63592   0.14980   0.00000  Uiso   1.00
H283   H     0.23420   0.35364   0.13883   0.00000  Uiso   1.00
H284   H     0.12485   0.66412   0.28820   0.00000  Uiso   1.00
H285   H     0.17102   0.40070   0.44751   0.00000  Uiso   1.00
O286   O     0.16667   0.50000   0.25000   0.00000  Uiso   1.00
O287   O     0.15451   0.45970   0.15459   0.00000  Uiso   1.00
O288   O     0.12940   0.53724   0.34968   0.00000  Uiso   1.00
O289   O     0.20824   0.51092   0.14606   0.00000  Uiso   1.00
O290   O     0.17451   0.49213   0.34968   0.00000  Uiso   1.00
O291   O     0.22559   0.41484   0.08031   0.00000  Uiso   1.00
O292   O     0.21541   0.34208   0.20505   0.00000  Uiso   1.00
O293   O     0.21312   0.38751   0.49826   0.00000  Uiso   1.00
O294   O     0.14459   0.52943   0.08427   0.00000  Uiso   1.00
O295   O     0.12531   0.43959   0.40468   0.00000  Uiso   1.00
O296   O     0.02276   0.53248   0.20210   0.00000  Uiso   1.00
O297   O     0.17930   0.41352   0.28214   0.00000  Uiso   1.00
O298   O     0.14632   0.59418   0.27014   0.00000  Uiso   1.00
O299   O     0.07412   0.46625   0.23413   0.00000  Uiso   1.00
O300   O     0.26693   0.52605   0.21361   0.00000  Uiso   1.00
O301   O     0.07071   0.52211   0.28213   0.00000  Uiso   1.00
O302   O     0.25491   0.48559   0.27014   0.00000  Uiso   1.00
O303   O     0.13760   0.40277   0.23413   0.00000  Uiso   1.00
O304   O     0.20345   0.58953   0.21361   0.00000  Uiso   1.00
Zn305  Zn    0.19338   0.47327   0.28734   0.00000  Uiso   1.00
Zn306  Zn    0.13379   0.45791   0.21876   0.00000  Uiso   1.00
Zn307  Zn    0.21056   0.53109   0.20657   0.00000  Uiso   1.00
Zn308  Zn    0.12893   0.53773   0.28734   0.00000  Uiso   1.00
C309   C     0.38605   0.49287   0.26014   0.00000  Uiso   1.00
C310   C     0.50600   0.50185   0.05960   0.00000  Uiso   1.00
C311   C     0.54186   0.44040   0.05880   0.00000  Uiso   1.00
C312   C     0.61419   0.50746   0.24000   0.00000  Uiso   1.00
C313   C     0.47648   0.52844   0.41883   0.00000  Uiso   1.00
C314   C     0.66038   0.51116   0.23605   0.00000  Uiso   1.00
C315   C     0.34085   0.49086   0.26351   0.00000  Uiso   1.00
C316   C     0.51378   0.65596   0.23533   0.00000  Uiso   1.00
C317   C     0.48524   0.34503   0.26337   0.00000  Uiso   1.00
C318   C     0.48910   0.38929   0.26045   0.00000  Uiso   1.00
C319   C     0.50988   0.61126   0.23985   0.00000  Uiso   1.00
C320   C     0.48196   0.58635   0.47386   0.00000  Uiso   1.00
C321   C     0.51801   0.48218   0.12944   0.00000  Uiso   1.00
C322   C     0.48125   0.51751   0.37085   0.00000  Uiso   1.00
C323   C     0.53593   0.42656   0.01657   0.00000  Uiso   1.00
C324   C     0.52404   0.47611   0.08141   0.00000  Uiso   1.00
C325   C     0.47282   0.57040   0.43394   0.00000  Uiso   1.00
C326   C     0.60060   0.43325   0.08234   0.00000  Uiso   1.00
C327   C     0.54074   0.33600   0.16240   0.00000  Uiso   1.00
C328   C     0.58644   0.39255   0.46636   0.00000  Uiso   1.00
C329   C     0.49872   0.56287   0.10709   0.00000  Uiso   1.00
C330   C     0.46411   0.39783   0.38900   0.00000  Uiso   1.00
C331   C     0.49446   0.56066   0.49932   0.00000  Uiso   1.00
C332   C     0.35950   0.57551   0.21560   0.00000  Uiso   1.00
C333   C     0.49366   0.51722   0.48799   0.00000  Uiso   1.00
C334   C     0.48377   0.50057   0.44722   0.00000  Uiso   1.00
C335   C     0.50570   0.49064   0.01440   0.00000  Uiso   1.00
C336   C     0.51541   0.45041   0.49554   0.00000  Uiso   1.00
C337   C     0.50156   0.43324   0.45783   0.00000  Uiso   1.00
C338   C     0.48211   0.45696   0.43549   0.00000  Uiso   1.00
H339   H     0.59919   0.45913   0.10896   0.00000  Uiso   1.00
H340   H     0.58549   0.41111   0.43885   0.00000  Uiso   1.00
H341   H     0.59442   0.36125   0.45127   0.00000  Uiso   1.00
H342   H     0.61251   0.40716   0.48209   0.00000  Uiso   1.00
H343   H     0.53440   0.56747   0.09428   0.00000  Uiso   1.00
H344   H     0.48916   0.55867   0.14340   0.00000  Uiso   1.00
H345   H     0.48691   0.59220   0.10339   0.00000  Uiso   1.00
H346   H     0.46676   0.59195   0.41294   0.00000  Uiso   1.00
H347   H     0.50708   0.57595   0.02624   0.00000  Uiso   1.00
H348   H     0.48224   0.61944   0.48361   0.00000  Uiso   1.00
H349   H     0.44720   0.38875   0.36221   0.00000  Uiso   1.00
H350   H     0.62040   0.44467   0.04987   0.00000  Uiso   1.00
H351   H     0.44906   0.37642   0.41590   0.00000  Uiso   1.00
H352   H     0.49861   0.39434   0.37410   0.00000  Uiso   1.00
H353   H     0.37021   0.58211   0.24700   0.00000  Uiso   1.00
H354   H     0.66202   0.58811   0.21965   0.00000  Uiso   1.00
H355   H     0.38413   0.59232   0.18925   0.00000  Uiso   1.00
H356   H     0.61733   0.40930   0.09093   0.00000  Uiso   1.00
H357   H     0.65208   0.47303   0.28958   0.00000  Uiso   1.00
H358   H     0.51055   0.34806   0.16232   0.00000  Uiso   1.00
H359   H     0.53966   0.63592   0.14980   0.00000  Uiso   1.00
H360   H     0.56754   0.35364   0.13883   0.00000  Uiso   1.00
H361   H     0.45819   0.66412   0.28820   0.00000  Uiso   1.00
H362   H     0.50435   0.40070   0.44751   0.00000  Uiso   1.00
O363   O     0.50000   0.50000   0.25000   0.00000  Uiso   1.00
O364   O     0.48784   0.45970   0.15459   0.00000  Uiso   1.00
O365   O     0.46274   0.53724   0.34968   0.00000  Uiso   1.00
O366   O     0.54157   0.51092   0.14606   0.00000  Uiso   1.00
O367   O     0.50785   0.49213   0.34968   0.00000  Uiso   1.00
O368   O     0.55893   0.41484   0.08031   0.00000  Uiso   1.00
O369   O     0.54875   0.34208   0.20505   0.00000  Uiso   1.00
O370   O     0.54645   0.38751   0.49826   0.00000  Uiso   1.00
O371   O     0.47793   0.52943   0.08427   0.00000  Uiso   1.00
O372   O     0.45864   0.43959   0.40468   0.00000  Uiso   1.00
O373   O     0.35610   0.53248   0.20210   0.00000  Uiso   1.00
O374   O     0.51264   0.41352   0.28214   0.00000  Uiso   1.00
O375   O     0.47965   0.59418   0.27014   0.00000  Uiso   1.00
O376   O     0.40745   0.46625   0.23413   0.00000  Uiso   1.00
O377   O     0.60026   0.52605   0.21361   0.00000  Uiso   1.00
O378   O     0.40405   0.52211   0.28213   0.00000  Uiso   1.00
O379   O     0.58824   0.48559   0.27014   0.00000  Uiso   1.00
O380   O     0.47093   0.40277   0.23413   0.00000  Uiso   1.00
O381   O     0.53678   0.58953   0.21361   0.00000  Uiso   1.00
Zn382  Zn    0.52672   0.47327   0.28734   0.00000  Uiso   1.00
Zn383  Zn    0.46713   0.45791   0.21876   0.00000  Uiso   1.00
Zn384  Zn    0.54389   0.53109   0.20657   0.00000  Uiso   1.00
Zn385  Zn    0.46226   0.53773   0.28734   0.00000  Uiso   1.00
C386   C     0.71938   0.49287   0.26014   0.00000  Uiso   1.00
C387   C     0.83933   0.50185   0.05960   0.00000  Uiso   1.00
C388   C     0.87519   0.44040   0.05880   0.00000  Uiso   1.00
C389   C     0.94752   0.50746   0.24000   0.00000  Uiso   1.00
C390   C     0.80982   0.52844   0.41883   0.00000  Uiso   1.00
C391   C     0.99371   0.51116   0.23605   0.00000  Uiso   1.00
C392   C     0.67418   0.49086   0.26351   0.00000  Uiso   1.00
C393   C     0.84712   0.65596   0.23533   0.00000  Uiso   1.00
C394   C     0.81857   0.34503   0.26337   0.00000  Uiso   1.00
C395   C     0.82243   0.38929   0.26045   0.00000  Uiso   1.00
C396   C     0.84321   0.61126   0.23985   0.00000  Uiso   1.00
C397   C     0.81529   0.58635   0.47386   0.00000  Uiso   1.00
C398   C     0.85134   0.48218   0.12944   0.00000  Uiso   1.00
C399   C     0.81458   0.51751   0.37085   0.00000  Uiso   1.00
C400   C     0.86926   0.42656   0.01657   0.00000  Uiso   1.00
C401   C     0.85737   0.47611   0.08141   0.00000  Uiso   1.00
C402   C     0.80615   0.57040   0.43394   0.00000  Uiso   1.00
C403   C     0.93394   0.43325   0.08234   0.00000  Uiso   1.00
C404   C     0.87407   0.33600   0.16240   0.00000  Uiso   1.00
C405   C     0.91978   0.39255   0.46636   0.00000  Uiso   1.00
C406   C     0.83205   0.56287   0.10709   0.00000  Uiso   1.00
C407   C     0.79745   0.39783   0.38900   0.00000  Uiso   1.00
C408   C     0.82779   0.56066   0.49932   0.00000  Uiso   1.00
C409   C     0.69283   0.57551   0.21560   0.00000  Uiso   1.00
C410   C     0.82700   0.51722   0.48799   0.00000  Uiso   1.00
C411   C     0.81710   0.50057   0.44722   0.00000  Uiso   1.00
C412   C     0.83903   0.49064   0.01440   0.00000  Uiso   1.00
C413   C     0.84875   0.45041   0.49554   0.00000  Uiso   1.00
C414   C     0.83489   0.43324   0.45783   0.00000  Uiso   1.00
C415   C     0.81544   0.45696   0.43549   0.00000  Uiso   1.00
H416   H     0.93252   0.45913   0.10896   0.00000  Uiso   1.00
H417   H     0.91882   0.41111   0.43885   0.00000  Uiso   1.00
H418   H     0.92775   0.36125   0.45127   0.00000  Uiso   1.00
H419   H     0.94584   0.40716   0.48209   0.00000  Uiso   1.00
H420   H     0.86774   0.56747   0.09428   0.00000  Uiso   1.00
H421   H     0.82249   0.55867   0.14340   0.00000  Uiso   1.00
H422   H     0.82024   0.59220   0.10339   0.00000  Uiso   1.00
H423   H     0.80009   0.59195   0.41294   0.00000  Uiso   1.00
H424   H     0.84041   0.57595   0.02624   0.00000  Uiso   1.00
H425   H     0.81557   0.61944   0.48361   0.00000  Uiso   1.00
H426   H     0.78054   0.38875   0.36221   0.00000  Uiso   1.00
H427   H     0.95373   0.44467   0.04987   0.00000  Uiso   1.00
H428   H     0.78239   0.37642   0.41590   0.00000  Uiso   1.00
H429   H     0.83194   0.39434   0.37410   0.00000  Uiso   1.00
H430   H     0.70355   0.58211   0.24700   0.00000  Uiso   1.00
H431   H     0.99536   0.58811   0.21965   0.00000  Uiso   1.00
H432   H     0.71747   0.59232   0.18925   0.00000  Uiso   1.00
H433   H     0.95066   0.40930   0.09093   0.00000  Uiso   1.00
H434   H     0.98542   0.47303   0.28958   0.00000  Uiso   1.00
H435   H     0.84389   0.34806   0.16232   0.00000  Uiso   1.00
H436   H     0.87300   0.63592   0.14980   0.00000  Uiso   1.00
H437   H     0.90087   0.35364   0.13883   0.00000  Uiso   1.00
H438   H     0.79152   0.66412   0.28820   0.00000  Uiso   1.00
H439   H     0.83768   0.40070   0.44751   0.00000  Uiso   1.00
O440   O     0.83333   0.50000   0.25000   0.00000  Uiso   1.00
O441   O     0.82118   0.45970   0.15459   0.00000  Uiso   1.00
O442   O     0.79607   0.53724   0.34968   0.00000  Uiso   1.00
O443   O     0.87491   0.51092   0.14606   0.00000  Uiso   1.00
O444   O     0.84118   0.49213   0.34968   0.00000  Uiso   1.00
O445   O     0.89226   0.41484   0.08031   0.00000  Uiso   1.00
O446   O     0.88208   0.34208   0.20505   0.00000  Uiso   1.00
O447   O     0.87978   0.38751   0.49826   0.00000  Uiso   1.00
O448   O     0.81126   0.52943   0.08427   0.00000  Uiso   1.00
O449   O     0.79197   0.43959   0.40468   0.00000  Uiso   1.00
O450   O     0.68943   0.53248   0.20210   0.00000  Uiso   1.00
O451   O     0.84597   0.41352   0.28214   0.00000  Uiso   1.00
O452   O     0.81298   0.59418   0.27014   0.00000  Uiso   1.00
O453   O     0.74078   0.46625   0.23413   0.00000  Uiso   1.00
O454   O     0.93360   0.52605   0.21361   0.00000  Uiso   1.00
O455   O     0.73738   0.52211   0.28213   0.00000  Uiso   1.00
O456   O     0.92158   0.48559   0.27014   0.00000  Uiso   1.00
O457   O     0.80426   0.40277   0.23413   0.00000  Uiso   1.00
O458   O     0.87012   0.58953   0.21361   0.00000  Uiso   1.00
Zn459  Zn    0.86005   0.47327   0.28734   0.00000  Uiso   1.00
Zn460  Zn    0.80046   0.45791   0.21876   0.00000  Uiso   1.00
Zn461  Zn    0.87723   0.53109   0.20657   0.00000  Uiso   1.00
Zn462  Zn    0.79560   0.53773   0.28734   0.00000  Uiso   1.00
C463   C     0.05272   0.82620   0.26014   0.00000  Uiso   1.00
C464   C     0.17267   0.83519   0.05960   0.00000  Uiso   1.00
C465   C     0.20853   0.77373   0.05880   0.00000  Uiso   1.00
C466   C     0.28086   0.84079   0.24000   0.00000  Uiso   1.00
C467   C     0.14315   0.86178   0.41883   0.00000  Uiso   1.00
C468   C     0.32704   0.84450   0.23605   0.00000  Uiso   1.00
C469   C     0.00752   0.82420   0.26351   0.00000  Uiso   1.00
C470   C     0.18045   0.98930   0.23533   0.00000  Uiso   1.00
C471   C     0.15191   0.67836   0.26337   0.00000  Uiso   1.00
C472   C     0.15576   0.72262   0.26045   0.00000  Uiso   1.00
C473   C     0.17655   0.94460   0.23985   0.00000  Uiso   1.00
C474   C     0.14862   0.91968   0.47386   0.00000  Uiso   1.00
C475   C     0.18467   0.81551   0.12944   0.00000  Uiso   1.00
C476   C     0.14791   0.85085   0.37085   0.00000  Uiso   1.00
C477   C     0.20260   0.75989   0.01657   0.00000  Uiso   1.00
C478   C     0.19070   0.80944   0.08141   0.00000  Uiso   1.00
C479   C     0.13948   0.90373   0.43394   0.00000  Uiso   1.00
C480   C     0.26727   0.76658   0.08234   0.00000  Uiso   1.00
C481   C     0.20740   0.66933   0.16240   0.00000  Uiso   1.00
C482   C     0.25311   0.72589   0.46636   0.00000  Uiso   1.00
C483   C     0.16538   0.89620   0.10709   0.00000  Uiso   1.00
C484   C     0.13078   0.73117   0.38900   0.00000  Uiso   1.00
C485   C     0.16113   0.89399   0.49932   0.00000  Uiso   1.00
C486   C     0.02616   0.90884   0.21560   0.00000  Uiso   1.00
C487   C     0.16033   0.85056   0.48799   0.00000  Uiso   1.00
C488   C     0.15043   0.83390   0.44722   0.00000  Uiso   1.00
C489   C     0.17236   0.82397   0.01440   0.00000  Uiso   1.00
C490   C     0.18208   0.78375   0.49554   0.00000  Uiso   1.00
C491   C     0.16823   0.76658   0.45783   0.00000  Uiso   1.00
C492   C     0.14878   0.79029   0.43549   0.00000  Uiso   1.00
H493   H     0.26585   0.79246   0.10896   0.00000  Uiso   1.00
H494   H     0.25215   0.74445   0.43885   0.00000  Uiso   1.00
H495   H     0.26109   0.69458   0.45127   0.00000  Uiso   1.00
H496   H     0.27918   0.74049   0.48209   0.00000  Uiso   1.00
H497   H     0.20107   0.90081   0.09428   0.00000  Uiso   1.00
H498   H     0.15583   0.89200   0.14340   0.00000  Uiso   1.00
H499   H     0.15357   0.92553   0.10339   0.00000  Uiso   1.00
H500   H     0.13342   0.92528   0.41294   0.00000  Uiso   1.00
H501   H     0.17374   0.90928   0.02624   0.00000  Uiso   1.00
H502   H     0.14890   0.95277   0.48361   0.00000  Uiso   1.00
H503   H     0.11387   0.72208   0.36221   0.00000  Uiso   1.00
H504   H     0.28707   0.77801   0.04987   0.00000  Uiso   1.00
H505   H     0.11573   0.70975   0.41590   0.00000  Uiso   1.00
H506   H     0.16528   0.72767   0.37410   0.00000  Uiso   1.00
H507   H     0.03688   0.91544   0.24700   0.00000  Uiso   1.00
H508   H     0.32869   0.92144   0.21965   0.00000  Uiso   1.00
H509   H     0.05080   0.92565   0.18925   0.00000  Uiso   1.00
H510   H     0.28399   0.74264   0.09093   0.00000  Uiso   1.00
H511   H     0.31875   0.80637   0.28958   0.00000  Uiso   1.00
H512   H     0.17722   0.68139   0.16232   0.00000  Uiso   1.00
H513   H     0.20633   0.96925   0.14980   0.00000  Uiso   1.00
H514   H     0.23420   0.68697   0.13883   0.00000  Uiso   1.00
H515   H     0.12485   0.99745   0.28820   0.00000  Uiso   1.00
H516   H     0.17102   0.73404   0.44751   0.00000  Uiso   1.00
O517   O     0.16667   0.83333   0.25000   0.00000  Uiso   1.00
O518   O     0.15451   0.79304   0.15459   0.00000  Uiso   1.00
O519   O     0.12940   0.87058   0.34968   0.00000  Uiso   1.00
O520   O     0.20824   0.84425   0.14606   0.00000  Uiso   1.00
O521   O     0.17451   0.82546   0.34968   0.00000  Uiso   1.00
O522   O     0.22559   0.74817   0.08031   0.00000  Uiso   1.00
O523   O     0.21541   0.67542   0.20505   0.00000  Uiso   1.00
O524   O     0.21312   0.72084   0.49826   0.00000  Uiso   1.00
O525   O     0.14459   0.86276   0.08427   0.00000  Uiso   1.00
O526   O     0.12531   0.77292   0.40468   0.00000  Uiso   1.00
O527   O     0.02276   0.86582   0.20210   0.00000  Uiso   1.00
O528   O     0.17930   0.74686   0.28214   0.00000  Uiso   1.00
O529   O     0.14632   0.92751   0.27014   0.00000  Uiso   1.00
O530   O     0.07412   0.79958   0.23413   0.00000  Uiso   1.00
O531   O     0.26693   0.85939   0.21361   0.00000  Uiso   1.00
O532   O     0.07071   0.85544   0.28213   0.00000  Uiso   1.00
O533   O     0.25491   0.81892   0.27014   0.00000  Uiso   1.00
O534   O     0.13760   0.73610   0.23413   0.00000  Uiso   1.00
O535   O     0.20345   0.92286   0.21361   0.00000  Uiso   1.00
Zn536  Zn    0.19338   0.80661   0.28734   0.00000  Uiso   1.00
Zn537  Zn    0.13379   0.79124   0.21876   0.00000  Uiso   1.00
Zn538  Zn    0.21056   0.86442   0.20657   0.00000  Uiso   1.00
Zn539  Zn    0.12893   0.87106   0.28734   0.00000  Uiso   1.00
C540   C     0.38605   0.82620   0.26014   0.00000  Uiso   1.00
C541   C     0.50600   0.83519   0.05960   0.00000  Uiso   1.00
C542   C     0.54186   0.77373   0.05880   0.00000  Uiso   1.00
C543   C     0.61419   0.84079   0.24000   0.00000  Uiso   1.00
C544   C     0.47648   0.86178   0.41883   0.00000  Uiso   1.00
C545   C     0.66038   0.84450   0.23605   0.00000  Uiso   1.00
C546   C     0.34085   0.82420   0.26351   0.00000  Uiso   1.00
C547   C     0.51378   0.98930   0.23533   0.00000  Uiso   1.00
C548   C     0.48524   0.67836   0.26337   0.00000  Uiso   1.00
C549   C     0.48910   0.72262   0.26045   0.00000  Uiso   1.00
C550   C     0.50988   0.94460   0.23985   0.00000  Uiso   1.00
C551   C     0.48196   0.91968   0.47386   0.00000  Uiso   1.00
C552   C     0.51801   0.81551   0.12944   0.00000  Uiso   1.00
C553   C     0.48125   0.85085   0.37085   0.00000  Uiso   1.00
C554   C     0.53593   0.75989   0.01657   0.00000  Uiso   1.00
C555   C     0.52404   0.80944   0.08141   0.00000  Uiso   1.00
C556   C     0.47282   0.90373   0.43394   0.00000  Uiso   1.00
C557   C     0.60060   0.76658   0.08234   0.00000  Uiso   1.00
C558   C     0.54074   0.66933   0.16240   0.00000  Uiso   1.00
C559   C     0.58644   0.72589   0.46636   0.00000  Uiso   1.00
C560   C     0.49872   0.89620   0.10709   0.00000  Uiso   1.00
C561   C     0.46411   0.73117   0.38900   0.00000  Uiso   1.00
C562   C     0.49446   0.89399   0.49932   0.00000  Uiso   1.00
C563   C     0.35950   0.90884   0.21560   0.00000  Uiso   1.00
C564   C     0.49366   0.85056   0.48799   0.00000  Uiso   1.00
C565   C     0.48377   0.83390   0.44722   0.00000  Uiso   1.00
C566   C     0.50570   0.82397   0.01440   0.00000  Uiso   1.00
C567   C     0.51541   0.78375   0.49554   0.00000  Uiso   1.00
C568   C     0.50156   0.76658   0.45783   0.00000  Uiso   1.00
C569   C     0.48211   0.79029   0.43549   0.00000  Uiso   1.00
H570   H     0.59919   0.79246   0.10896   0.00000  Uiso   1.00
H571   H     0.58549   0.74445   0.43885   0.00000  Uiso   1.00
H572   H     0.59442   0.69458   0.45127   0.00000  Uiso   1.00
H573   H     0.61251   0.74049   0.48209   0.00000  Uiso   1.00
H574   H     0.53440   0.90081   0.09428   0.00000  Uiso   1.00
H575   H     0.48916   0.89200   0.14340   0.00000  Uiso   1.00
H576   H     0.48691   0.92553   0.10339   0.00000  Uiso   1.00
H577   H     0.46676   0.92528   0.41294   0.00000  Uiso   1.00
H578   H     0.50708   0.90928   0.02624   0.00000  Uiso   1.00
H579   H     0.48224   0.95277   0.48361   0.00000  Uiso   1.00
H580   H     0.44720   0.72208   0.36221   0.00000  Uiso   1.00
H581   H     0.62040   0.77801   0.04987   0.00000  Uiso   1.00
H582   H     0.44906   0.70975   0.41590   0.00000  Uiso   1.00
H583   H     0.49861   0.72767   0.37410   0.00000  Uiso   1.00
H584   H     0.37021   0.91544   0.24700   0.00000  Uiso   1.00
H585   H     0.66202   0.92144   0.21965   0.00000  Uiso   1.00
H586   H     0.38413   0.92565   0.18925   0.00000  Uiso   1.00
H587   H     0.61733   0.74264   0.09093   0.00000  Uiso   1.00
H588   H     0.65208   0.80637   0.28958   0.00000  Uiso   1.00
H589   H     0.51055   0.68139   0.16232   0.00000  Uiso   1.00
H590   H     0.53966   0.96925   0.14980   0.00000  Uiso   1.00
H591   H     0.56754   0.68697   0.13883   0.00000  Uiso   1.00
H592   H     0.45819   0.99745   0.28820   0.00000  Uiso   1.00
H593   H     0.50435   0.73404   0.44751   0.00000  Uiso   1.00
O594   O     0.50000   0.83333   0.25000   0.00000  Uiso   1.00
O595   O     0.48784   0.79304   0.15459   0.00000  Uiso   1.00
O596   O     0.46274   0.87058   0.34968   0.00000  Uiso   1.00
O597   O     0.54157   0.84425   0.14606   0.00000  Uiso   1.00
O598   O     0.50785   0.82546   0.34968   0.00000  Uiso   1.00
O599   O     0.55893   0.74817   0.08031   0.00000  Uiso   1.00
O600   O     0.54875   0.67542   0.20505   0.00000  Uiso   1.00
O601   O     0.54645   0.72084   0.49826   0.00000  Uiso   1.00
O602   O     0.47793   0.86276   0.08427   0.00000  Uiso   1.00
O603   O     0.45864   0.77292   0.40468   0.00000  Uiso   1.00
O604   O     0.35610   0.86582   0.20210   0.00000  Uiso   1.00
O605   O     0.51264   0.74686   0.28214   0.00000  Uiso   1.00
O606   O     0.47965   0.92751   0.27014   0.00000  Uiso   1.00
O607   O     0.40745   0.79958   0.23413   0.00000  Uiso   1.00
O608   O     0.60026   0.85939   0.21361   0.00000  Uiso   1.00
O609   O     0.40405   0.85544   0.28213   0.00000  Uiso   1.00
O610   O     0.58824   0.81892   0.27014   0.00000  Uiso   1.00
O611   O     0.47093   0.73610   0.23413   0.00000  Uiso   1.00
O612   O     0.53678   0.92286   0.21361   0.00000  Uiso   1.00
Zn613  Zn    0.52672   0.80661   0.28734   0.00000  Uiso   1.00
Zn614  Zn    0.46713   0.79124   0.21876   0.00000  Uiso   1.00
Zn615  Zn    0.54389   0.86442   0.20657   0.00000  Uiso   1.00
Zn616  Zn    0.46226   0.87106   0.28734   0.00000  Uiso   1.00
C617   C     0.71938   0.82620   0.26014   0.00000  Uiso   1.00
C618   C     0.83933   0.83519   0.05960   0.00000  Uiso   1.00
C619   C     0.87519   0.77373   0.05880   0.00000  Uiso   1.00
C620   C     0.94752   0.84079   0.24000   0.00000  Uiso   1.00
C621   C     0.80982   0.86178   0.41883   0.00000  Uiso   1.00
C622   C     0.99371   0.84450   0.23605   0.00000  Uiso   1.00
C623   C     0.67418   0.82420   0.26351   0.00000  Uiso   1.00
C624   C     0.84712   0.98930   0.23533   0.00000  Uiso   1.00
C625   C     0.81857   0.67836   0.26337   0.00000  Uiso   1.00
C626   C     0.82243   0.72262   0.26045   0.00000  Uiso   1.00
C627   C     0.84321   0.94460   0.23985   0.00000  Uiso   1.00
C628   C     0.81529   0.91968   0.47386   0.00000  Uiso   1.00
C629   C     0.85134   0.81551   0.12944   0.00000  Uiso   1.00
C630   C     0.81458   0.85085   0.37085   0.00000  Uiso   1.00
C631   C     0.86926   0.75989   0.01657   0.00000  Uiso   1.00
C632   C     0.85737   0.80944   0.08141   0.00000  Uiso   1.00
C633   C     0.80615   0.90373   0.43394   0.00000  Uiso   1.00
C634   C     0.93394   0.76658   0.08234   0.00000  Uiso   1.00
C635   C     0.87407   0.66933   0.16240   0.00000  Uiso   1.00
C636   C     0.91978   0.72589   0.46636   0.00000  Uiso   1.00
C637   C     0.83205   0.89620   0.10709   0.00000  Uiso   1.00
C638   C     0.79745   0.73117   0.38900   0.00000  Uiso   1.00
C639   C     0.82779   0.89399   0.49932   0.00000  Uiso   1.00
C640   C     0.69283   0.90884   0.21560   0.00000  Uiso   1.00
C641   C     0.82700   0.85056   0.48799   0.00000  Uiso   1.00
C642   C     0.81710   0.83390   0.44722   0.00000  Uiso   1.00
C643   C     0.83903   0.82397   0.01440   0.00000  Uiso   1.00
C644   C     0.84875   0.78375   0.49554   0.00000  Uiso   1.00
C645   C     0.83489   0.76658   0.45783   0.00000  Uiso   1.00
C646   C     0.81544   0.79029   0.43549   0.00000  Uiso   1.00
H647   H     0.93252   0.79246   0.10896   0.00000  Uiso   1.00
H648   H     0.91882   0.74445   0.43885   0.00000  Uiso   1.00
H649   H     0.92775   0.69458   0.45127   0.00000  Uiso   1.00
H650   H     0.94584   0.74049   0.48209   0.00000  Uiso   1.00
H651   H     0.86774   0.90081   0.09428   0.00000  Uiso   1.00
H652   H     0.82249   0.89200   0.14340   0.00000  Uiso   1.00
H653   H     0.82024   0.92553   0.10339   0.00000  Uiso   1.00
H654   H     0.80009   0.92528   0.41294   0.00000  Uiso   1.00
H655   H     0.84041   0.90928   0.02624   0.00000  Uiso   1.00
H656   H     0.81557   0.95277   0.48361   0.00000  Uiso   1.00
H657   H     0.78054   0.72208   0.36221   0.00000  Uiso   1.00
H658   H     0.95373   0.77801   0.04987   0.00000  Uiso   1.00
H659   H     0.78239   0.70975   0.41590   0.00000  Uiso   1.00
H660   H     0.83194   0.72767   0.37410   0.00000  Uiso   1.00
H661   H     0.70355   0.91544   0.24700   0.00000  Uiso   1.00
H662   H     0.99536   0.92144   0.21965   0.00000  Uiso   1.00
H663   H     0.71747   0.92565   0.18925   0.00000  Uiso   1.00
H664   H     0.95066   0.74264   0.09093   0.00000  Uiso   1.00
H665   H     0.98542   0.80637   0.28958   0.00000  Uiso   1.00
H666   H     0.84389   0.68139   0.16232   0.00000  Uiso   1.00
H667   H     0.87300   0.96925   0.14980   0.00000  Uiso   1.00
H668   H     0.90087   0.68697   0.13883   0.00000  Uiso   1.00
H669   H     0.79152   0.99745   0.28820   0.00000  Uiso   1.00
H670   H     0.83768   0.73404   0.44751   0.00000  Uiso   1.00
O671   O     0.83333   0.83333   0.25000   0.00000  Uiso   1.00
O672   O     0.82118   0.79304   0.15459   0.00000  Uiso   1.00
O673   O     0.79607   0.87058   0.34968   0.00000  Uiso   1.00
O674   O     0.87491   0.84425   0.14606   0.00000  Uiso   1.00
O675   O     0.84118   0.82546   0.34968   0.00000  Uiso   1.00
O676   O     0.89226   0.74817   0.08031   0.00000  Uiso   1.00
O677   O     0.88208   0.67542   0.20505   0.00000  Uiso   1.00
O678   O     0.87978   0.72084   0.49826   0.00000  Uiso   1.00
O679   O     0.81126   0.86276   0.08427   0.00000  Uiso   1.00
O680   O     0.79197   0.77292   0.40468   0.00000  Uiso   1.00
O681   O     0.68943   0.86582   0.20210   0.00000  Uiso   1.00
O682   O     0.84597   0.74686   0.28214   0.00000  Uiso   1.00
O683   O     0.81298   0.92751   0.27014   0.00000  Uiso   1.00
O684   O     0.74078   0.79958   0.23413   0.00000  Uiso   1.00
O685   O     0.93360   0.85939   0.21361   0.00000  Uiso   1.00
O686   O     0.73738   0.85544   0.28213   0.00000  Uiso   1.00
O687   O     0.92158   0.81892   0.27014   0.00000  Uiso   1.00
O688   O     0.80426   0.73610   0.23413   0.00000  Uiso   1.00
O689   O     0.87012   0.92286   0.21361   0.00000  Uiso   1.00
Zn690  Zn    0.86005   0.80661   0.28734   0.00000  Uiso   1.00
Zn691  Zn    0.80046   0.79124   0.21876   0.00000  Uiso   1.00
Zn692  Zn    0.87723   0.86442   0.20657   0.00000  Uiso   1.00
Zn693  Zn    0.79560   0.87106   0.28734   0.00000  Uiso   1.00
C694   C     0.05272   0.15953   0.76014   0.00000  Uiso   1.00
C695   C     0.17267   0.16852   0.55960   0.00000  Uiso   1.00
C696   C     0.20853   0.10707   0.55880   0.00000  Uiso   1.00
C697   C     0.28086   0.17413   0.74000   0.00000  Uiso   1.00
C698   C     0.14315   0.19511   0.91883   0.00000  Uiso   1.00
C699   C     0.32704   0.17783   0.73605   0.00000  Uiso   1.00
C700   C     0.00752   0.15753   0.76351   0.00000  Uiso   1.00
C701   C     0.18045   0.32263   0.73533   0.00000  Uiso   1.00
C702   C     0.15191   0.01170   0.76337   0.00000  Uiso   1.00
C703   C     0.15576   0.05596   0.76045   0.00000  Uiso   1.00
C704   C     0.17655   0.27793   0.73985   0.00000  Uiso   1.00
C705   C     0.14862   0.25301   0.97386   0.00000  Uiso   1.00
C706   C     0.18467   0.14884   0.62944   0.00000  Uiso   1.00
C707   C     0.14791   0.18418   0.87085   0.00000  Uiso   1.00
C708   C     0.20260   0.09322   0.51657   0.00000  Uiso   1.00
C709   C     0.19070   0.14278   0.58141   0.00000  Uiso   1.00
C710   C     0.13948   0.23706   0.93394   0.00000  Uiso   1.00
C711   C     0.26727   0.09991   0.58234   0.00000  Uiso   1.00
C712   C     0.20740   0.00266   0.66240   0.00000  Uiso   1.00
C713   C     0.25311   0.05922   0.96636   0.00000  Uiso   1.00
C714   C     0.16538   0.22954   0.60709   0.00000  Uiso   1.00
C715   C     0.13078   0.06450   0.88900   0.00000  Uiso   1.00
C716   C     0.16113   0.22732   0.99932   0.00000  Uiso   1.00
C717   C     0.02616   0.24217   0.71560   0.00000  Uiso   1.00
C718   C     0.16033   0.18389   0.98799   0.00000  Uiso   1.00
C719   C     0.15043   0.16724   0.94722   0.00000  Uiso   1.00
C720   C     0.17236   0.15730   0.51440   0.00000  Uiso   1.00
C721   C     0.18208   0.11708   0.99554   0.00000  Uiso   1.00
C722   C     0.16823   0.09991   0.95783   0.00000  Uiso   1.00
C723   C     0.14878   0.12363   0.93549   0.00000  Uiso   1.00
H724   H     0.26585   0.12580   0.60896   0.00000  Uiso   1.00
H725   H     0.25215   0.07778   0.93885   0.00000  Uiso   1.00
H726   H     0.26109   0.02791   0.95127   0.00000  Uiso   1.00
H727   H     0.27918   0.07383   0.98209   0.00000  Uiso   1.00
H728   H     0.20107   0.23414   0.59428   0.00000  Uiso   1.00
H729   H     0.15583   0.22533   0.64340   0.00000  Uiso   1.00
H730   H     0.15357   0.25886   0.60339   0.00000  Uiso   1.00
H731   H     0.13342   0.25862   0.91294   0.00000  Uiso   1.00
H732   H     0.17374   0.24262   0.52624   0.00000  Uiso   1.00
H733   H     0.14890   0.28610   0.98361   0.00000  Uiso   1.00
H734   H     0.11387   0.05541   0.86221   0.00000  Uiso   1.00
H735   H     0.28707   0.11134   0.54987   0.00000  Uiso   1.00
H736   H     0.11573   0.04309   0.91590   0.00000  Uiso   1.00
H737   H     0.16528   0.06101   0.87410   0.00000  Uiso   1.00
H738   H     0.03688   0.24878   0.74700   0.00000  Uiso   1.00
H739   H     0.32869   0.25478   0.71965   0.00000  Uiso   1.00
H740   H     0.05080   0.25899   0.68925   0.00000  Uiso   1.00
H741   H     0.28399   0.07597   0.59093   0.00000  Uiso   1.00
H742   H     0.31875   0.13970   0.78958   0.00000  Uiso   1.00
H743   H     0.17722   0.01473   0.66232   0.00000  Uiso   1.00
H744   H     0.20633   0.30259   0.64980   0.00000  Uiso   1.00
H745   H     0.23420   0.02031   0.63883   0.00000  Uiso   1.00
H746   H     0.12485   0.33078   0.78820   0.00000  Uiso   1.00
H747   H     0.17102   0.06737   0.94751   0.00000  Uiso   1.00
O748   O     0.16667   0.16667   0.75000   0.00000  Uiso   1.00
O749   O     0.15451   0.12637   0.65459   0.00000  Uiso   1.00
O750   O     0.12940   0.20391   0.84968   0.00000  Uiso   1.00
O751   O     0.20824   0.17759   0.64606   0.00000  Uiso   1.00
O752   O     0.17451   0.15880   0.84968   0.00000  Uiso   1.00
O753   O     0.22559   0.08151   0.58031   0.00000  Uiso   1.00
O754   O     0.21541   0.00875   0.70505   0.00000  Uiso   1.00
O755   O     0.21312   0.05417   0.99826   0.00000  Uiso   1.00
O756   O     0.14459   0.19610   0.58427   0.00000  Uiso   1.00
O757   O     0.12531   0.10626   0.90468   0.00000  Uiso   1.00
O758   O     0.02276   0.19915   0.70210   0.00000  Uiso   1.00
O759   O     0.17930   0.08019   0.78214   0.00000  Uiso   1.00
O760   O     0.14632   0.26085   0.77014   0.00000  Uiso   1.00
O761   O     0.07412   0.13291   0.73413   0.00000  Uiso   1.00
O762   O     0.26693   0.19272   0.71361   0.00000  Uiso   1.00
O763   O     0.07071   0.18878   0.78213   0.00000  Uiso   1.00
O764   O     0.25491   0.15226   0.77014   0.00000  Uiso   1.00
O765   O     0.13760   0.06944   0.73413   0.00000  Uiso   1.00
O766   O     0.20345   0.25620   0.71361   0.00000  Uiso   1.00
Zn767  Zn    0.19338   0.13994   0.78734   0.00000  Uiso   1.00
Zn768  Zn    0.13379   0.12458   0.71876   0.00000  Uiso   1.00
Zn769  Zn    0.21056   0.19775   0.70657   0.00000  Uiso   1.00
Zn770  Zn    0.12893   0.20439   0.78734   0.00000  Uiso   1.00
C771   C     0.38605   0.15953   0.76014   0.00000  Uiso   1.00
C772   C     0.50600   0.16852   0.55960   0.00000  Uiso   1.00
C773   C     0.54186   0.10707   0.55880   0.00000  Uiso   1.00
C774   C     0.61419   0.17413   0.74000   0.00000  Uiso   1.00
C775   C     0.47648   0.19511   0.91883   0.00000  Uiso   1.00
C776   C     0.66038   0.17783   0.73605   0.00000  Uiso   1.00
C777   C     0.34085   0.15753   0.76351   0.00000  Uiso   1.00
C778   C     0.51378   0.32263   0.73533   0.00000  Uiso   1.00
C779   C     0.48524   0.01170   0.76337   0.00000  Uiso   1.00
C780   C     0.48910   0.05596   0.76045   0.00000  Uiso   1.00
C781   C     0.50988   0.27793   0.73985   0.00000  Uiso   1.00
C782   C     0.48196   0.25301   0.97386   0.00000  Uiso   1.00
C783   C     0.51801   0.14884   0.62944   0.00000  Uiso   1.00
C784   C     0.48125   0.18418   0.87085   0.00000  Uiso   1.00
C785   C     0.53593   0.09322   0.51657   0.00000  Uiso   1.00
C786   C     0.52404   0.14278   0.58141   0.00000  Uiso   1.00
C787   C     0.47282   0.23706   0.93394   0.00000  Uiso   1.00
C788   C     0.60060   0.09991   0.58234   0.00000  Uiso   1.00
C789   C     0.54074   0.00266   0.66240   0.00000  Uiso   1.00
C790   C     0.58644   0.05922   0.96636   0.00000  Uiso   1.00
C791   C     0.49872   0.22954   0.60709   0.00000  Uiso   1.00
C792   C     0.46411   0.06450   0.88900   0.00000  Uiso   1.00
C793   C     0.49446   0.22732   0.99932   0.00000  Uiso   1.00
C794   C     0.35950   0.24217   0.71560   0.00000  Uiso   1.00
C795   C     0.49366   0.18389   0.98799   0.00000  Uiso   1.00
C796   C     0.48377   0.16724   0.94722   0.00000  Uiso   1.00
C797   C     0.50570   0.15730   0.51440   0.00000  Uiso   1.00
C798   C     0.51541   0.11708   0.99554   0.00000  Uiso   1.00
C799   C     0.50156   0.09991   0.95783   0.00000  Uiso   1.00
C800   C     0.48211   0.12363   0.93549   0.00000  Uiso   1.00
H801   H     0.59919   0.12580   0.60896   0.00000  Uiso   1.00
H802   H     0.58549   0.07778   0.93885   0.00000  Uiso   1.00
H803   H     0.59442   0.02791   0.95127   0.00000  Uiso   1.00
H804   H     0.61251   0.07383   0.98209   0.00000  Uiso   1.00
H805   H     0.53440   0.23414   0.59428   0.00000  Uiso   1.00
H806   H     0.48916   0.22533   0.64340   0.00000  Uiso   1.00
H807   H     0.48691   0.25886   0.60339   0.00000  Uiso   1.00
H808   H     0.46676   0.25862   0.91294   0.00000  Uiso   1.00
H809   H     0.50708   0.24262   0.52624   0.00000  Uiso   1.00
H810   H     0.48224   0.28610   0.98361   0.00000  Uiso   1.00
H811   H     0.44720   0.05541   0.86221   0.00000  Uiso   1.00
H812   H     0.62040   0.11134   0.54987   0.00000  Uiso   1.00
H813   H     0.44906   0.04309   0.91590   0.00000  Uiso   1.00
H814   H     0.49861   0.06101   0.87410   0.00000  Uiso   1.00
H815   H     0.37021   0.24878   0.74700   0.00000  Uiso   1.00
H816   H     0.66202   0.25478   0.71965   0.00000  Uiso   1.00
H817   H     0.38413   0.25899   0.68925   0.00000  Uiso   1.00
H818   H     0.61733   0.07597   0.59093   0.00000  Uiso   1.00
H819   H     0.65208   0.13970   0.78958   0.00000  Uiso   1.00
H820   H     0.51055   0.01473   0.66232   0.00000  Uiso   1.00
H821   H     0.53966   0.30259   0.64980   0.00000  Uiso   1.00
H822   H     0.56754   0.02031   0.63883   0.00000  Uiso   1.00
H823   H     0.45819   0.33078   0.78820   0.00000  Uiso   1.00
H824   H     0.50435   0.06737   0.94751   0.00000  Uiso   1.00
O825   O     0.50000   0.16667   0.75000   0.00000  Uiso   1.00
O826   O     0.48784   0.12637   0.65459   0.00000  Uiso   1.00
O827   O     0.46274   0.20391   0.84968   0.00000  Uiso   1.00
O828   O     0.54157   0.17759   0.64606   0.00000  Uiso   1.00
O829   O     0.50785   0.15880   0.84968   0.00000  Uiso   1.00
O830   O     0.55893   0.08151   0.58031   0.00000  Uiso   1.00
O831   O     0.54875   0.00875   0.70505   0.00000  Uiso   1.00
O832   O     0.54645   0.05417   0.99826   0.00000  Uiso   1.00
O833   O     0.47793   0.19610   0.58427   0.00000  Uiso   1.00
O834   O     0.45864   0.10626   0.90468   0.00000  Uiso   1.00
O835   O     0.35610   0.19915   0.70210   0.00000  Uiso   1.00
O836   O     0.51264   0.08019   0.78214   0.00000  Uiso   1.00
O837   O     0.47965   0.26085   0.77014   0.00000  Uiso   1.00
O838   O     0.40745   0.13291   0.73413   0.00000  Uiso   1.00
O839   O     0.60026   0.19272   0.71361   0.00000  Uiso   1.00
O840   O     0.40405   0.18878   0.78213   0.00000  Uiso   1.00
O841   O     0.58824   0.15226   0.77014   0.00000  Uiso   1.00
O842   O     0.47093   0.06944   0.73413   0.00000  Uiso   1.00
O843   O     0.53678   0.25620   0.71361   0.00000  Uiso   1.00
Zn844  Zn    0.52672   0.13994   0.78734   0.00000  Uiso   1.00
Zn845  Zn    0.46713   0.12458   0.71876   0.00000  Uiso   1.00
Zn846  Zn    0.54389   0.19775   0.70657   0.00000  Uiso   1.00
Zn847  Zn    0.46226   0.20439   0.78734   0.00000  Uiso   1.00
C848   C     0.71938   0.15953   0.76014   0.00000  Uiso   1.00
C849   C     0.83933   0.16852   0.55960   0.00000  Uiso   1.00
C850   C     0.87519   0.10707   0.55880   0.00000  Uiso   1.00
C851   C     0.94752   0.17413   0.74000   0.00000  Uiso   1.00
C852   C     0.80982   0.19511   0.91883   0.00000  Uiso   1.00
C853   C     0.99371   0.17783   0.73605   0.00000  Uiso   1.00
C854   C     0.67418   0.15753   0.76351   0.00000  Uiso   1.00
C855   C     0.84712   0.32263   0.73533   0.00000  Uiso   1.00
C856   C     0.81857   0.01170   0.76337   0.00000  Uiso   1.00
C857   C     0.82243   0.05596   0.76045   0.00000  Uiso   1.00
C858   C     0.84321   0.27793   0.73985   0.00000  Uiso   1.00
C859   C     0.81529   0.25301   0.97386   0.00000  Uiso   1.00
C860   C     0.85134   0.14884   0.62944   0.00000  Uiso   1.00
C861   C     0.81458   0.18418   0.87085   0.00000  Uiso   1.00
C862   C     0.86926   0.09322   0.51657   0.00000  Uiso   1.00
C863   C     0.85737   0.14278   0.58141   0.00000  Uiso   1.00
C864   C     0.80615   0.23706   0.93394   0.00000  Uiso   1.00
C865   C     0.93394   0.09991   0.58234   0.00000  Uiso   1.00
C866   C     0.87407   0.00266   0.66240   0.00000  Uiso   1.00
C867   C     0.91978   0.05922   0.96636   0.00000  Uiso   1.00
C868   C     0.83205   0.22954   0.60709   0.00000  Uiso   1.00
C869   C     0.79745   0.06450   0.88900   0.00000  Uiso   1.00
C870   C     0.82779   0.22732   0.99932   0.00000  Uiso   1.00
C871   C     0.69283   0.24217   0.71560   0.00000  Uiso   1.00
C872   C     0.82700   0.18389   0.98799   0.00000  Uiso   1.00
C873   C     0.81710   0.16724   0.94722   0.00000  Uiso   1.00
C874   C     0.83903   0.15730   0.51440   0.00000  Uiso   1.00
C875   C     0.84875   0.11708   0.99554   0.00000  Uiso   1.00
C876   C     0.83489   0.09991   0.95783   0.00000  Uiso   1.00
C877   C     0.81544   0.12363   0.93549   0.00000  Uiso   1.00
H878   H     0.93252   0.12580   0.60896   0.00000  Uiso   1.00
H879   H     0.91882   0.07778   0.93885   0.00000  Uiso   1.00
H880   H     0.92775   0.02791   0.95127   0.00000  Uiso   1.00
H881   H     0.94584   0.07383   0.98209   0.00000  Uiso   1.00
H882   H     0.86774   0.23414   0.59428   0.00000  Uiso   1.00
H883   H     0.82249   0.22533   0.64340   0.00000  Uiso   1.00
H884   H     0.82024   0.25886   0.60339   0.00000  Uiso   1.00
H885   H     0.80009   0.25862   0.91294   0.00000  Uiso   1.00
H886   H     0.84041   0.24262   0.52624   0.00000  Uiso   1.00
H887   H     0.81557   0.28610   0.98361   0.00000  Uiso   1.00
H888   H     0.78054   0.05541   0.86221   0.00000  Uiso   1.00
H889   H     0.95373   0.11134   0.54987   0.00000  Uiso   1.00
H890   H     0.78239   0.04309   0.91590   0.00000  Uiso   1.00
H891   H     0.83194   0.06101   0.87410   0.00000  Uiso   1.00
H892   H     0.70355   0.24878   0.74700   0.00000  Uiso   1.00
H893   H     0.99536   0.25478   0.71965   0.00000  Uiso   1.00
H894   H     0.71747   0.25899   0.68925   0.00000  Uiso   1.00
H895   H     0.95066   0.07597   0.59093   0.00000  Uiso   1.00
H896   H     0.98542   0.13970   0.78958   0.00000  Uiso   1.00
H897   H     0.84389   0.01473   0.66232   0.00000  Uiso   1.00
H898   H     0.87300   0.30259   0.64980   0.00000  Uiso   1.00
H899   H     0.90087   0.02031   0.63883   0.00000  Uiso   1.00
H900   H     0.79152   0.33078   0.78820   0.00000  Uiso   1.00
H901   H     0.83768   0.06737   0.94751   0.00000  Uiso   1.00
O902   O     0.83333   0.16667   0.75000   0.00000  Uiso   1.00
O903   O     0.82118   0.12637   0.65459   0.00000  Uiso   1.00
O904   O     0.79607   0.20391   0.84968   0.00000  Uiso   1.00
O905   O     0.87491   0.17759   0.64606   0.00000  Uiso   1.00
O906   O     0.84118   0.15880   0.84968   0.00000  Uiso   1.00
O907   O     0.89226   0.08151   0.58031   0.00000  Uiso   1.00
O908   O     0.88208   0.00875   0.70505   0.00000  Uiso   1.00
O909   O     0.87978   0.05417   0.99826   0.00000  Uiso   1.00
O910   O     0.81126   0.19610   0.58427   0.00000  Uiso   1.00
O911   O     0.79197   0.10626   0.90468   0.00000  Uiso   1.00
O912   O     0.68943   0.19915   0.70210   0.00000  Uiso   1.00
O913   O     0.84597   0.08019   0.78214   0.00000  Uiso   1.00
O914   O     0.81298   0.26085   0.77014   0.00000  Uiso   1.00
O915   O     0.74078   0.13291   0.73413   0.00000  Uiso   1.00
O916   O     0.93360   0.19272   0.71361   0.00000  Uiso   1.00
O917   O     0.73738   0.18878   0.78213   0.00000  Uiso   1.00
O918   O     0.92158   0.15226   0.77014   0.00000  Uiso   1.00
O919   O     0.80426   0.06944   0.73413   0.00000  Uiso   1.00
O920   O     0.87012   0.25620   0.71361   0.00000  Uiso   1.00
Zn921  Zn    0.86005   0.13994   0.78734   0.00000  Uiso   1.00
Zn922  Zn    0.80046   0.12458   0.71876   0.00000  Uiso   1.00
Zn923  Zn    0.87723   0.19775   0.70657   0.00000  Uiso   1.00
Zn924  Zn    0.79560   0.20439   0.78734   0.00000  Uiso   1.00
C925   C     0.05272   0.49287   0.76014   0.00000  Uiso   1.00
C926   C     0.17267   0.50185   0.55960   0.00000  Uiso   1.00
C927   C     0.20853   0.44040   0.55880   0.00000  Uiso   1.00
C928   C     0.28086   0.50746   0.74000   0.00000  Uiso   1.00
C929   C     0.14315   0.52844   0.91883   0.00000  Uiso   1.00
C930   C     0.32704   0.51116   0.73605   0.00000  Uiso   1.00
C931   C     0.00752   0.49086   0.76351   0.00000  Uiso   1.00
C932   C     0.18045   0.65596   0.73533   0.00000  Uiso   1.00
C933   C     0.15191   0.34503   0.76337   0.00000  Uiso   1.00
C934   C     0.15576   0.38929   0.76045   0.00000  Uiso   1.00
C935   C     0.17655   0.61126   0.73985   0.00000  Uiso   1.00
C936   C     0.14862   0.58635   0.97386   0.00000  Uiso   1.00
C937   C     0.18467   0.48218   0.62944   0.00000  Uiso   1.00
C938   C     0.14791   0.51751   0.87085   0.00000  Uiso   1.00
C939   C     0.20260   0.42656   0.51657   0.00000  Uiso   1.00
C940   C     0.19070   0.47611   0.58141   0.00000  Uiso   1.00
C941   C     0.13948   0.57040   0.93394   0.00000  Uiso   1.00
C942   C     0.26727   0.43325   0.58234   0.00000  Uiso   1.00
C943   C     0.20740   0.33600   0.66240   0.00000  Uiso   1.00
C944   C     0.25311   0.39255   0.96636   0.00000  Uiso   1.00
C945   C     0.16538   0.56287   0.60709   0.00000  Uiso   1.00
C946   C     0.13078   0.39783   0.88900   0.00000  Uiso   1.00
C947   C     0.16113   0.56066   0.99932   0.00000  Uiso   1.00
C948   C     0.02616   0.57551   0.71560   0.00000  Uiso   1.00
C949   C     0.16033   0.51722   0.98799   0.00000  Uiso   1.00
C950   C     0.15043   0.50057   0.94722   0.00000  Uiso   1.00
C951   C     0.17236   0.49064   0.51440   0.00000  Uiso   1.00
C952   C     0.18208   0.45041   0.99554   0.00000  Uiso   1.00
C953   C     0.16823   0.43324   0.95783   0.00000  Uiso   1.00
C954   C     0.14878   0.45696   0.93549   0.00000  Uiso   1.00
H955   H     0.26585   0.45913   0.60896   0.00000  Uiso   1.00
H956   H     0.25215   0.41111   0.93885   0.00000  Uiso   1.00
H957   H     0.26109   0.36125   0.95127   0.00000  Uiso   1.00
H958   H     0.27918   0.40716   0.98209   0.00000  Uiso   1.00
H959   H     0.20107   0.56747   0.59428   0.00000  Uiso   1.00
H960   H     0.15583   0.55867   0.64340   0.00000  Uiso   1.00
H961   H     0.15357   0.59220   0.60339   0.00000  Uiso   1.00
H962   H     0.13342   0.59195   0.91294   0.00000  Uiso   1.00
H963   H     0.17374   0.57595   0.52624   0.00000  Uiso   1.00
H964   H     0.14890   0.61944   0.98361   0.00000  Uiso   1.00
H965   H     0.11387   0.38875   0.86221   0.00000  Uiso   1.00
H966   H     0.28707   0.44467   0.54987   0.00000  Uiso   1.00
H967   H     0.11573   0.37642   0.91590   0.00000  Uiso   1.00
H968   H     0.16528   0.39434   0.87410   0.00000  Uiso   1.00
H969   H     0.03688   0.58211   0.74700   0.00000  Uiso   1.00
H970   H     0.32869   0.58811   0.71965   0.00000  Uiso   1.00
H971   H     0.05080   0.59232   0.68925   0.00000  Uiso   1.00
H972   H     0.28399   0.40930   0.59093   0.00000  Uiso   1.00
H973   H     0.31875   0.47303   0.78958   0.00000  Uiso   1.00
H974   H     0.17722   0.34806   0.66232   0.00000  Uiso   1.00
H975   H     0.20633   0.63592   0.64980   0.00000  Uiso   1.00
H976   H     0.23420   0.35364   0.63883   0.00000  Uiso   1.00
H977   H     0.12485   0.66412   0.78820   0.00000  Uiso   1.00
H978   H     0.17102   0.40070   0.94751   0.00000  Uiso   1.00
O979   O     0.16667   0.50000   0.75000   0.00000  Uiso   1.00
O980   O     0.15451   0.45970   0.65459   0.00000  Uiso   1.00
O981   O     0.12940   0.53724   0.84968   0.00000  Uiso   1.00
O982   O     0.20824   0.51092   0.64606   0.00000  Uiso   1.00
O983   O     0.17451   0.49213   0.84968   0.00000  Uiso   1.00
O984   O     0.22559   0.41484   0.58031   0.00000  Uiso   1.00
O985   O     0.21541   0.34208   0.70505   0.00000  Uiso   1.00
O986   O     0.21312   0.38751   0.99826   0.00000  Uiso   1.00
O987   O     0.14459   0.52943   0.58427   0.00000  Uiso   1.00
O988   O     0.12531   0.43959   0.90468   0.00000  Uiso   1.00
O989   O     0.02276   0.53248   0.70210   0.00000  Uiso   1.00
O990   O     0.17930   0.41352   0.78214   0.00000  Uiso   1.00
O991   O     0.14632   0.59418   0.77014   0.00000  Uiso   1.00
O992   O     0.07412   0.46625   0.73413   0.00000  Uiso   1.00
O993   O     0.26693   0.52605   0.71361   0.00000  Uiso   1.00
O994   O     0.07071   0.52211   0.78213   0.00000  Uiso   1.00
O995   O     0.25491   0.48559   0.77014   0.00000  Uiso   1.00
O996   O     0.13760   0.40277   0.73413   0.00000  Uiso   1.00
O997   O     0.20345   0.58953   0.71361   0.00000  Uiso   1.00
Zn998  Zn    0.19338   0.47327   0.78734   0.00000  Uiso   1.00
Zn999  Zn    0.13379   0.45791   0.71876   0.00000  Uiso   1.00
Zn1000 Zn    0.21056   0.53109   0.70657   0.00000  Uiso   1.00
Zn1001 Zn    0.12893   0.53773   0.78734   0.00000  Uiso   1.00
C1002  C     0.38605   0.49287   0.76014   0.00000  Uiso   1.00
C1003  C     0.50600   0.50185   0.55960   0.00000  Uiso   1.00
C1004  C     0.54186   0.44040   0.55880   0.00000  Uiso   1.00
C1005  C     0.61419   0.50746   0.74000   0.00000  Uiso   1.00
C1006  C     0.47648   0.52844   0.91883   0.00000  Uiso   1.00
C1007  C     0.66038   0.51116   0.73605   0.00000  Uiso   1.00
C1008  C     0.34085   0.49086   0.76351   0.00000  Uiso   1.00
C1009  C     0.51378   0.65596   0.73533   0.00000  Uiso   1.00
C1010  C     0.48524   0.34503   0.76337   0.00000  Uiso   1.00
C1011  C     0.48910   0.38929   0.76045   0.00000  Uiso   1.00
C1012  C     0.50988   0.61126   0.73985   0.00000  Uiso   1.00
C1013  C     0.48196   0.58635   0.97386   0.00000  Uiso   1.00
C1014  C     0.51801   0.48218   0.62944   0.00000  Uiso   1.00
C1015  C     0.48125   0.51751   0.87085   0.00000  Uiso   1.00
C1016  C     0.53593   0.42656   0.51657   0.00000  Uiso   1.00
C1017  C     0.52404   0.47611   0.58141   0.00000  Uiso   1.00
C1018  C     0.47282   0.57040   0.93394   0.00000  Uiso   1.00
C1019  C     0.60060   0.43325   0.58234   0.00000  Uiso   1.00
C1020  C     0.54074   0.33600   0.66240   0.00000  Uiso   1.00
C1021  C     0.58644   0.39255   0.96636   0.00000  Uiso   1.00
C1022  C     0.49872   0.56287   0.60709   0.00000  Uiso   1.00
C1023  C     0.46411   0.39783   0.88900   0.00000  Uiso   1.00
C1024  C     0.49446   0.56066   0.99932   0.00000  Uiso   1.00
C1025  C     0.35950   0.57551   0.71560   0.00000  Uiso   1.00
C1026  C     0.49366   0.51722   0.98799   0.00000  Uiso   1.00
C1027  C     0.48377   0.50057   0.94722   0.00000  Uiso   1.00
C1028  C     0.50570   0.49064   0.51440   0.00000  Uiso   1.00
C1029  C     0.51541   0.45041   0.99554   0.00000  Uiso   1.00
C1030  C     0.50156   0.43324   0.95783   0.00000  Uiso   1.00
C1031  C     0.48211   0.45696   0.93549   0.00000  Uiso   1.00
H1032  H     0.59919   0.45913   0.60896   0.00000  Uiso   1.00
H1033  H     0.58549   0.41111   0.93885   0.00000  Uiso   1.00
H1034  H     0.59442   0.36125   0.95127   0.00000  Uiso   1.00
H1035  H     0.61251   0.40716   0.98209   0.00000  Uiso   1.00
H1036  H     0.53440   0.56747   0.59428   0.00000  Uiso   1.00
H1037  H     0.48916   0.55867   0.64340   0.00000  Uiso   1.00
H1038  H     0.48691   0.59220   0.60339   0.00000  Uiso   1.00
H1039  H     0.46676   0.59195   0.91294   0.00000  Uiso   1.00
H1040  H     0.50708   0.57595   0.52624   0.00000  Uiso   1.00
H1041  H     0.48224   0.61944   0.98361   0.00000  Uiso   1.00
H1042  H     0.44720   0.38875   0.86221   0.00000  Uiso   1.00
H1043  H     0.62040   0.44467   0.54987   0.00000  Uiso   1.00
H1044  H     0.44906   0.37642   0.91590   0.00000  Uiso   1.00
H1045  H     0.49861   0.39434   0.87410   0.00000  Uiso   1.00
H1046  H     0.37021   0.58211   0.74700   0.00000  Uiso   1.00
H1047  H     0.66202   0.58811   0.71965   0.00000  Uiso   1.00
H1048  H     0.38413   0.59232   0.68925   0.00000  Uiso   1.00
H1049  H     0.61733   0.40930   0.59093   0.00000  Uiso   1.00
H1050  H     0.65208   0.47303   0.78958   0.00000  Uiso   1.00
H1051  H     0.51055   0.34806   0.66232   0.00000  Uiso   1.00
H1052  H     0.53966   0.63592   0.64980   0.00000  Uiso   1.00
H1053  H     0.56754   0.35364   0.63883   0.00000  Uiso   1.00
H1054  H     0.45819   0.66412   0.78820   0.00000  Uiso   1.00
H1055  H     0.50435   0.40070   0.94751   0.00000  Uiso   1.00
O1056  O     0.50000   0.50000   0.75000   0.00000  Uiso   1.00
O1057  O     0.48784   0.45970   0.65459   0.00000  Uiso   1.00
O1058  O     0.46274   0.53724   0.84968   0.00000  Uiso   1.00
O1059  O     0.54157   0.51092   0.64606   0.00000  Uiso   1.00
O1060  O     0.50785   0.49213   0.84968   0.00000  Uiso   1.00
O1061  O     0.55893   0.41484   0.58031   0.00000  Uiso   1.00
O1062  O     0.54875   0.34208   0.70505   0.00000  Uiso   1.00
O1063  O     0.54645   0.38751   0.99826   0.00000  Uiso   1.00
O1064  O     0.47793   0.52943   0.58427   0.00000  Uiso   1.00
O1065  O     0.45864   0.43959   0.90468   0.00000  Uiso   1.00
O1066  O     0.35610   0.53248   0.70210   0.00000  Uiso   1.00
O1067  O     0.51264   0.41352   0.78214   0.00000  Uiso   1.00
O1068  O     0.47965   0.59418   0.77014   0.00000  Uiso   1.00
O1069  O     0.40745   0.46625   0.73413   0.00000  Uiso   1.00
O1070  O     0.60026   0.52605   0.71361   0.00000  Uiso   1.00
O1071  O     0.40405   0.52211   0.78213   0.00000  Uiso   1.00
O1072  O     0.58824   0.48559   0.77014   0.00000  Uiso   1.00
O1073  O     0.47093   0.40277   0.73413   0.00000  Uiso   1.00
O1074  O     0.53678   0.58953   0.71361   0.00000  Uiso   1.00
Zn1075 Zn    0.52672   0.47327   0.78734   0.00000  Uiso   1.00
Zn1076 Zn    0.46713   0.45791   0.71876   0.00000  Uiso   1.00
Zn1077 Zn    0.54389   0.53109   0.70657   0.00000  Uiso   1.00
Zn1078 Zn    0.46226   0.53773   0.78734   0.00000  Uiso   1.00
C1079  C     0.71938   0.49287   0.76014   0.00000  Uiso   1.00
C1080  C     0.83933   0.50185   0.55960   0.00000  Uiso   1.00
C1081  C     0.87519   0.44040   0.55880   0.00000  Uiso   1.00
C1082  C     0.94752   0.50746   0.74000   0.00000  Uiso   1.00
C1083  C     0.80982   0.52844   0.91883   0.00000  Uiso   1.00
C1084  C     0.99371   0.51116   0.73605   0.00000  Uiso   1.00
C1085  C     0.67418   0.49086   0.76351   0.00000  Uiso   1.00
C1086  C     0.84712   0.65596   0.73533   0.00000  Uiso   1.00
C1087  C     0.81857   0.34503   0.76337   0.00000  Uiso   1.00
C1088  C     0.82243   0.38929   0.76045   0.00000  Uiso   1.00
C1089  C     0.84321   0.61126   0.73985   0.00000  Uiso   1.00
C1090  C     0.81529   0.58635   0.97386   0.00000  Uiso   1.00
C1091  C     0.85134   0.48218   0.62944   0.00000  Uiso   1.00
C1092  C     0.81458   0.51751   0.87085   0.00000  Uiso   1.00
C1093  C     0.86926   0.42656   0.51657   0.00000  Uiso   1.00
C1094  C     0.85737   0.47611   0.58141   0.00000  Uiso   1.00
C1095  C     0.80615   0.57040   0.93394   0.00000  Uiso   1.00
C1096  C     0.93394   0.43325   0.58234   0.00000  Uiso   1.00
C1097  C     0.87407   0.33600   0.66240   0.00000  Uiso   1.00
C1098  C     0.91978   0.39255   0.96636   0.00000  Uiso   1.00
C1099  C     0.83205   0.56287   0.60709   0.00000  Uiso   1.00
C1100  C     0.79745   0.39783   0.88900   0.00000  Uiso   1.00
C1101  C     0.82779   0.56066   0.99932   0.00000  Uiso   1.00
C1102  C     0.69283   0.57551   0.71560   0.00000  Uiso   1.00
C1103  C     0.82700   0.51722   0.98799   0.00000  Uiso   1.00
C1104  C     0.81710   0.50057   0.94722   0.00000  Uiso   1.00
C1105  C     0.83903   0.49064   0.51440   0.00000  Uiso   1.00
C1106  C     0.84875   0.45041   0.99554   0.00000  Uiso   1.00
C1107  C     0.83489   0.43324   0.95783   0.00000  Uiso   1.00
C1108  C     0.81544   0.45696   0.93549   0.00000  Uiso   1.00
H1109  H     0.93252   0.45913   0.60896   0.00000  Uiso   1.00
H1110  H     0.91882   0.41111   0.93885   0.00000  Uiso   1.00
H1111  H     0.92775   0.36125   0.95127   0.00000  Uiso   1.00
H1112  H     0.94584   0.40716   0.98209   0.00000  Uiso   1.00
H1113  H     0.86774   0.56747   0.59428   0.00000  Uiso   1.00
H1114  H     0.82249   0.55867   0.64340   0.00000  Uiso   1.00
H1115  H     0.82024   0.59220   0.60339   0.00000  Uiso   1.00
H1116  H     0.80009   0.59195   0.91294   0.00000  Uiso   1.00
H1117  H     0.84041   0.57595   0.52624   0.00000  Uiso   1.00
H1118  H     0.81557   0.61944   0.98361   0.00000  Uiso   1.00
H1119  H     0.78054   0.38875   0.86221   0.00000  Uiso   1.00
H1120  H     0.95373   0.44467   0.54987   0.00000  Uiso   1.00
H1121  H     0.78239   0.37642   0.91590   0.00000  Uiso   1.00
H1122  H     0.83194   0.39434   0.87410   0.00000  Uiso   1.00
H1123  H     0.70355   0.58211   0.74700   0.00000  Uiso   1.00
H1124  H     0.99536   0.58811   0.71965   0.00000  Uiso   1.00
H1125  H     0.71747   0.59232   0.68925   0.00000  Uiso   1.00
H1126  H     0.95066   0.40930   0.59093   0.00000  Uiso   1.00
H1127  H     0.98542   0.47303   0.78958   0.00000  Uiso   1.00
H1128  H     0.84389   0.34806   0.66232   0.00000  Uiso   1.00
H1129  H     0.87300   0.63592   0.64980   0.00000  Uiso   1.00
H1130  H     0.90087   0.35364   0.63883   0.00000  Uiso   1.00
H1131  H     0.79152   0.66412   0.78820   0.00000  Uiso   1.00
H1132  H     0.83768   0.40070   0.94751   0.00000  Uiso   1.00
O1133  O     0.83333   0.50000   0.75000   0.00000  Uiso   1.00
O1134  O     0.82118   0.45970   0.65459   0.00000  Uiso   1.00
O1135  O     0.79607   0.53724   0.84968   0.00000  Uiso   1.00
O1136  O     0.87491   0.51092   0.64606   0.00000  Uiso   1.00
O1137  O     0.84118   0.49213   0.84968   0.00000  Uiso   1.00
O1138  O     0.89226   0.41484   0.58031   0.00000  Uiso   1.00
O1139  O     0.88208   0.34208   0.70505   0.00000  Uiso   1.00
O1140  O     0.87978   0.38751   0.99826   0.00000  Uiso   1.00
O1141  O     0.81126   0.52943   0.58427   0.00000  Uiso   1.00
O1142  O     0.79197   0.43959   0.90468   0.00000  Uiso   1.00
O1143  O     0.68943   0.53248   0.70210   0.00000  Uiso   1.00
O1144  O     0.84597   0.41352   0.78214   0.00000  Uiso   1.00
O1145  O     0.81298   0.59418   0.77014   0.00000  Uiso   1.00
O1146  O     0.74078   0.46625   0.73413   0.00000  Uiso   1.00
O1147  O     0.93360   0.52605   0.71361   0.00000  Uiso   1.00
O1148  O     0.73738   0.52211   0.78213   0.00000  Uiso   1.00
O1149  O     0.92158   0.48559   0.77014   0.00000  Uiso   1.00
O1150  O     0.80426   0.40277   0.73413   0.00000  Uiso   1.00
O1151  O     0.87012   0.58953   0.71361   0.00000  Uiso   1.00
Zn1152 Zn    0.86005   0.47327   0.78734   0.00000  Uiso   1.00
Zn1153 Zn    0.80046   0.45791   0.71876   0.00000  Uiso   1.00
Zn1154 Zn    0.87723   0.53109   0.70657   0.00000  Uiso   1.00
Zn1155 Zn    0.79560   0.53773   0.78734   0.00000  Uiso   1.00
C1156  C     0.05272   0.82620   0.76014   0.00000  Uiso   1.00
C1157  C     0.17267   0.83519   0.55960   0.00000  Uiso   1.00
C1158  C     0.20853   0.77373   0.55880   0.00000  Uiso   1.00
C1159  C     0.28086   0.84079   0.74000   0.00000  Uiso   1.00
C1160  C     0.14315   0.86178   0.91883   0.00000  Uiso   1.00
C1161  C     0.32704   0.84450   0.73605   0.00000  Uiso   1.00
C1162  C     0.00752   0.82420   0.76351   0.00000  Uiso   1.00
C1163  C     0.18045   0.98930   0.73533   0.00000  Uiso   1.00
C1164  C     0.15191   0.67836   0.76337   0.00000  Uiso   1.00
C1165  C     0.15576   0.72262   0.76045   0.00000  Uiso   1.00
C1166  C     0.17655   0.94460   0.73985   0.00000  Uiso   1.00
C1167  C     0.14862   0.91968   0.97386   0.00000  Uiso   1.00
C1168  C     0.18467   0.81551   0.62944   0.00000  Uiso   1.00
C1169  C     0.14791   0.85085   0.87085   0.00000  Uiso   1.00
C1170  C     0.20260   0.75989   0.51657   0.00000  Uiso   1.00
C1171  C     0.19070   0.80944   0.58141   0.00000  Uiso   1.00
C1172  C     0.13948   0.90373   0.93394   0.00000  Uiso   1.00
C1173  C     0.26727   0.76658   0.58234   0.00000  Uiso   1.00
C1174  C     0.20740   0.66933   0.66240   0.00000  Uiso   1.00
C1175  C     0.25311   0.72589   0.96636   0.00000  Uiso   1.00
C1176  C     0.16538   0.89620   0.60709   0.00000  Uiso   1.00
C1177  C     0.13078   0.73117   0.88900   0.00000  Uiso   1.00
C1178  C     0.16113   0.89399   0.99932   0.00000  Uiso   1.00
C1179  C     0.02616   0.90884   0.71560   0.00000  Uiso   1.00
C1180  C     0.16033   0.85056   0.98799   0.00000  Uiso   1.00
C1181  C     0.15043   0.83390   0.94722   0.00000  Uiso   1.00
C1182  C     0.17236   0.82397   0.51440   0.00000  Uiso   1.00
C1183  C     0.18208   0.78375   0.99554   0.00000  Uiso   1.00
C1184  C     0.16823   0.76658   0.95783   0.00000  Uiso   1.00
C1185  C     0.14878   0.79029   0.93549   0.00000  Uiso   1.00
H1186  H     0.26585   0.79246   0.60896   0.00000  Uiso   1.00
H1187  H     0.25215   0.74445   0.93885   0.00000  Uiso   1.00
H1188  H     0.26109   0.69458   0.95127   0.00000  Uiso   1.00
H1189  H     0.27918   0.74049   0.98209   0.00000  Uiso   1.00
H1190  H     0.20107   0.90081   0.59428   0.00000  Uiso   1.00
H1191  H     0.15583   0.89200   0.64340   0.00000  Uiso   1.00
H1192  H     0.15357   0.92553   0.60339   0.00000  Uiso   1.00
H1193  H     0.13342   0.92528   0.91294   0.00000  Uiso   1.00
H1194  H     0.17374   0.90928   0.52624   0.00000  Uiso   1.00
H1195  H     0.14890   0.95277   0.98361   0.00000  Uiso   1.00
H1196  H     0.11387   0.72208   0.86221   0.00000  Uiso   1.00
H1197  H     0.28707   0.77801   0.54987   0.00000  Uiso   1.00
H1198  H     0.11573   0.70975   0.91590   0.00000  Uiso   1.00
H1199  H     0.16528   0.72767   0.87410   0.00000  Uiso   1.00
H1200  H     0.03688   0.91544   0.74700   0.00000  Uiso   1.00
H1201  H     0.32869   0.92144   0.71965   0.00000  Uiso   1.00
H1202  H     0.05080   0.92565   0.68925   0.00000  Uiso   1.00
H1203  H     0.28399   0.74264   0.59093   0.00000  Uiso   1.00
H1204  H     0.31875   0.80637   0.78958   0.00000  Uiso   1.00
H1205  H     0.17722   0.68139   0.66232   0.00000  Uiso   1.00
H1206  H     0.20633   0.96925   0.64980   0.00000  Uiso   1.00
H1207  H     0.23420   0.68697   0.63883   0.00000  Uiso   1.00
H1208  H     0.12485   0.99745   0.78820   0.00000  Uiso   1.00
H1209  H     0.17102   0.73404   0.94751   0.00000  Uiso   1.00
O1210  O     0.16667   0.83333   0.75000   0.00000  Uiso   1.00
O1211  O     0.15451   0.79304   0.65459   0.00000  Uiso   1.00
O1212  O     0.12940   0.87058   0.84968   0.00000  Uiso   1.00
O1213  O     0.20824   0.84425   0.64606   0.00000  Uiso   1.00
O1214  O     0.17451   0.82546   0.84968   0.00000  Uiso   1.00
O1215  O     0.22559   0.74817   0.58031   0.00000  Uiso   1.00
O1216  O     0.21541   0.67542   0.70505   0.00000  Uiso   1.00
O1217  O     0.21312   0.72084   0.99826   0.00000  Uiso   1.00
O1218  O     0.14459   0.86276   0.58427   0.00000  Uiso   1.00
O1219  O     0.12531   0.77292   0.90468   0.00000  Uiso   1.00
O1220  O     0.02276   0.86582   0.70210   0.00000  Uiso   1.00
O1221  O     0.17930   0.74686   0.78214   0.00000  Uiso   1.00
O1222  O     0.14632   0.92751   0.77014   0.00000  Uiso   1.00
O1223  O     0.07412   0.79958   0.73413   0.00000  Uiso   1.00
O1224  O     0.26693   0.85939   0.71361   0.00000  Uiso   1.00
O1225  O     0.07071   0.85544   0.78213   0.00000  Uiso   1.00
O1226  O     0.25491   0.81892   0.77014   0.00000  Uiso   1.00
O1227  O     0.13760   0.73610   0.73413   0.00000  Uiso   1.00
O1228  O     0.20345   0.92286   0.71361   0.00000  Uiso   1.00
Zn1229 Zn    0.19338   0.80661   0.78734   0.00000  Uiso   1.00
Zn1230 Zn    0.13379   0.79124   0.71876   0.00000  Uiso   1.00
Zn1231 Zn    0.21056   0.86442   0.70657   0.00000  Uiso   1.00
Zn1232 Zn    0.12893   0.87106   0.78734   0.00000  Uiso   1.00
C1233  C     0.38605   0.82620   0.76014   0.00000  Uiso   1.00
C1234  C     0.50600   0.83519   0.55960   0.00000  Uiso   1.00
C1235  C     0.54186   0.77373   0.55880   0.00000  Uiso   1.00
C1236  C     0.61419   0.84079   0.74000   0.00000  Uiso   1.00
C1237  C     0.47648   0.86178   0.91883   0.00000  Uiso   1.00
C1238  C     0.66038   0.84450   0.73605   0.00000  Uiso   1.00
C1239  C     0.34085   0.82420   0.76351   0.00000  Uiso   1.00
C1240  C     0.51378   0.98930   0.73533   0.00000  Uiso   1.00
C1241  C     0.48524   0.67836   0.76337   0.00000  Uiso   1.00
C1242  C     0.48910   0.72262   0.76045   0.00000  Uiso   1.00
C1243  C     0.50988   0.94460   0.73985   0.00000  Uiso   1.00
C1244  C     0.48196   0.91968   0.97386   0.00000  Uiso   1.00
C1245  C     0.51801   0.81551   0.62944   0.00000  Uiso   1.00
C1246  C     0.48125   0.85085   0.87085   0.00000  Uiso   1.00
C1247  C     0.53593   0.75989   0.51657   0.00000  Uiso   1.00
C1248  C     0.52404   0.80944   0.58141   0.00000  Uiso   1.00
C1249  C     0.47282   0.90373   0.93394   0.00000  Uiso   1.00
C1250  C     0.60060   0.76658   0.58234   0.00000  Uiso   1.00
C1251  C     0.54074   0.66933   0.66240   0.00000  Uiso   1.00
C1252  C     0.58644   0.72589   0.96636   0.00000  Uiso   1.00
C1253  C     0.49872   0.89620   0.60709   0.00000  Uiso   1.00
C1254  C     0.46411   0.73117   0.88900   0.00000  Uiso   1.00
C1255  C     0.49446   0.89399   0.99932   0.00000  Uiso   1.00
C1256  C     0.35950   0.90884   0.71560   0.00000  Uiso   1.00
C1257  C     0.49366   0.85056   0.98799   0.00000  Uiso   1.00
C1258  C     0.48377   0.83390   0.94722   0.00000  Uiso   1.00
C1259  C     0.50570   0.82397   0.51440   0.00000  Uiso   1.00
C1260  C     0.51541   0.78375   0.99554   0.00000  Uiso   1.00
C1261  C     0.50156   0.76658   0.95783   0.00000  Uiso   1.00
C1262  C     0.48211   0.79029   0.93549   0.00000  Uiso   1.00
H1263  H     0.59919   0.79246   0.60896   0.00000  Uiso   1.00
H1264  H     0.58549   0.74445   0.93885   0.00000  Uiso   1.00
H1265  H     0.59442   0.69458   0.95127   0.00000  Uiso   1.00
H1266  H     0.61251   0.74049   0.98209   0.00000  Uiso   1.00
H1267  H     0.53440   0.90081   0.59428   0.00000  Uiso   1.00
H1268  H     0.48916   0.89200   0.64340   0.00000  Uiso   1.00
H1269  H     0.48691   0.92553   0.60339   0.00000  Uiso   1.00
H1270  H     0.46676   0.92528   0.91294   0.00000  Uiso   1.00
H1271  H     0.50708   0.90928   0.52624   0.00000  Uiso   1.00
H1272  H     0.48224   0.95277   0.98361   0.00000  Uiso   1.00
H1273  H     0.44720   0.72208   0.86221   0.00000  Uiso   1.00
H1274  H     0.62040   0.77801   0.54987   0.00000  Uiso   1.00
H1275  H     0.44906   0.70975   0.91590   0.00000  Uiso   1.00
H1276  H     0.49861   0.72767   0.87410   0.00000  Uiso   1.00
H1277  H     0.37021   0.91544   0.74700   0.00000  Uiso   1.00
H1278  H     0.66202   0.92144   0.71965   0.00000  Uiso   1.00
H1279  H     0.38413   0.92565   0.68925   0.00000  Uiso   1.00
H1280  H     0.61733   0.74264   0.59093   0.00000  Uiso   1.00
H1281  H     0.65208   0.80637   0.78958   0.00000  Uiso   1.00
H1282  H     0.51055   0.68139   0.66232   0.00000  Uiso   1.00
H1283  H     0.53966   0.96925   0.64980   0.00000  Uiso   1.00
H1284  H     0.56754   0.68697   0.63883   0.00000  Uiso   1.00
H1285  H     0.45819   0.99745   0.78820   0.00000  Uiso   1.00
H1286  H     0.50435   0.73404   0.94751   0.00000  Uiso   1.00
O1287  O     0.50000   0.83333   0.75000   0.00000  Uiso   1.00
O1288  O     0.48784   0.79304   0.65459   0.00000  Uiso   1.00
O1289  O     0.46274   0.87058   0.84968   0.00000  Uiso   1.00
O1290  O     0.54157   0.84425   0.64606   0.00000  Uiso   1.00
O1291  O     0.50785   0.82546   0.84968   0.00000  Uiso   1.00
O1292  O     0.55893   0.74817   0.58031   0.00000  Uiso   1.00
O1293  O     0.54875   0.67542   0.70505   0.00000  Uiso   1.00
O1294  O     0.54645   0.72084   0.99826   0.00000  Uiso   1.00
O1295  O     0.47793   0.86276   0.58427   0.00000  Uiso   1.00
O1296  O     0.45864   0.77292   0.90468   0.00000  Uiso   1.00
O1297  O     0.35610   0.86582   0.70210   0.00000  Uiso   1.00
O1298  O     0.51264   0.74686   0.78214   0.00000  Uiso   1.00
O1299  O     0.47965   0.92751   0.77014   0.00000  Uiso   1.00
O1300  O     0.40745   0.79958   0.73413   0.00000  Uiso   1.00
O1301  O     0.60026   0.85939   0.71361   0.00000  Uiso   1.00
O1302  O     0.40405   0.85544   0.78213   0.00000  Uiso   1.00
O1303  O     0.58824   0.81892   0.77014   0.00000  Uiso   1.00
O1304  O     0.47093   0.73610   0.73413   0.00000  Uiso   1.00
O1305  O     0.53678   0.92286   0.71361   0.00000  Uiso   1.00
Zn1306 Zn    0.52672   0.80661   0.78734   0.00000  Uiso   1.00
Zn1307 Zn    0.46713   0.79124   0.71876   0.00000  Uiso   1.00
Zn1308 Zn    0.54389   0.86442   0.70657   0.00000  Uiso   1.00
Zn1309 Zn    0.46226   0.87106   0.78734   0.00000  Uiso   1.00
C1310  C     0.71938   0.82620   0.76014   0.00000  Uiso   1.00
C1311  C     0.83933   0.83519   0.55960   0.00000  Uiso   1.00
C1312  C     0.87519   0.77373   0.55880   0.00000  Uiso   1.00
C1313  C     0.94752   0.84079   0.74000   0.00000  Uiso   1.00
C1314  C     0.80982   0.86178   0.91883   0.00000  Uiso   1.00
C1315  C     0.99371   0.84450   0.73605   0.00000  Uiso   1.00
C1316  C     0.67418   0.82420   0.76351   0.00000  Uiso   1.00
C1317  C     0.84712   0.98930   0.73533   0.00000  Uiso   1.00
C1318  C     0.81857   0.67836   0.76337   0.00000  Uiso   1.00
C1319  C     0.82243   0.72262   0.76045   0.00000  Uiso   1.00
C1320  C     0.84321   0.94460   0.73985   0.00000  Uiso   1.00
C1321  C     0.81529   0.91968   0.97386   0.00000  Uiso   1.00
C1322  C     0.85134   0.81551   0.62944   0.00000  Uiso   1.00
C1323  C     0.81458   0.85085   0.87085   0.00000  Uiso   1.00
C1324  C     0.86926   0.75989   0.51657   0.00000  Uiso   1.00
C1325  C     0.85737   0.80944   0.58141   0.00000  Uiso   1.00
C1326  C     0.80615   0.90373   0.93394   0.00000  Uiso   1.00
C1327  C     0.93394   0.76658   0.58234   0.00000  Uiso   1.00
C1328  C     0.87407   0.66933   0.66240   0.00000  Uiso   1.00
C1329  C     0.91978   0.72589   0.96636   0.00000  Uiso   1.00
C1330  C     0.83205   0.89620   0.60709   0.00000  Uiso   1.00
C1331  C     0.79745   0.73117   0.88900   0.00000  Uiso   1.00
C1332  C     0.82779   0.89399   0.99932   0.00000  Uiso   1.00
C1333  C     0.69283   0.90884   0.71560   0.00000  Uiso   1.00
C1334  C     0.82700   0.85056   0.98799   0.00000  Uiso   1.00
C1335  C     0.81710   0.83390   0.94722   0.00000  Uiso   1.00
C1336  C     0.83903   0.82397   0.51440   0.00000  Uiso   1.00
C1337  C     0.84875   0.78375   0.99554   0.00000  Uiso   1.00
C1338  C     0.83489   0.76658   0.95783   0.00000  Uiso   1.00
C1339  C     0.81544   0.79029   0.93549   0.00000  Uiso   1.00
H1340  H     0.93252   0.79246   0.60896   0.00000  Uiso   1.00
H1341  H     0.91882   0.74445   0.93885   0.00000  Uiso   1.00
H1342  H     0.92775   0.69458   0.95127   0.00000  Uiso   1.00
H1343  H     0.94584   0.74049   0.98209   0.00000  Uiso   1.00
H1344  H     0.86774   0.90081   0.59428   0.00000  Uiso   1.00
H1345  H     0.82249   0.89200   0.64340   0.00000  Uiso   1.00
H1346  H     0.82024   0.92553   0.60339   0.00000  Uiso   1.00
H1347  H     0.80009   0.92528   0.91294   0.00000  Uiso   1.00
H1348  H     0.84041   0.90928   0.52624   0.00000  Uiso   1.00
H1349  H     0.81557   0.95277   0.98361   0.00000  Uiso   1.00
H1350  H     0.78054   0.72208   0.86221   0.00000  Uiso   1.00
H1351  H     0.95373   0.77801   0.54987   0.00000  Uiso   1.00
H1352  H     0.78239   0.70975   0.91590   0.00000  Uiso   1.00
H1353  H     0.83194   0.72767   0.87410   0.00000  Uiso   1.00
H1354  H     0.70355   0.91544   0.74700   0.00000  Uiso   1.00
H1355  H     0.99536   0.92144   0.71965   0.00000  Uiso   1.00
H1356  H     0.71747   0.92565   0.68925   0.00000  Uiso   1.00
H1357  H     0.95066   0.74264   0.59093   0.00000  Uiso   1.00
H1358  H     0.98542   0.80637   0.78958   0.00000  Uiso   1.00
H1359  H     0.84389   0.68139   0.66232   0.00000  Uiso   1.00
H1360  H     0.87300   0.96925   0.64980   0.00000  Uiso   1.00
H1361  H     0.90087   0.68697   0.63883   0.00000  Uiso   1.00
H1362  H     0.79152   0.99745   0.78820   0.00000  Uiso   1.00
H1363  H     0.83768   0.73404   0.94751   0.00000  Uiso   1.00
O1364  O     0.83333   0.83333   0.75000   0.00000  Uiso   1.00
O1365  O     0.82118   0.79304   0.65459   0.00000  Uiso   1.00
O1366  O     0.79607   0.87058   0.84968   0.00000  Uiso   1.00
O1367  O     0.87491   0.84425   0.64606   0.00000  Uiso   1.00
O1368  O     0.84118   0.82546   0.84968   0.00000  Uiso   1.00
O1369  O     0.89226   0.74817   0.58031   0.00000  Uiso   1.00
O1370  O     0.88208   0.67542   0.70505   0.00000  Uiso   1.00
O1371  O     0.87978   0.72084   0.99826   0.00000  Uiso   1.00
O1372  O     0.81126   0.86276   0.58427   0.00000  Uiso   1.00
O1373  O     0.79197   0.77292   0.90468   0.00000  Uiso   1.00
O1374  O     0.68943   0.86582   0.70210   0.00000  Uiso   1.00
O1375  O     0.84597   0.74686   0.78214   0.00000  Uiso   1.00
O1376  O     0.81298   0.92751   0.77014   0.00000  Uiso   1.00
O1377  O     0.74078   0.79958   0.73413   0.00000  Uiso   1.00
O1378  O     0.93360   0.85939   0.71361   0.00000  Uiso   1.00
O1379  O     0.73738   0.85544   0.78213   0.00000  Uiso   1.00
O1380  O     0.92158   0.81892   0.77014   0.00000  Uiso   1.00
O1381  O     0.80426   0.73610   0.73413   0.00000  Uiso   1.00
O1382  O     0.87012   0.92286   0.71361   0.00000  Uiso   1.00
Zn1383 Zn    0.86005   0.80661   0.78734   0.00000  Uiso   1.00
Zn1384 Zn    0.80046   0.79124   0.71876   0.00000  Uiso   1.00
Zn1385 Zn    0.87723   0.86442   0.70657   0.00000  Uiso   1.00
Zn1386 Zn    0.79560   0.87106   0.78734   0.00000  Uiso   1.00
loop_
_geom_bond_atom_site_label_1
_geom_bond_atom_site_label_2
_geom_bond_distance
_geom_bond_site_symmetry_2
_ccdc_geom_bond_type
C1     O68     1.270   .     A
C1     C7      1.439   .     S
C1     O70     1.270   .     A
C2     C27     1.417   .     A
C2     C16     1.415   .     A
C2     O63     1.396   .     S
C3     O60     1.385   .     S
C3     C15     1.396   .     A
C3     C16     1.408   .     A
C4     O69     1.283   .     A
C4     C6      1.463   .     S
C4     O71     1.282   .     A
C5     C17     1.403   .     A
C5     C14     1.470   .     S
C5     C26     1.422   .     A
C6     C84     1.340   .     S
C6     O142    1.387   .     S
C7     C160    1.340   1_455 S
C7     H203    1.086   1_455 S
C8     C11     1.458   .     S
C8     C240    1.336   .     S
C8     O292    1.388   .     S
C9     C10     1.436   .     S
C9     C470    1.336   1_545 S
C9     H515    1.086   1_545 S
C10    O66     1.280   .     A
C10    O72     1.280   .     A
C11    O67     1.273   .     A
C11    O73     1.269   .     A
C12    C23     1.386   .     A
C12    C17     1.383   .     A
C12    H40     1.083   .     S
C13    O56     1.269   .     A
C13    O58     1.270   .     A
C13    C16     1.451   .     S
C14    O59     1.286   .     A
C14    O57     1.280   .     A
C15    C721    1.410   1_554 S
C15    O755    1.384   1_554 S
C17    H38     1.084   .     S
C18    H42     1.114   .     S
C18    O60     1.412   .     S
C18    H48     1.109   .     S
C18    H31     1.109   .     S
C19    H52     1.108   .     S
C19    H50     1.114   .     S
C19    O61     1.410   .     S
C19    H513    1.110   1_545 S
C20    H33     1.109   .     S
C20    H32     1.113   .     S
C20    H34     1.111   .     S
C20    O62     1.410   .     S
C21    H36     1.109   .     S
C21    H35     1.115   .     S
C21    O63     1.415   .     S
C21    H37     1.109   .     S
C22    H41     1.109   .     S
C22    H44     1.113   .     S
C22    H43     1.111   .     S
C22    O64     1.410   .     S
C23    C25     1.413   .     A
C23    H732    1.072   .     S
C24    H45     1.113   .     S
C24    O65     1.410   .     S
C24    H47     1.109   .     S
C24    H200    1.112   1_455 S
C25    C26     1.422   .     A
C25    C720    1.420   .     S
C26    C30     1.419   .     A
C27    C718    1.420   1_554 S
C27    C721    1.416   1_554 S
C28    C29     1.399   .     A
C28    C720    1.416   .     S
C28    C708    1.410   .     S
C29    H54     1.080   .     S
C29    C30     1.410   .     A
C30    O64     1.402   .     S
H39    C716    1.072   1_554 S
H46    C101    1.112   .     S
H49    C84     1.086   .     S
H51    C250    1.110   .     S
H53    C240    1.086   .     S
O55    Zn77    1.933   .     S
O55    Zn74    1.968   .     S
O55    Zn75    1.943   .     S
O55    Zn76    1.931   .     S
O56    Zn75    1.937   .     S
O57    Zn77    1.950   .     S
O58    Zn76    1.943   .     S
O59    Zn74    1.932   .     S
O61    C470    1.388   1_545 S
O62    C708    1.384   .     S
O65    C160    1.387   1_455 S
O66    Zn74    1.924   .     S
O67    Zn77    1.928   .     S
O68    Zn75    1.927   .     S
O69    Zn76    1.940   .     S
O70    Zn77    1.932   .     S
O71    Zn74    1.921   .     S
O72    Zn75    1.937   .     S
O73    Zn76    1.929   .     S
C78    O145    1.270   .     A
C78    C84     1.439   .     S
C78    O147    1.270   .     A
C79    C104    1.417   .     A
C79    C93     1.415   .     A
C79    O140    1.396   .     S
C80    O137    1.385   .     S
C80    C92     1.396   .     A
C80    C93     1.408   .     A
C81    O146    1.283   .     A
C81    C83     1.463   .     S
C81    O148    1.282   .     A
C82    C94     1.403   .     A
C82    C91     1.470   .     S
C82    C103    1.422   .     A
C83    C161    1.340   .     S
C83    O219    1.387   .     S
C85    C88     1.458   .     S
C85    C317    1.336   .     S
C85    O369    1.388   .     S
C86    C87     1.436   .     S
C86    C547    1.336   1_545 S
C86    H592    1.086   1_545 S
C87    O143    1.280   .     A
C87    O149    1.280   .     A
C88    O144    1.273   .     A
C88    O150    1.269   .     A
C89    C100    1.386   .     A
C89    C94     1.383   .     A
C89    H117    1.083   .     S
C90    O133    1.269   .     A
C90    O135    1.270   .     A
C90    C93     1.451   .     S
C91    O136    1.286   .     A
C91    O134    1.280   .     A
C92    C798    1.410   1_554 S
C92    O832    1.384   1_554 S
C94    H115    1.084   .     S
C95    H119    1.114   .     S
C95    O137    1.412   .     S
C95    H125    1.109   .     S
C95    H108    1.109   .     S
C96    H129    1.108   .     S
C96    H127    1.114   .     S
C96    O138    1.410   .     S
C96    H590    1.110   1_545 S
C97    H110    1.109   .     S
C97    H109    1.113   .     S
C97    H111    1.111   .     S
C97    O139    1.410   .     S
C98    H113    1.109   .     S
C98    H112    1.115   .     S
C98    O140    1.415   .     S
C98    H114    1.109   .     S
C99    H118    1.109   .     S
C99    H121    1.113   .     S
C99    H120    1.111   .     S
C99    O141    1.410   .     S
C100   C102    1.413   .     A
C100   H809    1.072   .     S
C101   H122    1.113   .     S
C101   O142    1.410   .     S
C101   H124    1.109   .     S
C102   C103    1.422   .     A
C102   C797    1.420   .     S
C103   C107    1.419   .     A
C104   C795    1.420   1_554 S
C104   C798    1.416   1_554 S
C105   C106    1.399   .     A
C105   C797    1.416   .     S
C105   C785    1.410   .     S
C106   H131    1.080   .     S
C106   C107    1.410   .     A
C107   O141    1.402   .     S
H116   C793    1.072   1_554 S
H123   C178    1.112   .     S
H126   C161    1.086   .     S
H128   C327    1.110   .     S
H130   C317    1.086   .     S
O132   Zn154   1.933   .     S
O132   Zn151   1.968   .     S
O132   Zn152   1.943   .     S
O132   Zn153   1.931   .     S
O133   Zn152   1.937   .     S
O134   Zn154   1.950   .     S
O135   Zn153   1.943   .     S
O136   Zn151   1.932   .     S
O138   C547    1.388   1_545 S
O139   C785    1.384   .     S
O143   Zn151   1.924   .     S
O144   Zn154   1.928   .     S
O145   Zn152   1.927   .     S
O146   Zn153   1.940   .     S
O147   Zn154   1.932   .     S
O148   Zn151   1.921   .     S
O149   Zn152   1.937   .     S
O150   Zn153   1.929   .     S
C155   O222    1.270   .     A
C155   C161    1.439   .     S
C155   O224    1.270   .     A
C156   C181    1.417   .     A
C156   C170    1.415   .     A
C156   O217    1.396   .     S
C157   O214    1.385   .     S
C157   C169    1.396   .     A
C157   C170    1.408   .     A
C158   O223    1.283   .     A
C158   C160    1.463   .     S
C158   O225    1.282   .     A
C159   C171    1.403   .     A
C159   C168    1.470   .     S
C159   C180    1.422   .     A
C160   C7      1.340   1_655 S
C160   O65     1.387   1_655 S
C162   C165    1.458   .     S
C162   C394    1.336   .     S
C162   O446    1.388   .     S
C163   C164    1.436   .     S
C163   C624    1.336   1_545 S
C163   H669    1.086   1_545 S
C164   O220    1.280   .     A
C164   O226    1.280   .     A
C165   O221    1.273   .     A
C165   O227    1.269   .     A
C166   C177    1.386   .     A
C166   C171    1.383   .     A
C166   H194    1.083   .     S
C167   O210    1.269   .     A
C167   O212    1.270   .     A
C167   C170    1.451   .     S
C168   O213    1.286   .     A
C168   O211    1.280   .     A
C169   C875    1.410   1_554 S
C169   O909    1.384   1_554 S
C171   H192    1.084   .     S
C172   H196    1.114   .     S
C172   O214    1.412   .     S
C172   H202    1.109   .     S
C172   H185    1.109   .     S
C173   H206    1.108   .     S
C173   H204    1.114   .     S
C173   O215    1.410   .     S
C173   H667    1.110   1_545 S
C174   H187    1.109   .     S
C174   H186    1.113   .     S
C174   H188    1.111   .     S
C174   O216    1.410   .     S
C175   H190    1.109   .     S
C175   H189    1.115   .     S
C175   O217    1.415   .     S
C175   H191    1.109   .     S
C176   H195    1.109   .     S
C176   H198    1.113   .     S
C176   H197    1.111   .     S
C176   O218    1.410   .     S
C177   C179    1.413   .     A
C177   H886    1.072   .     S
C178   H199    1.113   .     S
C178   O219    1.410   .     S
C178   H201    1.109   .     S
C179   C180    1.422   .     A
C179   C874    1.420   .     S
C180   C184    1.419   .     A
C181   C872    1.420   1_554 S
C181   C875    1.416   1_554 S
C182   C183    1.399   .     A
C182   C874    1.416   .     S
C182   C862    1.410   .     S
C183   H208    1.080   .     S
C183   C184    1.410   .     A
C184   O218    1.402   .     S
H193   C870    1.072   1_554 S
H200   C24     1.112   1_655 S
H203   C7      1.086   1_655 S
H205   C404    1.110   .     S
H207   C394    1.086   .     S
O209   Zn231   1.933   .     S
O209   Zn228   1.968   .     S
O209   Zn229   1.943   .     S
O209   Zn230   1.931   .     S
O210   Zn229   1.937   .     S
O211   Zn231   1.950   .     S
O212   Zn230   1.943   .     S
O213   Zn228   1.932   .     S
O215   C624    1.388   1_545 S
O216   C862    1.384   .     S
O220   Zn228   1.924   .     S
O221   Zn231   1.928   .     S
O222   Zn229   1.927   .     S
O223   Zn230   1.940   .     S
O224   Zn231   1.932   .     S
O225   Zn228   1.921   .     S
O226   Zn229   1.937   .     S
O227   Zn230   1.929   .     S
C232   O299    1.270   .     A
C232   C238    1.439   .     S
C232   O301    1.270   .     A
C233   C258    1.417   .     A
C233   C247    1.415   .     A
C233   O294    1.396   .     S
C234   O291    1.385   .     S
C234   C246    1.396   .     A
C234   C247    1.408   .     A
C235   O300    1.283   .     A
C235   C237    1.463   .     S
C235   O302    1.282   .     A
C236   C248    1.403   .     A
C236   C245    1.470   .     S
C236   C257    1.422   .     A
C237   C315    1.340   .     S
C237   O373    1.387   .     S
C238   C391    1.340   1_455 S
C238   H434    1.086   1_455 S
C239   C242    1.458   .     S
C239   C471    1.336   .     S
C239   O523    1.388   .     S
C240   C241    1.436   .     S
C241   O297    1.280   .     A
C241   O303    1.280   .     A
C242   O298    1.273   .     A
C242   O304    1.269   .     A
C243   C254    1.386   .     A
C243   C248    1.383   .     A
C243   H271    1.083   .     S
C244   O287    1.269   .     A
C244   O289    1.270   .     A
C244   C247    1.451   .     S
C245   O290    1.286   .     A
C245   O288    1.280   .     A
C246   C952    1.410   1_554 S
C246   O986    1.384   1_554 S
C248   H269    1.084   .     S
C249   H273    1.114   .     S
C249   O291    1.412   .     S
C249   H279    1.109   .     S
C249   H262    1.109   .     S
C250   H283    1.108   .     S
C250   H281    1.114   .     S
C250   O292    1.410   .     S
C251   H264    1.109   .     S
C251   H263    1.113   .     S
C251   H265    1.111   .     S
C251   O293    1.410   .     S
C252   H267    1.109   .     S
C252   H266    1.115   .     S
C252   O294    1.415   .     S
C252   H268    1.109   .     S
C253   H272    1.109   .     S
C253   H275    1.113   .     S
C253   H274    1.111   .     S
C253   O295    1.410   .     S
C254   C256    1.413   .     A
C254   H963    1.072   .     S
C255   H276    1.113   .     S
C255   O296    1.410   .     S
C255   H278    1.109   .     S
C255   H431    1.112   1_455 S
C256   C257    1.422   .     A
C256   C951    1.420   .     S
C257   C261    1.419   .     A
C258   C949    1.420   1_554 S
C258   C952    1.416   1_554 S
C259   C260    1.399   .     A
C259   C951    1.416   .     S
C259   C939    1.410   .     S
C260   H285    1.080   .     S
C260   C261    1.410   .     A
C261   O295    1.402   .     S
H270   C947    1.072   1_554 S
H277   C332    1.112   .     S
H280   C315    1.086   .     S
H282   C481    1.110   .     S
H284   C471    1.086   .     S
O286   Zn308   1.933   .     S
O286   Zn305   1.968   .     S
O286   Zn306   1.943   .     S
O286   Zn307   1.931   .     S
O287   Zn306   1.937   .     S
O288   Zn308   1.950   .     S
O289   Zn307   1.943   .     S
O290   Zn305   1.932   .     S
O293   C939    1.384   .     S
O296   C391    1.387   1_455 S
O297   Zn305   1.924   .     S
O298   Zn308   1.928   .     S
O299   Zn306   1.927   .     S
O300   Zn307   1.940   .     S
O301   Zn308   1.932   .     S
O302   Zn305   1.921   .     S
O303   Zn306   1.937   .     S
O304   Zn307   1.929   .     S
C309   O376    1.270   .     A
C309   C315    1.439   .     S
C309   O378    1.270   .     A
C310   C335    1.417   .     A
C310   C324    1.415   .     A
C310   O371    1.396   .     S
C311   O368    1.385   .     S
C311   C323    1.396   .     A
C311   C324    1.408   .     A
C312   O377    1.283   .     A
C312   C314    1.463   .     S
C312   O379    1.282   .     A
C313   C325    1.403   .     A
C313   C322    1.470   .     S
C313   C334    1.422   .     A
C314   C392    1.340   .     S
C314   O450    1.387   .     S
C316   C319    1.458   .     S
C316   C548    1.336   .     S
C316   O600    1.388   .     S
C317   C318    1.436   .     S
C318   O374    1.280   .     A
C318   O380    1.280   .     A
C319   O375    1.273   .     A
C319   O381    1.269   .     A
C320   C331    1.386   .     A
C320   C325    1.383   .     A
C320   H348    1.083   .     S
C321   O364    1.269   .     A
C321   O366    1.270   .     A
C321   C324    1.451   .     S
C322   O367    1.286   .     A
C322   O365    1.280   .     A
C323   C1029   1.410   1_554 S
C323   O1063   1.384   1_554 S
C325   H346    1.084   .     S
C326   H350    1.114   .     S
C326   O368    1.412   .     S
C326   H356    1.109   .     S
C326   H339    1.109   .     S
C327   H360    1.108   .     S
C327   H358    1.114   .     S
C327   O369    1.410   .     S
C328   H341    1.109   .     S
C328   H340    1.113   .     S
C328   H342    1.111   .     S
C328   O370    1.410   .     S
C329   H344    1.109   .     S
C329   H343    1.115   .     S
C329   O371    1.415   .     S
C329   H345    1.109   .     S
C330   H349    1.109   .     S
C330   H352    1.113   .     S
C330   H351    1.111   .     S
C330   O372    1.410   .     S
C331   C333    1.413   .     A
C331   H1040   1.072   .     S
C332   H353    1.113   .     S
C332   O373    1.410   .     S
C332   H355    1.109   .     S
C333   C334    1.422   .     A
C333   C1028   1.420   .     S
C334   C338    1.419   .     A
C335   C1026   1.420   1_554 S
C335   C1029   1.416   1_554 S
C336   C337    1.399   .     A
C336   C1028   1.416   .     S
C336   C1016   1.410   .     S
C337   H362    1.080   .     S
C337   C338    1.410   .     A
C338   O372    1.402   .     S
H347   C1024   1.072   1_554 S
H354   C409    1.112   .     S
H357   C392    1.086   .     S
H359   C558    1.110   .     S
H361   C548    1.086   .     S
O363   Zn385   1.933   .     S
O363   Zn382   1.968   .     S
O363   Zn383   1.943   .     S
O363   Zn384   1.931   .     S
O364   Zn383   1.937   .     S
O365   Zn385   1.950   .     S
O366   Zn384   1.943   .     S
O367   Zn382   1.932   .     S
O370   C1016   1.384   .     S
O374   Zn382   1.924   .     S
O375   Zn385   1.928   .     S
O376   Zn383   1.927   .     S
O377   Zn384   1.940   .     S
O378   Zn385   1.932   .     S
O379   Zn382   1.921   .     S
O380   Zn383   1.937   .     S
O381   Zn384   1.929   .     S
C386   O453    1.270   .     A
C386   C392    1.439   .     S
C386   O455    1.270   .     A
C387   C412    1.417   .     A
C387   C401    1.415   .     A
C387   O448    1.396   .     S
C388   O445    1.385   .     S
C388   C400    1.396   .     A
C388   C401    1.408   .     A
C389   O454    1.283   .     A
C389   C391    1.463   .     S
C389   O456    1.282   .     A
C390   C402    1.403   .     A
C390   C399    1.470   .     S
C390   C411    1.422   .     A
C391   C238    1.340   1_655 S
C391   O296    1.387   1_655 S
C393   C396    1.458   .     S
C393   C625    1.336   .     S
C393   O677    1.388   .     S
C394   C395    1.436   .     S
C395   O451    1.280   .     A
C395   O457    1.280   .     A
C396   O452    1.273   .     A
C396   O458    1.269   .     A
C397   C408    1.386   .     A
C397   C402    1.383   .     A
C397   H425    1.083   .     S
C398   O441    1.269   .     A
C398   O443    1.270   .     A
C398   C401    1.451   .     S
C399   O444    1.286   .     A
C399   O442    1.280   .     A
C400   C1106   1.410   1_554 S
C400   O1140   1.384   1_554 S
C402   H423    1.084   .     S
C403   H427    1.114   .     S
C403   O445    1.412   .     S
C403   H433    1.109   .     S
C403   H416    1.109   .     S
C404   H437    1.108   .     S
C404   H435    1.114   .     S
C404   O446    1.410   .     S
C405   H418    1.109   .     S
C405   H417    1.113   .     S
C405   H419    1.111   .     S
C405   O447    1.410   .     S
C406   H421    1.109   .     S
C406   H420    1.115   .     S
C406   O448    1.415   .     S
C406   H422    1.109   .     S
C407   H426    1.109   .     S
C407   H429    1.113   .     S
C407   H428    1.111   .     S
C407   O449    1.410   .     S
C408   C410    1.413   .     A
C408   H1117   1.072   .     S
C409   H430    1.113   .     S
C409   O450    1.410   .     S
C409   H432    1.109   .     S
C410   C411    1.422   .     A
C410   C1105   1.420   .     S
C411   C415    1.419   .     A
C412   C1103   1.420   1_554 S
C412   C1106   1.416   1_554 S
C413   C414    1.399   .     A
C413   C1105   1.416   .     S
C413   C1093   1.410   .     S
C414   H439    1.080   .     S
C414   C415    1.410   .     A
C415   O449    1.402   .     S
H424   C1101   1.072   1_554 S
H431   C255    1.112   1_655 S
H434   C238    1.086   1_655 S
H436   C635    1.110   .     S
H438   C625    1.086   .     S
O440   Zn462   1.933   .     S
O440   Zn459   1.968   .     S
O440   Zn460   1.943   .     S
O440   Zn461   1.931   .     S
O441   Zn460   1.937   .     S
O442   Zn462   1.950   .     S
O443   Zn461   1.943   .     S
O444   Zn459   1.932   .     S
O447   C1093   1.384   .     S
O451   Zn459   1.924   .     S
O452   Zn462   1.928   .     S
O453   Zn460   1.927   .     S
O454   Zn461   1.940   .     S
O455   Zn462   1.932   .     S
O456   Zn459   1.921   .     S
O457   Zn460   1.937   .     S
O458   Zn461   1.929   .     S
C463   O530    1.270   .     A
C463   C469    1.439   .     S
C463   O532    1.270   .     A
C464   C489    1.417   .     A
C464   C478    1.415   .     A
C464   O525    1.396   .     S
C465   O522    1.385   .     S
C465   C477    1.396   .     A
C465   C478    1.408   .     A
C466   O531    1.283   .     A
C466   C468    1.463   .     S
C466   O533    1.282   .     A
C467   C479    1.403   .     A
C467   C476    1.470   .     S
C467   C488    1.422   .     A
C468   C546    1.340   .     S
C468   O604    1.387   .     S
C469   C622    1.340   1_455 S
C469   H665    1.086   1_455 S
C470   C473    1.458   .     S
C470   C9      1.336   1_565 S
C470   O61     1.388   1_565 S
C471   C472    1.436   .     S
C472   O528    1.280   .     A
C472   O534    1.280   .     A
C473   O529    1.273   .     A
C473   O535    1.269   .     A
C474   C485    1.386   .     A
C474   C479    1.383   .     A
C474   H502    1.083   .     S
C475   O518    1.269   .     A
C475   O520    1.270   .     A
C475   C478    1.451   .     S
C476   O521    1.286   .     A
C476   O519    1.280   .     A
C477   C1183   1.410   1_554 S
C477   O1217   1.384   1_554 S
C479   H500    1.084   .     S
C480   H504    1.114   .     S
C480   O522    1.412   .     S
C480   H510    1.109   .     S
C480   H493    1.109   .     S
C481   H514    1.108   .     S
C481   H512    1.114   .     S
C481   O523    1.410   .     S
C482   H495    1.109   .     S
C482   H494    1.113   .     S
C482   H496    1.111   .     S
C482   O524    1.410   .     S
C483   H498    1.109   .     S
C483   H497    1.115   .     S
C483   O525    1.415   .     S
C483   H499    1.109   .     S
C484   H503    1.109   .     S
C484   H506    1.113   .     S
C484   H505    1.111   .     S
C484   O526    1.410   .     S
C485   C487    1.413   .     A
C485   H1194   1.072   .     S
C486   H507    1.113   .     S
C486   O527    1.410   .     S
C486   H509    1.109   .     S
C486   H662    1.112   1_455 S
C487   C488    1.422   .     A
C487   C1182   1.420   .     S
C488   C492    1.419   .     A
C489   C1180   1.420   1_554 S
C489   C1183   1.416   1_554 S
C490   C491    1.399   .     A
C490   C1182   1.416   .     S
C490   C1170   1.410   .     S
C491   H516    1.080   .     S
C491   C492    1.410   .     A
C492   O526    1.402   .     S
H501   C1178   1.072   1_554 S
H508   C563    1.112   .     S
H511   C546    1.086   .     S
H513   C19     1.110   1_565 S
H515   C9      1.086   1_565 S
O517   Zn539   1.933   .     S
O517   Zn536   1.968   .     S
O517   Zn537   1.943   .     S
O517   Zn538   1.931   .     S
O518   Zn537   1.937   .     S
O519   Zn539   1.950   .     S
O520   Zn538   1.943   .     S
O521   Zn536   1.932   .     S
O524   C1170   1.384   .     S
O527   C622    1.387   1_455 S
O528   Zn536   1.924   .     S
O529   Zn539   1.928   .     S
O530   Zn537   1.927   .     S
O531   Zn538   1.940   .     S
O532   Zn539   1.932   .     S
O533   Zn536   1.921   .     S
O534   Zn537   1.937   .     S
O535   Zn538   1.929   .     S
C540   O607    1.270   .     A
C540   C546    1.439   .     S
C540   O609    1.270   .     A
C541   C566    1.417   .     A
C541   C555    1.415   .     A
C541   O602    1.396   .     S
C542   O599    1.385   .     S
C542   C554    1.396   .     A
C542   C555    1.408   .     A
C543   O608    1.283   .     A
C543   C545    1.463   .     S
C543   O610    1.282   .     A
C544   C556    1.403   .     A
C544   C553    1.470   .     S
C544   C565    1.422   .     A
C545   C623    1.340   .     S
C545   O681    1.387   .     S
C547   C550    1.458   .     S
C547   C86     1.336   1_565 S
C547   O138    1.388   1_565 S
C548   C549    1.436   .     S
C549   O605    1.280   .     A
C549   O611    1.280   .     A
C550   O606    1.273   .     A
C550   O612    1.269   .     A
C551   C562    1.386   .     A
C551   C556    1.383   .     A
C551   H579    1.083   .     S
C552   O595    1.269   .     A
C552   O597    1.270   .     A
C552   C555    1.451   .     S
C553   O598    1.286   .     A
C553   O596    1.280   .     A
C554   C1260   1.410   1_554 S
C554   O1294   1.384   1_554 S
C556   H577    1.084   .     S
C557   H581    1.114   .     S
C557   O599    1.412   .     S
C557   H587    1.109   .     S
C557   H570    1.109   .     S
C558   H591    1.108   .     S
C558   H589    1.114   .     S
C558   O600    1.410   .     S
C559   H572    1.109   .     S
C559   H571    1.113   .     S
C559   H573    1.111   .     S
C559   O601    1.410   .     S
C560   H575    1.109   .     S
C560   H574    1.115   .     S
C560   O602    1.415   .     S
C560   H576    1.109   .     S
C561   H580    1.109   .     S
C561   H583    1.113   .     S
C561   H582    1.111   .     S
C561   O603    1.410   .     S
C562   C564    1.413   .     A
C562   H1271   1.072   .     S
C563   H584    1.113   .     S
C563   O604    1.410   .     S
C563   H586    1.109   .     S
C564   C565    1.422   .     A
C564   C1259   1.420   .     S
C565   C569    1.419   .     A
C566   C1257   1.420   1_554 S
C566   C1260   1.416   1_554 S
C567   C568    1.399   .     A
C567   C1259   1.416   .     S
C567   C1247   1.410   .     S
C568   H593    1.080   .     S
C568   C569    1.410   .     A
C569   O603    1.402   .     S
H578   C1255   1.072   1_554 S
H585   C640    1.112   .     S
H588   C623    1.086   .     S
H590   C96     1.110   1_565 S
H592   C86     1.086   1_565 S
O594   Zn616   1.933   .     S
O594   Zn613   1.968   .     S
O594   Zn614   1.943   .     S
O594   Zn615   1.931   .     S
O595   Zn614   1.937   .     S
O596   Zn616   1.950   .     S
O597   Zn615   1.943   .     S
O598   Zn613   1.932   .     S
O601   C1247   1.384   .     S
O605   Zn613   1.924   .     S
O606   Zn616   1.928   .     S
O607   Zn614   1.927   .     S
O608   Zn615   1.940   .     S
O609   Zn616   1.932   .     S
O610   Zn613   1.921   .     S
O611   Zn614   1.937   .     S
O612   Zn615   1.929   .     S
C617   O684    1.270   .     A
C617   C623    1.439   .     S
C617   O686    1.270   .     A
C618   C643    1.417   .     A
C618   C632    1.415   .     A
C618   O679    1.396   .     S
C619   O676    1.385   .     S
C619   C631    1.396   .     A
C619   C632    1.408   .     A
C620   O685    1.283   .     A
C620   C622    1.463   .     S
C620   O687    1.282   .     A
C621   C633    1.403   .     A
C621   C630    1.470   .     S
C621   C642    1.422   .     A
C622   C469    1.340   1_655 S
C622   O527    1.387   1_655 S
C624   C627    1.458   .     S
C624   C163    1.336   1_565 S
C624   O215    1.388   1_565 S
C625   C626    1.436   .     S
C626   O682    1.280   .     A
C626   O688    1.280   .     A
C627   O683    1.273   .     A
C627   O689    1.269   .     A
C628   C639    1.386   .     A
C628   C633    1.383   .     A
C628   H656    1.083   .     S
C629   O672    1.269   .     A
C629   O674    1.270   .     A
C629   C632    1.451   .     S
C630   O675    1.286   .     A
C630   O673    1.280   .     A
C631   C1337   1.410   1_554 S
C631   O1371   1.384   1_554 S
C633   H654    1.084   .     S
C634   H658    1.114   .     S
C634   O676    1.412   .     S
C634   H664    1.109   .     S
C634   H647    1.109   .     S
C635   H668    1.108   .     S
C635   H666    1.114   .     S
C635   O677    1.410   .     S
C636   H649    1.109   .     S
C636   H648    1.113   .     S
C636   H650    1.111   .     S
C636   O678    1.410   .     S
C637   H652    1.109   .     S
C637   H651    1.115   .     S
C637   O679    1.415   .     S
C637   H653    1.109   .     S
C638   H657    1.109   .     S
C638   H660    1.113   .     S
C638   H659    1.111   .     S
C638   O680    1.410   .     S
C639   C641    1.413   .     A
C639   H1348   1.072   .     S
C640   H661    1.113   .     S
C640   O681    1.410   .     S
C640   H663    1.109   .     S
C641   C642    1.422   .     A
C641   C1336   1.420   .     S
C642   C646    1.419   .     A
C643   C1334   1.420   1_554 S
C643   C1337   1.416   1_554 S
C644   C645    1.399   .     A
C644   C1336   1.416   .     S
C644   C1324   1.410   .     S
C645   H670    1.080   .     S
C645   C646    1.410   .     A
C646   O680    1.402   .     S
H655   C1332   1.072   1_554 S
H662   C486    1.112   1_655 S
H665   C469    1.086   1_655 S
H667   C173    1.110   1_565 S
H669   C163    1.086   1_565 S
O671   Zn693   1.933   .     S
O671   Zn690   1.968   .     S
O671   Zn691   1.943   .     S
O671   Zn692   1.931   .     S
O672   Zn691   1.937   .     S
O673   Zn693   1.950   .     S
O674   Zn692   1.943   .     S
O675   Zn690   1.932   .     S
O678   C1324   1.384   .     S
O682   Zn690   1.924   .     S
O683   Zn693   1.928   .     S
O684   Zn691   1.927   .     S
O685   Zn692   1.940   .     S
O686   Zn693   1.932   .     S
O687   Zn690   1.921   .     S
O688   Zn691   1.937   .     S
O689   Zn692   1.929   .     S
C694   O761    1.270   .     A
C694   C700    1.439   .     S
C694   O763    1.270   .     A
C695   C720    1.417   .     A
C695   C709    1.415   .     A
C695   O756    1.396   .     S
C696   O753    1.385   .     S
C696   C708    1.396   .     A
C696   C709    1.408   .     A
C697   O762    1.283   .     A
C697   C699    1.463   .     S
C697   O764    1.282   .     A
C698   C710    1.403   .     A
C698   C707    1.470   .     S
C698   C719    1.422   .     A
C699   C777    1.340   .     S
C699   O835    1.387   .     S
C700   C853    1.340   1_455 S
C700   H896    1.086   1_455 S
C701   C704    1.458   .     S
C701   C933    1.336   .     S
C701   O985    1.388   .     S
C702   C703    1.436   .     S
C702   C1163   1.336   1_545 S
C702   H1208   1.086   1_545 S
C703   O759    1.280   .     A
C703   O765    1.280   .     A
C704   O760    1.273   .     A
C704   O766    1.269   .     A
C705   C716    1.386   .     A
C705   C710    1.383   .     A
C705   H733    1.083   .     S
C706   O749    1.269   .     A
C706   O751    1.270   .     A
C706   C709    1.451   .     S
C707   O752    1.286   .     A
C707   O750    1.280   .     A
C710   H731    1.084   .     S
C711   H735    1.114   .     S
C711   O753    1.412   .     S
C711   H741    1.109   .     S
C711   H724    1.109   .     S
C712   H745    1.108   .     S
C712   H743    1.114   .     S
C712   O754    1.410   .     S
C712   H1206   1.110   1_545 S
C713   H726    1.109   .     S
C713   H725    1.113   .     S
C713   H727    1.111   .     S
C713   O755    1.410   .     S
C714   H729    1.109   .     S
C714   H728    1.115   .     S
C714   O756    1.415   .     S
C714   H730    1.109   .     S
C715   H734    1.109   .     S
C715   H737    1.113   .     S
C715   H736    1.111   .     S
C715   O757    1.410   .     S
C716   C718    1.413   .     A
C716   H39     1.072   1_556 S
C717   H738    1.113   .     S
C717   O758    1.410   .     S
C717   H740    1.109   .     S
C717   H893    1.112   1_455 S
C718   C719    1.422   .     A
C718   C27     1.420   1_556 S
C719   C723    1.419   .     A
C721   C722    1.399   .     A
C721   C27     1.416   1_556 S
C721   C15     1.410   1_556 S
C722   H747    1.080   .     S
C722   C723    1.410   .     A
C723   O757    1.402   .     S
H739   C794    1.112   .     S
H742   C777    1.086   .     S
H744   C943    1.110   .     S
H746   C933    1.086   .     S
O748   Zn770   1.933   .     S
O748   Zn767   1.968   .     S
O748   Zn768   1.943   .     S
O748   Zn769   1.931   .     S
O749   Zn768   1.937   .     S
O750   Zn770   1.950   .     S
O751   Zn769   1.943   .     S
O752   Zn767   1.932   .     S
O754   C1163   1.388   1_545 S
O755   C15     1.384   1_556 S
O758   C853    1.387   1_455 S
O759   Zn767   1.924   .     S
O760   Zn770   1.928   .     S
O761   Zn768   1.927   .     S
O762   Zn769   1.940   .     S
O763   Zn770   1.932   .     S
O764   Zn767   1.921   .     S
O765   Zn768   1.937   .     S
O766   Zn769   1.929   .     S
C771   O838    1.270   .     A
C771   C777    1.439   .     S
C771   O840    1.270   .     A
C772   C797    1.417   .     A
C772   C786    1.415   .     A
C772   O833    1.396   .     S
C773   O830    1.385   .     S
C773   C785    1.396   .     A
C773   C786    1.408   .     A
C774   O839    1.283   .     A
C774   C776    1.463   .     S
C774   O841    1.282   .     A
C775   C787    1.403   .     A
C775   C784    1.470   .     S
C775   C796    1.422   .     A
C776   C854    1.340   .     S
C776   O912    1.387   .     S
C778   C781    1.458   .     S
C778   C1010   1.336   .     S
C778   O1062   1.388   .     S
C779   C780    1.436   .     S
C779   C1240   1.336   1_545 S
C779   H1285   1.086   1_545 S
C780   O836    1.280   .     A
C780   O842    1.280   .     A
C781   O837    1.273   .     A
C781   O843    1.269   .     A
C782   C793    1.386   .     A
C782   C787    1.383   .     A
C782   H810    1.083   .     S
C783   O826    1.269   .     A
C783   O828    1.270   .     A
C783   C786    1.451   .     S
C784   O829    1.286   .     A
C784   O827    1.280   .     A
C787   H808    1.084   .     S
C788   H812    1.114   .     S
C788   O830    1.412   .     S
C788   H818    1.109   .     S
C788   H801    1.109   .     S
C789   H822    1.108   .     S
C789   H820    1.114   .     S
C789   O831    1.410   .     S
C789   H1283   1.110   1_545 S
C790   H803    1.109   .     S
C790   H802    1.113   .     S
C790   H804    1.111   .     S
C790   O832    1.410   .     S
C791   H806    1.109   .     S
C791   H805    1.115   .     S
C791   O833    1.415   .     S
C791   H807    1.109   .     S
C792   H811    1.109   .     S
C792   H814    1.113   .     S
C792   H813    1.111   .     S
C792   O834    1.410   .     S
C793   C795    1.413   .     A
C793   H116    1.072   1_556 S
C794   H815    1.113   .     S
C794   O835    1.410   .     S
C794   H817    1.109   .     S
C795   C796    1.422   .     A
C795   C104    1.420   1_556 S
C796   C800    1.419   .     A
C798   C799    1.399   .     A
C798   C104    1.416   1_556 S
C798   C92     1.410   1_556 S
C799   H824    1.080   .     S
C799   C800    1.410   .     A
C800   O834    1.402   .     S
H816   C871    1.112   .     S
H819   C854    1.086   .     S
H821   C1020   1.110   .     S
H823   C1010   1.086   .     S
O825   Zn847   1.933   .     S
O825   Zn844   1.968   .     S
O825   Zn845   1.943   .     S
O825   Zn846   1.931   .     S
O826   Zn845   1.937   .     S
O827   Zn847   1.950   .     S
O828   Zn846   1.943   .     S
O829   Zn844   1.932   .     S
O831   C1240   1.388   1_545 S
O832   C92     1.384   1_556 S
O836   Zn844   1.924   .     S
O837   Zn847   1.928   .     S
O838   Zn845   1.927   .     S
O839   Zn846   1.940   .     S
O840   Zn847   1.932   .     S
O841   Zn844   1.921   .     S
O842   Zn845   1.937   .     S
O843   Zn846   1.929   .     S
C848   O915    1.270   .     A
C848   C854    1.439   .     S
C848   O917    1.270   .     A
C849   C874    1.417   .     A
C849   C863    1.415   .     A
C849   O910    1.396   .     S
C850   O907    1.385   .     S
C850   C862    1.396   .     A
C850   C863    1.408   .     A
C851   O916    1.283   .     A
C851   C853    1.463   .     S
C851   O918    1.282   .     A
C852   C864    1.403   .     A
C852   C861    1.470   .     S
C852   C873    1.422   .     A
C853   C700    1.340   1_655 S
C853   O758    1.387   1_655 S
C855   C858    1.458   .     S
C855   C1087   1.336   .     S
C855   O1139   1.388   .     S
C856   C857    1.436   .     S
C856   C1317   1.336   1_545 S
C856   H1362   1.086   1_545 S
C857   O913    1.280   .     A
C857   O919    1.280   .     A
C858   O914    1.273   .     A
C858   O920    1.269   .     A
C859   C870    1.386   .     A
C859   C864    1.383   .     A
C859   H887    1.083   .     S
C860   O903    1.269   .     A
C860   O905    1.270   .     A
C860   C863    1.451   .     S
C861   O906    1.286   .     A
C861   O904    1.280   .     A
C864   H885    1.084   .     S
C865   H889    1.114   .     S
C865   O907    1.412   .     S
C865   H895    1.109   .     S
C865   H878    1.109   .     S
C866   H899    1.108   .     S
C866   H897    1.114   .     S
C866   O908    1.410   .     S
C866   H1360   1.110   1_545 S
C867   H880    1.109   .     S
C867   H879    1.113   .     S
C867   H881    1.111   .     S
C867   O909    1.410   .     S
C868   H883    1.109   .     S
C868   H882    1.115   .     S
C868   O910    1.415   .     S
C868   H884    1.109   .     S
C869   H888    1.109   .     S
C869   H891    1.113   .     S
C869   H890    1.111   .     S
C869   O911    1.410   .     S
C870   C872    1.413   .     A
C870   H193    1.072   1_556 S
C871   H892    1.113   .     S
C871   O912    1.410   .     S
C871   H894    1.109   .     S
C872   C873    1.422   .     A
C872   C181    1.420   1_556 S
C873   C877    1.419   .     A
C875   C876    1.399   .     A
C875   C181    1.416   1_556 S
C875   C169    1.410   1_556 S
C876   H901    1.080   .     S
C876   C877    1.410   .     A
C877   O911    1.402   .     S
H893   C717    1.112   1_655 S
H896   C700    1.086   1_655 S
H898   C1097   1.110   .     S
H900   C1087   1.086   .     S
O902   Zn924   1.933   .     S
O902   Zn921   1.968   .     S
O902   Zn922   1.943   .     S
O902   Zn923   1.931   .     S
O903   Zn922   1.937   .     S
O904   Zn924   1.950   .     S
O905   Zn923   1.943   .     S
O906   Zn921   1.932   .     S
O908   C1317   1.388   1_545 S
O909   C169    1.384   1_556 S
O913   Zn921   1.924   .     S
O914   Zn924   1.928   .     S
O915   Zn922   1.927   .     S
O916   Zn923   1.940   .     S
O917   Zn924   1.932   .     S
O918   Zn921   1.921   .     S
O919   Zn922   1.937   .     S
O920   Zn923   1.929   .     S
C925   O992    1.270   .     A
C925   C931    1.439   .     S
C925   O994    1.270   .     A
C926   C951    1.417   .     A
C926   C940    1.415   .     A
C926   O987    1.396   .     S
C927   O984    1.385   .     S
C927   C939    1.396   .     A
C927   C940    1.408   .     A
C928   O993    1.283   .     A
C928   C930    1.463   .     S
C928   O995    1.282   .     A
C929   C941    1.403   .     A
C929   C938    1.470   .     S
C929   C950    1.422   .     A
C930   C1008   1.340   .     S
C930   O1066   1.387   .     S
C931   C1084   1.340   1_455 S
C931   H1127   1.086   1_455 S
C932   C935    1.458   .     S
C932   C1164   1.336   .     S
C932   O1216   1.388   .     S
C933   C934    1.436   .     S
C934   O990    1.280   .     A
C934   O996    1.280   .     A
C935   O991    1.273   .     A
C935   O997    1.269   .     A
C936   C947    1.386   .     A
C936   C941    1.383   .     A
C936   H964    1.083   .     S
C937   O980    1.269   .     A
C937   O982    1.270   .     A
C937   C940    1.451   .     S
C938   O983    1.286   .     A
C938   O981    1.280   .     A
C941   H962    1.084   .     S
C942   H966    1.114   .     S
C942   O984    1.412   .     S
C942   H972    1.109   .     S
C942   H955    1.109   .     S
C943   H976    1.108   .     S
C943   H974    1.114   .     S
C943   O985    1.410   .     S
C944   H957    1.109   .     S
C944   H956    1.113   .     S
C944   H958    1.111   .     S
C944   O986    1.410   .     S
C945   H960    1.109   .     S
C945   H959    1.115   .     S
C945   O987    1.415   .     S
C945   H961    1.109   .     S
C946   H965    1.109   .     S
C946   H968    1.113   .     S
C946   H967    1.111   .     S
C946   O988    1.410   .     S
C947   C949    1.413   .     A
C947   H270    1.072   1_556 S
C948   H969    1.113   .     S
C948   O989    1.410   .     S
C948   H971    1.109   .     S
C948   H1124   1.112   1_455 S
C949   C950    1.422   .     A
C949   C258    1.420   1_556 S
C950   C954    1.419   .     A
C952   C953    1.399   .     A
C952   C258    1.416   1_556 S
C952   C246    1.410   1_556 S
C953   H978    1.080   .     S
C953   C954    1.410   .     A
C954   O988    1.402   .     S
H970   C1025   1.112   .     S
H973   C1008   1.086   .     S
H975   C1174   1.110   .     S
H977   C1164   1.086   .     S
O979   Zn1001  1.933   .     S
O979   Zn998   1.968   .     S
O979   Zn999   1.943   .     S
O979   Zn1000  1.931   .     S
O980   Zn999   1.937   .     S
O981   Zn1001  1.950   .     S
O982   Zn1000  1.943   .     S
O983   Zn998   1.932   .     S
O986   C246    1.384   1_556 S
O989   C1084   1.387   1_455 S
O990   Zn998   1.924   .     S
O991   Zn1001  1.928   .     S
O992   Zn999   1.927   .     S
O993   Zn1000  1.940   .     S
O994   Zn1001  1.932   .     S
O995   Zn998   1.921   .     S
O996   Zn999   1.937   .     S
O997   Zn1000  1.929   .     S
C1002  O1069   1.270   .     A
C1002  C1008   1.439   .     S
C1002  O1071   1.270   .     A
C1003  C1028   1.417   .     A
C1003  C1017   1.415   .     A
C1003  O1064   1.396   .     S
C1004  O1061   1.385   .     S
C1004  C1016   1.396   .     A
C1004  C1017   1.408   .     A
C1005  O1070   1.283   .     A
C1005  C1007   1.463   .     S
C1005  O1072   1.282   .     A
C1006  C1018   1.403   .     A
C1006  C1015   1.470   .     S
C1006  C1027   1.422   .     A
C1007  C1085   1.340   .     S
C1007  O1143   1.387   .     S
C1009  C1012   1.458   .     S
C1009  C1241   1.336   .     S
C1009  O1293   1.388   .     S
C1010  C1011   1.436   .     S
C1011  O1067   1.280   .     A
C1011  O1073   1.280   .     A
C1012  O1068   1.273   .     A
C1012  O1074   1.269   .     A
C1013  C1024   1.386   .     A
C1013  C1018   1.383   .     A
C1013  H1041   1.083   .     S
C1014  O1057   1.269   .     A
C1014  O1059   1.270   .     A
C1014  C1017   1.451   .     S
C1015  O1060   1.286   .     A
C1015  O1058   1.280   .     A
C1018  H1039   1.084   .     S
C1019  H1043   1.114   .     S
C1019  O1061   1.412   .     S
C1019  H1049   1.109   .     S
C1019  H1032   1.109   .     S
C1020  H1053   1.108   .     S
C1020  H1051   1.114   .     S
C1020  O1062   1.410   .     S
C1021  H1034   1.109   .     S
C1021  H1033   1.113   .     S
C1021  H1035   1.111   .     S
C1021  O1063   1.410   .     S
C1022  H1037   1.109   .     S
C1022  H1036   1.115   .     S
C1022  O1064   1.415   .     S
C1022  H1038   1.109   .     S
C1023  H1042   1.109   .     S
C1023  H1045   1.113   .     S
C1023  H1044   1.111   .     S
C1023  O1065   1.410   .     S
C1024  C1026   1.413   .     A
C1024  H347    1.072   1_556 S
C1025  H1046   1.113   .     S
C1025  O1066   1.410   .     S
C1025  H1048   1.109   .     S
C1026  C1027   1.422   .     A
C1026  C335    1.420   1_556 S
C1027  C1031   1.419   .     A
C1029  C1030   1.399   .     A
C1029  C335    1.416   1_556 S
C1029  C323    1.410   1_556 S
C1030  H1055   1.080   .     S
C1030  C1031   1.410   .     A
C1031  O1065   1.402   .     S
H1047  C1102   1.112   .     S
H1050  C1085   1.086   .     S
H1052  C1251   1.110   .     S
H1054  C1241   1.086   .     S
O1056  Zn1078  1.933   .     S
O1056  Zn1075  1.968   .     S
O1056  Zn1076  1.943   .     S
O1056  Zn1077  1.931   .     S
O1057  Zn1076  1.937   .     S
O1058  Zn1078  1.950   .     S
O1059  Zn1077  1.943   .     S
O1060  Zn1075  1.932   .     S
O1063  C323    1.384   1_556 S
O1067  Zn1075  1.924   .     S
O1068  Zn1078  1.928   .     S
O1069  Zn1076  1.927   .     S
O1070  Zn1077  1.940   .     S
O1071  Zn1078  1.932   .     S
O1072  Zn1075  1.921   .     S
O1073  Zn1076  1.937   .     S
O1074  Zn1077  1.929   .     S
C1079  O1146   1.270   .     A
C1079  C1085   1.439   .     S
C1079  O1148   1.270   .     A
C1080  C1105   1.417   .     A
C1080  C1094   1.415   .     A
C1080  O1141   1.396   .     S
C1081  O1138   1.385   .     S
C1081  C1093   1.396   .     A
C1081  C1094   1.408   .     A
C1082  O1147   1.283   .     A
C1082  C1084   1.463   .     S
C1082  O1149   1.282   .     A
C1083  C1095   1.403   .     A
C1083  C1092   1.470   .     S
C1083  C1104   1.422   .     A
C1084  C931    1.340   1_655 S
C1084  O989    1.387   1_655 S
C1086  C1089   1.458   .     S
C1086  C1318   1.336   .     S
C1086  O1370   1.388   .     S
C1087  C1088   1.436   .     S
C1088  O1144   1.280   .     A
C1088  O1150   1.280   .     A
C1089  O1145   1.273   .     A
C1089  O1151   1.269   .     A
C1090  C1101   1.386   .     A
C1090  C1095   1.383   .     A
C1090  H1118   1.083   .     S
C1091  O1134   1.269   .     A
C1091  O1136   1.270   .     A
C1091  C1094   1.451   .     S
C1092  O1137   1.286   .     A
C1092  O1135   1.280   .     A
C1095  H1116   1.084   .     S
C1096  H1120   1.114   .     S
C1096  O1138   1.412   .     S
C1096  H1126   1.109   .     S
C1096  H1109   1.109   .     S
C1097  H1130   1.108   .     S
C1097  H1128   1.114   .     S
C1097  O1139   1.410   .     S
C1098  H1111   1.109   .     S
C1098  H1110   1.113   .     S
C1098  H1112   1.111   .     S
C1098  O1140   1.410   .     S
C1099  H1114   1.109   .     S
C1099  H1113   1.115   .     S
C1099  O1141   1.415   .     S
C1099  H1115   1.109   .     S
C1100  H1119   1.109   .     S
C1100  H1122   1.113   .     S
C1100  H1121   1.111   .     S
C1100  O1142   1.410   .     S
C1101  C1103   1.413   .     A
C1101  H424    1.072   1_556 S
C1102  H1123   1.113   .     S
C1102  O1143   1.410   .     S
C1102  H1125   1.109   .     S
C1103  C1104   1.422   .     A
C1103  C412    1.420   1_556 S
C1104  C1108   1.419   .     A
C1106  C1107   1.399   .     A
C1106  C412    1.416   1_556 S
C1106  C400    1.410   1_556 S
C1107  H1132   1.080   .     S
C1107  C1108   1.410   .     A
C1108  O1142   1.402   .     S
H1124  C948    1.112   1_655 S
H1127  C931    1.086   1_655 S
H1129  C1328   1.110   .     S
H1131  C1318   1.086   .     S
O1133  Zn1155  1.933   .     S
O1133  Zn1152  1.968   .     S
O1133  Zn1153  1.943   .     S
O1133  Zn1154  1.931   .     S
O1134  Zn1153  1.937   .     S
O1135  Zn1155  1.950   .     S
O1136  Zn1154  1.943   .     S
O1137  Zn1152  1.932   .     S
O1140  C400    1.384   1_556 S
O1144  Zn1152  1.924   .     S
O1145  Zn1155  1.928   .     S
O1146  Zn1153  1.927   .     S
O1147  Zn1154  1.940   .     S
O1148  Zn1155  1.932   .     S
O1149  Zn1152  1.921   .     S
O1150  Zn1153  1.937   .     S
O1151  Zn1154  1.929   .     S
C1156  O1223   1.270   .     A
C1156  C1162   1.439   .     S
C1156  O1225   1.270   .     A
C1157  C1182   1.417   .     A
C1157  C1171   1.415   .     A
C1157  O1218   1.396   .     S
C1158  O1215   1.385   .     S
C1158  C1170   1.396   .     A
C1158  C1171   1.408   .     A
C1159  O1224   1.283   .     A
C1159  C1161   1.463   .     S
C1159  O1226   1.282   .     A
C1160  C1172   1.403   .     A
C1160  C1169   1.470   .     S
C1160  C1181   1.422   .     A
C1161  C1239   1.340   .     S
C1161  O1297   1.387   .     S
C1162  C1315   1.340   1_455 S
C1162  H1358   1.086   1_455 S
C1163  C1166   1.458   .     S
C1163  C702    1.336   1_565 S
C1163  O754    1.388   1_565 S
C1164  C1165   1.436   .     S
C1165  O1221   1.280   .     A
C1165  O1227   1.280   .     A
C1166  O1222   1.273   .     A
C1166  O1228   1.269   .     A
C1167  C1178   1.386   .     A
C1167  C1172   1.383   .     A
C1167  H1195   1.083   .     S
C1168  O1211   1.269   .     A
C1168  O1213   1.270   .     A
C1168  C1171   1.451   .     S
C1169  O1214   1.286   .     A
C1169  O1212   1.280   .     A
C1172  H1193   1.084   .     S
C1173  H1197   1.114   .     S
C1173  O1215   1.412   .     S
C1173  H1203   1.109   .     S
C1173  H1186   1.109   .     S
C1174  H1207   1.108   .     S
C1174  H1205   1.114   .     S
C1174  O1216   1.410   .     S
C1175  H1188   1.109   .     S
C1175  H1187   1.113   .     S
C1175  H1189   1.111   .     S
C1175  O1217   1.410   .     S
C1176  H1191   1.109   .     S
C1176  H1190   1.115   .     S
C1176  O1218   1.415   .     S
C1176  H1192   1.109   .     S
C1177  H1196   1.109   .     S
C1177  H1199   1.113   .     S
C1177  H1198   1.111   .     S
C1177  O1219   1.410   .     S
C1178  C1180   1.413   .     A
C1178  H501    1.072   1_556 S
C1179  H1200   1.113   .     S
C1179  O1220   1.410   .     S
C1179  H1202   1.109   .     S
C1179  H1355   1.112   1_455 S
C1180  C1181   1.422   .     A
C1180  C489    1.420   1_556 S
C1181  C1185   1.419   .     A
C1183  C1184   1.399   .     A
C1183  C489    1.416   1_556 S
C1183  C477    1.410   1_556 S
C1184  H1209   1.080   .     S
C1184  C1185   1.410   .     A
C1185  O1219   1.402   .     S
H1201  C1256   1.112   .     S
H1204  C1239   1.086   .     S
H1206  C712    1.110   1_565 S
H1208  C702    1.086   1_565 S
O1210  Zn1232  1.933   .     S
O1210  Zn1229  1.968   .     S
O1210  Zn1230  1.943   .     S
O1210  Zn1231  1.931   .     S
O1211  Zn1230  1.937   .     S
O1212  Zn1232  1.950   .     S
O1213  Zn1231  1.943   .     S
O1214  Zn1229  1.932   .     S
O1217  C477    1.384   1_556 S
O1220  C1315   1.387   1_455 S
O1221  Zn1229  1.924   .     S
O1222  Zn1232  1.928   .     S
O1223  Zn1230  1.927   .     S
O1224  Zn1231  1.940   .     S
O1225  Zn1232  1.932   .     S
O1226  Zn1229  1.921   .     S
O1227  Zn1230  1.937   .     S
O1228  Zn1231  1.929   .     S
C1233  O1300   1.270   .     A
C1233  C1239   1.439   .     S
C1233  O1302   1.270   .     A
C1234  C1259   1.417   .     A
C1234  C1248   1.415   .     A
C1234  O1295   1.396   .     S
C1235  O1292   1.385   .     S
C1235  C1247   1.396   .     A
C1235  C1248   1.408   .     A
C1236  O1301   1.283   .     A
C1236  C1238   1.463   .     S
C1236  O1303   1.282   .     A
C1237  C1249   1.403   .     A
C1237  C1246   1.470   .     S
C1237  C1258   1.422   .     A
C1238  C1316   1.340   .     S
C1238  O1374   1.387   .     S
C1240  C1243   1.458   .     S
C1240  C779    1.336   1_565 S
C1240  O831    1.388   1_565 S
C1241  C1242   1.436   .     S
C1242  O1298   1.280   .     A
C1242  O1304   1.280   .     A
C1243  O1299   1.273   .     A
C1243  O1305   1.269   .     A
C1244  C1255   1.386   .     A
C1244  C1249   1.383   .     A
C1244  H1272   1.083   .     S
C1245  O1288   1.269   .     A
C1245  O1290   1.270   .     A
C1245  C1248   1.451   .     S
C1246  O1291   1.286   .     A
C1246  O1289   1.280   .     A
C1249  H1270   1.084   .     S
C1250  H1274   1.114   .     S
C1250  O1292   1.412   .     S
C1250  H1280   1.109   .     S
C1250  H1263   1.109   .     S
C1251  H1284   1.108   .     S
C1251  H1282   1.114   .     S
C1251  O1293   1.410   .     S
C1252  H1265   1.109   .     S
C1252  H1264   1.113   .     S
C1252  H1266   1.111   .     S
C1252  O1294   1.410   .     S
C1253  H1268   1.109   .     S
C1253  H1267   1.115   .     S
C1253  O1295   1.415   .     S
C1253  H1269   1.109   .     S
C1254  H1273   1.109   .     S
C1254  H1276   1.113   .     S
C1254  H1275   1.111   .     S
C1254  O1296   1.410   .     S
C1255  C1257   1.413   .     A
C1255  H578    1.072   1_556 S
C1256  H1277   1.113   .     S
C1256  O1297   1.410   .     S
C1256  H1279   1.109   .     S
C1257  C1258   1.422   .     A
C1257  C566    1.420   1_556 S
C1258  C1262   1.419   .     A
C1260  C1261   1.399   .     A
C1260  C566    1.416   1_556 S
C1260  C554    1.410   1_556 S
C1261  H1286   1.080   .     S
C1261  C1262   1.410   .     A
C1262  O1296   1.402   .     S
H1278  C1333   1.112   .     S
H1281  C1316   1.086   .     S
H1283  C789    1.110   1_565 S
H1285  C779    1.086   1_565 S
O1287  Zn1309  1.933   .     S
O1287  Zn1306  1.968   .     S
O1287  Zn1307  1.943   .     S
O1287  Zn1308  1.931   .     S
O1288  Zn1307  1.937   .     S
O1289  Zn1309  1.950   .     S
O1290  Zn1308  1.943   .     S
O1291  Zn1306  1.932   .     S
O1294  C554    1.384   1_556 S
O1298  Zn1306  1.924   .     S
O1299  Zn1309  1.928   .     S
O1300  Zn1307  1.927   .     S
O1301  Zn1308  1.940   .     S
O1302  Zn1309  1.932   .     S
O1303  Zn1306  1.921   .     S
O1304  Zn1307  1.937   .     S
O1305  Zn1308  1.929   .     S
C1310  O1377   1.270   .     A
C1310  C1316   1.439   .     S
C1310  O1379   1.270   .     A
C1311  C1336   1.417   .     A
C1311  C1325   1.415   .     A
C1311  O1372   1.396   .     S
C1312  O1369   1.385   .     S
C1312  C1324   1.396   .     A
C1312  C1325   1.408   .     A
C1313  O1378   1.283   .     A
C1313  C1315   1.463   .     S
C1313  O1380   1.282   .     A
C1314  C1326   1.403   .     A
C1314  C1323   1.470   .     S
C1314  C1335   1.422   .     A
C1315  C1162   1.340   1_655 S
C1315  O1220   1.387   1_655 S
C1317  C1320   1.458   .     S
C1317  C856    1.336   1_565 S
C1317  O908    1.388   1_565 S
C1318  C1319   1.436   .     S
C1319  O1375   1.280   .     A
C1319  O1381   1.280   .     A
C1320  O1376   1.273   .     A
C1320  O1382   1.269   .     A
C1321  C1332   1.386   .     A
C1321  C1326   1.383   .     A
C1321  H1349   1.083   .     S
C1322  O1365   1.269   .     A
C1322  O1367   1.270   .     A
C1322  C1325   1.451   .     S
C1323  O1368   1.286   .     A
C1323  O1366   1.280   .     A
C1326  H1347   1.084   .     S
C1327  H1351   1.114   .     S
C1327  O1369   1.412   .     S
C1327  H1357   1.109   .     S
C1327  H1340   1.109   .     S
C1328  H1361   1.108   .     S
C1328  H1359   1.114   .     S
C1328  O1370   1.410   .     S
C1329  H1342   1.109   .     S
C1329  H1341   1.113   .     S
C1329  H1343   1.111   .     S
C1329  O1371   1.410   .     S
C1330  H1345   1.109   .     S
C1330  H1344   1.115   .     S
C1330  O1372   1.415   .     S
C1330  H1346   1.109   .     S
C1331  H1350   1.109   .     S
C1331  H1353   1.113   .     S
C1331  H1352   1.111   .     S
C1331  O1373   1.410   .     S
C1332  C1334   1.413   .     A
C1332  H655    1.072   1_556 S
C1333  H1354   1.113   .     S
C1333  O1374   1.410   .     S
C1333  H1356   1.109   .     S
C1334  C1335   1.422   .     A
C1334  C643    1.420   1_556 S
C1335  C1339   1.419   .     A
C1337  C1338   1.399   .     A
C1337  C643    1.416   1_556 S
C1337  C631    1.410   1_556 S
C1338  H1363   1.080   .     S
C1338  C1339   1.410   .     A
C1339  O1373   1.402   .     S
H1355  C1179   1.112   1_655 S
H1358  C1162   1.086   1_655 S
H1360  C866    1.110   1_565 S
H1362  C856    1.086   1_565 S
O1364  Zn1386  1.933   .     S
O1364  Zn1383  1.968   .     S
O1364  Zn1384  1.943   .     S
O1364  Zn1385  1.931   .     S
O1365  Zn1384  1.937   .     S
O1366  Zn1386  1.950   .     S
O1367  Zn1385  1.943   .     S
O1368  Zn1383  1.932   .     S
O1371  C631    1.384   1_556 S
O1375  Zn1383  1.924   .     S
O1376  Zn1386  1.928   .     S
O1377  Zn1384  1.927   .     S
O1378  Zn1385  1.940   .     S
O1379  Zn1386  1.932   .     S
O1380  Zn1383  1.921   .     S
O1381  Zn1384  1.937   .     S
O1382  Zn1385  1.929   .     S
