data_str_m2_o2_o5_pcu_sym.37
_audit_creation_date              2020-01-03
_audit_creation_method            'Materials Studio'
_symmetry_space_group_name_H-M    'P1'
_symmetry_Int_Tables_number       1
_symmetry_cell_setting            triclinic
loop_
_symmetry_equiv_pos_as_xyz
  x,y,z
_cell_length_a                    30.1069
_cell_length_b                    27.9308
_cell_length_c                    27.3780
_cell_angle_alpha                 90.0000
_cell_angle_beta                  92.6180
_cell_angle_gamma                 90.0001
loop_
_atom_site_label
_atom_site_type_symbol
_atom_site_fract_x
_atom_site_fract_y
_atom_site_fract_z
_atom_site_U_iso_or_equiv
_atom_site_adp_type
_atom_site_occupancy
C1     C     0.16501   0.24987   0.17110   0.00000  Uiso   1.00
C2     C     0.28846   0.44576   0.18088   0.00000  Uiso   1.00
C3     C     0.24987   0.25000   0.07355   0.00000  Uiso   1.00
C4     C     0.25013   0.25000   0.25978   0.00000  Uiso   1.00
C5     C     0.25000   0.02737   0.16667   0.00000  Uiso   1.00
C6     C     0.25000   0.47268   0.16667   0.00000  Uiso   1.00
C7     C     0.24996   0.25000   0.02182   0.00000  Uiso   1.00
C8     C     0.25004   0.25000   0.31151   0.00000  Uiso   1.00
C9     C     0.04660   0.29126   0.19046   0.00000  Uiso   1.00
C10    C     0.45311   0.20622   0.14526   0.00000  Uiso   1.00
C11    C     0.45340   0.29126   0.14287   0.00000  Uiso   1.00
C12    C     0.33499   0.24987   0.16223   0.00000  Uiso   1.00
C13    C     0.04689   0.20622   0.18807   0.00000  Uiso   1.00
C14    C     0.09326   0.29206   0.19041   0.00000  Uiso   1.00
C15    C     0.40672   0.20540   0.14742   0.00000  Uiso   1.00
C16    C     0.40674   0.29206   0.14293   0.00000  Uiso   1.00
C17    C     0.09328   0.20540   0.18591   0.00000  Uiso   1.00
C18    C     0.11666   0.24923   0.18054   0.00000  Uiso   1.00
C19    C     0.38334   0.24923   0.15279   0.00000  Uiso   1.00
C20    C     0.02378   0.24892   0.17669   0.00000  Uiso   1.00
C21    C     0.47622   0.24892   0.15665   0.00000  Uiso   1.00
C22    C     0.26632   0.01981   0.27751   0.00000  Uiso   1.00
C23    C     0.27542   0.10442   0.20086   0.00000  Uiso   1.00
C24    C     0.15202   0.47808   0.18840   0.00000  Uiso   1.00
C25    C     0.23369   0.01981   0.05582   0.00000  Uiso   1.00
C26    C     0.34798   0.47808   0.14494   0.00000  Uiso   1.00
C27    C     0.21521   0.39597   0.14522   0.00000  Uiso   1.00
C28    C     0.22458   0.10442   0.13248   0.00000  Uiso   1.00
C29    C     0.28479   0.39597   0.18811   0.00000  Uiso   1.00
C30    C     0.27351   0.05405   0.20352   0.00000  Uiso   1.00
C31    C     0.21154   0.44576   0.15246   0.00000  Uiso   1.00
C32    C     0.22650   0.05405   0.12981   0.00000  Uiso   1.00
Cl33   Cl    0.31175   0.13399   0.24309   0.00000  Uiso   1.00
Cl34   Cl    0.37984   0.14941   0.13841   0.00000  Uiso   1.00
Cl35   Cl    0.37909   0.34529   0.12413   0.00000  Uiso   1.00
Cl36   Cl    0.12016   0.14941   0.19492   0.00000  Uiso   1.00
Cl37   Cl    0.17545   0.36872   0.10515   0.00000  Uiso   1.00
Cl38   Cl    0.18825   0.13399   0.09024   0.00000  Uiso   1.00
Cl39   Cl    0.32455   0.36872   0.22818   0.00000  Uiso   1.00
Cl40   Cl    0.01861   0.33791   0.22043   0.00000  Uiso   1.00
Cl41   Cl    0.47957   0.15933   0.11394   0.00000  Uiso   1.00
Cl42   Cl    0.48139   0.33791   0.11290   0.00000  Uiso   1.00
Cl43   Cl    0.02043   0.15933   0.21939   0.00000  Uiso   1.00
Cl44   Cl    0.12091   0.34529   0.20920   0.00000  Uiso   1.00
Cu45   Cu    0.25000   0.29821   0.16667   0.00000  Uiso   1.00
Cu46   Cu    0.25000   0.20178   0.16667   0.00000  Uiso   1.00
H47    H     0.24199   0.49234   0.26409   0.00000  Uiso   1.00
H48    H     0.32982   0.00795   0.12613   0.00000  Uiso   1.00
H49    H     0.34877   0.44630   0.12045   0.00000  Uiso   1.00
H50    H     0.38281   0.48998   0.15218   0.00000  Uiso   1.00
H51    H     0.24856   0.05219   0.29011   0.00000  Uiso   1.00
H52    H     0.28548   0.00418   0.30916   0.00000  Uiso   1.00
H53    H     0.17018   0.00796   0.20720   0.00000  Uiso   1.00
H54    H     0.15123   0.44630   0.21288   0.00000  Uiso   1.00
H55    H     0.11719   0.48998   0.18115   0.00000  Uiso   1.00
H56    H     0.25800   0.49232   0.06924   0.00000  Uiso   1.00
H57    H     0.25146   0.05218   0.04323   0.00000  Uiso   1.00
H58    H     0.21452   0.00418   0.02417   0.00000  Uiso   1.00
N59    N     0.25000   0.12934   0.16667   0.00000  Uiso   1.00
N60    N     0.25000   0.37065   0.16667   0.00000  Uiso   1.00
O61    O     0.18573   0.29071   0.16667   0.00000  Uiso   1.00
O62    O     0.17054   0.46706   0.14334   0.00000  Uiso   1.00
O63    O     0.20350   0.03165   0.09153   0.00000  Uiso   1.00
O64    O     0.32947   0.46706   0.18999   0.00000  Uiso   1.00
O65    O     0.31427   0.20928   0.16666   0.00000  Uiso   1.00
O66    O     0.31427   0.29071   0.16666   0.00000  Uiso   1.00
O67    O     0.18573   0.20928   0.16667   0.00000  Uiso   1.00
O68    O     0.25000   0.29071   0.09613   0.00000  Uiso   1.00
O69    O     0.25000   0.20929   0.23720   0.00000  Uiso   1.00
O70    O     0.25000   0.29071   0.23720   0.00000  Uiso   1.00
O71    O     0.25000   0.20929   0.09613   0.00000  Uiso   1.00
O72    O     0.29650   0.03165   0.24181   0.00000  Uiso   1.00
C73    C     0.66501   0.24987   0.17110   0.00000  Uiso   1.00
C74    C     0.78846   0.44576   0.18088   0.00000  Uiso   1.00
C75    C     0.74987   0.25000   0.07355   0.00000  Uiso   1.00
C76    C     0.75013   0.25000   0.25978   0.00000  Uiso   1.00
C77    C     0.75000   0.02737   0.16667   0.00000  Uiso   1.00
C78    C     0.75000   0.47268   0.16667   0.00000  Uiso   1.00
C79    C     0.74996   0.25000   0.02182   0.00000  Uiso   1.00
C80    C     0.75004   0.25000   0.31151   0.00000  Uiso   1.00
C81    C     0.54660   0.29126   0.19046   0.00000  Uiso   1.00
C82    C     0.95311   0.20622   0.14526   0.00000  Uiso   1.00
C83    C     0.95340   0.29126   0.14287   0.00000  Uiso   1.00
C84    C     0.83499   0.24987   0.16223   0.00000  Uiso   1.00
C85    C     0.54689   0.20622   0.18807   0.00000  Uiso   1.00
C86    C     0.59326   0.29206   0.19041   0.00000  Uiso   1.00
C87    C     0.90672   0.20540   0.14742   0.00000  Uiso   1.00
C88    C     0.90674   0.29206   0.14293   0.00000  Uiso   1.00
C89    C     0.59328   0.20540   0.18591   0.00000  Uiso   1.00
C90    C     0.61666   0.24923   0.18054   0.00000  Uiso   1.00
C91    C     0.88334   0.24923   0.15279   0.00000  Uiso   1.00
C92    C     0.52378   0.24892   0.17669   0.00000  Uiso   1.00
C93    C     0.97622   0.24892   0.15665   0.00000  Uiso   1.00
C94    C     0.76632   0.01981   0.27751   0.00000  Uiso   1.00
C95    C     0.77542   0.10442   0.20086   0.00000  Uiso   1.00
C96    C     0.65202   0.47808   0.18840   0.00000  Uiso   1.00
C97    C     0.73369   0.01981   0.05582   0.00000  Uiso   1.00
C98    C     0.84798   0.47808   0.14494   0.00000  Uiso   1.00
C99    C     0.71521   0.39597   0.14522   0.00000  Uiso   1.00
C100   C     0.72458   0.10442   0.13248   0.00000  Uiso   1.00
C101   C     0.78479   0.39597   0.18811   0.00000  Uiso   1.00
C102   C     0.77351   0.05405   0.20352   0.00000  Uiso   1.00
C103   C     0.71154   0.44576   0.15246   0.00000  Uiso   1.00
C104   C     0.72650   0.05405   0.12981   0.00000  Uiso   1.00
Cl105  Cl    0.81175   0.13399   0.24309   0.00000  Uiso   1.00
Cl106  Cl    0.87984   0.14941   0.13841   0.00000  Uiso   1.00
Cl107  Cl    0.87909   0.34529   0.12413   0.00000  Uiso   1.00
Cl108  Cl    0.62016   0.14941   0.19492   0.00000  Uiso   1.00
Cl109  Cl    0.67545   0.36872   0.10515   0.00000  Uiso   1.00
Cl110  Cl    0.68825   0.13399   0.09024   0.00000  Uiso   1.00
Cl111  Cl    0.82455   0.36872   0.22818   0.00000  Uiso   1.00
Cl112  Cl    0.51861   0.33791   0.22043   0.00000  Uiso   1.00
Cl113  Cl    0.97957   0.15933   0.11394   0.00000  Uiso   1.00
Cl114  Cl    0.98139   0.33791   0.11290   0.00000  Uiso   1.00
Cl115  Cl    0.52043   0.15933   0.21939   0.00000  Uiso   1.00
Cl116  Cl    0.62091   0.34529   0.20920   0.00000  Uiso   1.00
Cu117  Cu    0.75000   0.29821   0.16667   0.00000  Uiso   1.00
Cu118  Cu    0.75000   0.20178   0.16667   0.00000  Uiso   1.00
H119   H     0.74199   0.49234   0.26409   0.00000  Uiso   1.00
H120   H     0.82982   0.00795   0.12613   0.00000  Uiso   1.00
H121   H     0.84877   0.44630   0.12045   0.00000  Uiso   1.00
H122   H     0.88281   0.48998   0.15218   0.00000  Uiso   1.00
H123   H     0.74856   0.05219   0.29011   0.00000  Uiso   1.00
H124   H     0.78548   0.00418   0.30916   0.00000  Uiso   1.00
H125   H     0.67018   0.00796   0.20720   0.00000  Uiso   1.00
H126   H     0.65123   0.44630   0.21288   0.00000  Uiso   1.00
H127   H     0.61719   0.48998   0.18115   0.00000  Uiso   1.00
H128   H     0.75800   0.49232   0.06924   0.00000  Uiso   1.00
H129   H     0.75146   0.05218   0.04323   0.00000  Uiso   1.00
H130   H     0.71452   0.00418   0.02417   0.00000  Uiso   1.00
N131   N     0.75000   0.12934   0.16667   0.00000  Uiso   1.00
N132   N     0.75000   0.37065   0.16667   0.00000  Uiso   1.00
O133   O     0.68573   0.29071   0.16667   0.00000  Uiso   1.00
O134   O     0.67054   0.46706   0.14334   0.00000  Uiso   1.00
O135   O     0.70350   0.03165   0.09153   0.00000  Uiso   1.00
O136   O     0.82947   0.46706   0.18999   0.00000  Uiso   1.00
O137   O     0.81427   0.20928   0.16666   0.00000  Uiso   1.00
O138   O     0.81427   0.29071   0.16666   0.00000  Uiso   1.00
O139   O     0.68573   0.20928   0.16667   0.00000  Uiso   1.00
O140   O     0.75000   0.29071   0.09613   0.00000  Uiso   1.00
O141   O     0.75000   0.20929   0.23720   0.00000  Uiso   1.00
O142   O     0.75000   0.29071   0.23720   0.00000  Uiso   1.00
O143   O     0.75000   0.20929   0.09613   0.00000  Uiso   1.00
O144   O     0.79650   0.03165   0.24181   0.00000  Uiso   1.00
C145   C     0.16501   0.74987   0.17110   0.00000  Uiso   1.00
C146   C     0.28846   0.94576   0.18088   0.00000  Uiso   1.00
C147   C     0.24987   0.75000   0.07355   0.00000  Uiso   1.00
C148   C     0.25013   0.75000   0.25978   0.00000  Uiso   1.00
C149   C     0.25000   0.52737   0.16667   0.00000  Uiso   1.00
C150   C     0.25000   0.97268   0.16667   0.00000  Uiso   1.00
C151   C     0.24996   0.75000   0.02182   0.00000  Uiso   1.00
C152   C     0.25004   0.75000   0.31151   0.00000  Uiso   1.00
C153   C     0.04660   0.79126   0.19046   0.00000  Uiso   1.00
C154   C     0.45311   0.70622   0.14526   0.00000  Uiso   1.00
C155   C     0.45340   0.79126   0.14287   0.00000  Uiso   1.00
C156   C     0.33499   0.74987   0.16223   0.00000  Uiso   1.00
C157   C     0.04689   0.70622   0.18807   0.00000  Uiso   1.00
C158   C     0.09326   0.79206   0.19041   0.00000  Uiso   1.00
C159   C     0.40672   0.70540   0.14742   0.00000  Uiso   1.00
C160   C     0.40674   0.79206   0.14293   0.00000  Uiso   1.00
C161   C     0.09328   0.70540   0.18591   0.00000  Uiso   1.00
C162   C     0.11666   0.74923   0.18054   0.00000  Uiso   1.00
C163   C     0.38334   0.74923   0.15279   0.00000  Uiso   1.00
C164   C     0.02378   0.74892   0.17669   0.00000  Uiso   1.00
C165   C     0.47622   0.74892   0.15665   0.00000  Uiso   1.00
C166   C     0.26632   0.51981   0.27751   0.00000  Uiso   1.00
C167   C     0.27542   0.60442   0.20086   0.00000  Uiso   1.00
C168   C     0.15202   0.97808   0.18840   0.00000  Uiso   1.00
C169   C     0.23369   0.51981   0.05582   0.00000  Uiso   1.00
C170   C     0.34798   0.97808   0.14494   0.00000  Uiso   1.00
C171   C     0.21521   0.89597   0.14522   0.00000  Uiso   1.00
C172   C     0.22458   0.60442   0.13248   0.00000  Uiso   1.00
C173   C     0.28479   0.89597   0.18811   0.00000  Uiso   1.00
C174   C     0.27351   0.55405   0.20352   0.00000  Uiso   1.00
C175   C     0.21154   0.94576   0.15246   0.00000  Uiso   1.00
C176   C     0.22650   0.55405   0.12981   0.00000  Uiso   1.00
Cl177  Cl    0.31175   0.63399   0.24309   0.00000  Uiso   1.00
Cl178  Cl    0.37984   0.64941   0.13841   0.00000  Uiso   1.00
Cl179  Cl    0.37909   0.84529   0.12413   0.00000  Uiso   1.00
Cl180  Cl    0.12016   0.64941   0.19492   0.00000  Uiso   1.00
Cl181  Cl    0.17545   0.86872   0.10515   0.00000  Uiso   1.00
Cl182  Cl    0.18825   0.63399   0.09024   0.00000  Uiso   1.00
Cl183  Cl    0.32455   0.86872   0.22818   0.00000  Uiso   1.00
Cl184  Cl    0.01861   0.83791   0.22043   0.00000  Uiso   1.00
Cl185  Cl    0.47957   0.65933   0.11394   0.00000  Uiso   1.00
Cl186  Cl    0.48139   0.83791   0.11290   0.00000  Uiso   1.00
Cl187  Cl    0.02043   0.65933   0.21939   0.00000  Uiso   1.00
Cl188  Cl    0.12091   0.84529   0.20920   0.00000  Uiso   1.00
Cu189  Cu    0.25000   0.79821   0.16667   0.00000  Uiso   1.00
Cu190  Cu    0.25000   0.70178   0.16667   0.00000  Uiso   1.00
H191   H     0.24199   0.99234   0.26409   0.00000  Uiso   1.00
H192   H     0.32982   0.50795   0.12613   0.00000  Uiso   1.00
H193   H     0.34877   0.94630   0.12045   0.00000  Uiso   1.00
H194   H     0.38281   0.98998   0.15218   0.00000  Uiso   1.00
H195   H     0.24856   0.55219   0.29011   0.00000  Uiso   1.00
H196   H     0.28548   0.50418   0.30916   0.00000  Uiso   1.00
H197   H     0.17018   0.50796   0.20720   0.00000  Uiso   1.00
H198   H     0.15123   0.94630   0.21288   0.00000  Uiso   1.00
H199   H     0.11719   0.98998   0.18115   0.00000  Uiso   1.00
H200   H     0.25800   0.99232   0.06924   0.00000  Uiso   1.00
H201   H     0.25146   0.55218   0.04323   0.00000  Uiso   1.00
H202   H     0.21452   0.50418   0.02417   0.00000  Uiso   1.00
N203   N     0.25000   0.62934   0.16667   0.00000  Uiso   1.00
N204   N     0.25000   0.87065   0.16667   0.00000  Uiso   1.00
O205   O     0.18573   0.79071   0.16667   0.00000  Uiso   1.00
O206   O     0.17054   0.96706   0.14334   0.00000  Uiso   1.00
O207   O     0.20350   0.53165   0.09153   0.00000  Uiso   1.00
O208   O     0.32947   0.96706   0.18999   0.00000  Uiso   1.00
O209   O     0.31427   0.70928   0.16666   0.00000  Uiso   1.00
O210   O     0.31427   0.79071   0.16666   0.00000  Uiso   1.00
O211   O     0.18573   0.70928   0.16667   0.00000  Uiso   1.00
O212   O     0.25000   0.79071   0.09613   0.00000  Uiso   1.00
O213   O     0.25000   0.70929   0.23720   0.00000  Uiso   1.00
O214   O     0.25000   0.79071   0.23720   0.00000  Uiso   1.00
O215   O     0.25000   0.70929   0.09613   0.00000  Uiso   1.00
O216   O     0.29650   0.53165   0.24181   0.00000  Uiso   1.00
C217   C     0.66501   0.74987   0.17110   0.00000  Uiso   1.00
C218   C     0.78846   0.94576   0.18088   0.00000  Uiso   1.00
C219   C     0.74987   0.75000   0.07355   0.00000  Uiso   1.00
C220   C     0.75013   0.75000   0.25978   0.00000  Uiso   1.00
C221   C     0.75000   0.52737   0.16667   0.00000  Uiso   1.00
C222   C     0.75000   0.97268   0.16667   0.00000  Uiso   1.00
C223   C     0.74996   0.75000   0.02182   0.00000  Uiso   1.00
C224   C     0.75004   0.75000   0.31151   0.00000  Uiso   1.00
C225   C     0.54660   0.79126   0.19046   0.00000  Uiso   1.00
C226   C     0.95311   0.70622   0.14526   0.00000  Uiso   1.00
C227   C     0.95340   0.79126   0.14287   0.00000  Uiso   1.00
C228   C     0.83499   0.74987   0.16223   0.00000  Uiso   1.00
C229   C     0.54689   0.70622   0.18807   0.00000  Uiso   1.00
C230   C     0.59326   0.79206   0.19041   0.00000  Uiso   1.00
C231   C     0.90672   0.70540   0.14742   0.00000  Uiso   1.00
C232   C     0.90674   0.79206   0.14293   0.00000  Uiso   1.00
C233   C     0.59328   0.70540   0.18591   0.00000  Uiso   1.00
C234   C     0.61666   0.74923   0.18054   0.00000  Uiso   1.00
C235   C     0.88334   0.74923   0.15279   0.00000  Uiso   1.00
C236   C     0.52378   0.74892   0.17669   0.00000  Uiso   1.00
C237   C     0.97622   0.74892   0.15665   0.00000  Uiso   1.00
C238   C     0.76632   0.51981   0.27751   0.00000  Uiso   1.00
C239   C     0.77542   0.60442   0.20086   0.00000  Uiso   1.00
C240   C     0.65202   0.97808   0.18840   0.00000  Uiso   1.00
C241   C     0.73369   0.51981   0.05582   0.00000  Uiso   1.00
C242   C     0.84798   0.97808   0.14494   0.00000  Uiso   1.00
C243   C     0.71521   0.89597   0.14522   0.00000  Uiso   1.00
C244   C     0.72458   0.60442   0.13248   0.00000  Uiso   1.00
C245   C     0.78479   0.89597   0.18811   0.00000  Uiso   1.00
C246   C     0.77351   0.55405   0.20352   0.00000  Uiso   1.00
C247   C     0.71154   0.94576   0.15246   0.00000  Uiso   1.00
C248   C     0.72650   0.55405   0.12981   0.00000  Uiso   1.00
Cl249  Cl    0.81175   0.63399   0.24309   0.00000  Uiso   1.00
Cl250  Cl    0.87984   0.64941   0.13841   0.00000  Uiso   1.00
Cl251  Cl    0.87909   0.84529   0.12413   0.00000  Uiso   1.00
Cl252  Cl    0.62016   0.64941   0.19492   0.00000  Uiso   1.00
Cl253  Cl    0.67545   0.86872   0.10515   0.00000  Uiso   1.00
Cl254  Cl    0.68825   0.63399   0.09024   0.00000  Uiso   1.00
Cl255  Cl    0.82455   0.86872   0.22818   0.00000  Uiso   1.00
Cl256  Cl    0.51861   0.83791   0.22043   0.00000  Uiso   1.00
Cl257  Cl    0.97957   0.65933   0.11394   0.00000  Uiso   1.00
Cl258  Cl    0.98139   0.83791   0.11290   0.00000  Uiso   1.00
Cl259  Cl    0.52043   0.65933   0.21939   0.00000  Uiso   1.00
Cl260  Cl    0.62091   0.84529   0.20920   0.00000  Uiso   1.00
Cu261  Cu    0.75000   0.79821   0.16667   0.00000  Uiso   1.00
Cu262  Cu    0.75000   0.70178   0.16667   0.00000  Uiso   1.00
H263   H     0.74199   0.99234   0.26409   0.00000  Uiso   1.00
H264   H     0.82982   0.50795   0.12613   0.00000  Uiso   1.00
H265   H     0.84877   0.94630   0.12045   0.00000  Uiso   1.00
H266   H     0.88281   0.98998   0.15218   0.00000  Uiso   1.00
H267   H     0.74856   0.55219   0.29011   0.00000  Uiso   1.00
H268   H     0.78548   0.50418   0.30916   0.00000  Uiso   1.00
H269   H     0.67018   0.50796   0.20720   0.00000  Uiso   1.00
H270   H     0.65123   0.94630   0.21288   0.00000  Uiso   1.00
H271   H     0.61719   0.98998   0.18115   0.00000  Uiso   1.00
H272   H     0.75800   0.99232   0.06924   0.00000  Uiso   1.00
H273   H     0.75146   0.55218   0.04323   0.00000  Uiso   1.00
H274   H     0.71452   0.50418   0.02417   0.00000  Uiso   1.00
N275   N     0.75000   0.62934   0.16667   0.00000  Uiso   1.00
N276   N     0.75000   0.87065   0.16667   0.00000  Uiso   1.00
O277   O     0.68573   0.79071   0.16667   0.00000  Uiso   1.00
O278   O     0.67054   0.96706   0.14334   0.00000  Uiso   1.00
O279   O     0.70350   0.53165   0.09153   0.00000  Uiso   1.00
O280   O     0.82947   0.96706   0.18999   0.00000  Uiso   1.00
O281   O     0.81427   0.70928   0.16666   0.00000  Uiso   1.00
O282   O     0.81427   0.79071   0.16666   0.00000  Uiso   1.00
O283   O     0.68573   0.70928   0.16667   0.00000  Uiso   1.00
O284   O     0.75000   0.79071   0.09613   0.00000  Uiso   1.00
O285   O     0.75000   0.70929   0.23720   0.00000  Uiso   1.00
O286   O     0.75000   0.79071   0.23720   0.00000  Uiso   1.00
O287   O     0.75000   0.70929   0.09613   0.00000  Uiso   1.00
O288   O     0.79650   0.53165   0.24181   0.00000  Uiso   1.00
C289   C     0.16501   0.24987   0.50444   0.00000  Uiso   1.00
C290   C     0.28846   0.44576   0.51421   0.00000  Uiso   1.00
C291   C     0.24987   0.25000   0.40688   0.00000  Uiso   1.00
C292   C     0.25013   0.25000   0.59312   0.00000  Uiso   1.00
C293   C     0.25000   0.02737   0.50000   0.00000  Uiso   1.00
C294   C     0.25000   0.47268   0.50000   0.00000  Uiso   1.00
C295   C     0.24996   0.25000   0.35515   0.00000  Uiso   1.00
C296   C     0.25004   0.25000   0.64485   0.00000  Uiso   1.00
C297   C     0.04660   0.29126   0.52380   0.00000  Uiso   1.00
C298   C     0.45311   0.20622   0.47860   0.00000  Uiso   1.00
C299   C     0.45340   0.29126   0.47621   0.00000  Uiso   1.00
C300   C     0.33499   0.24987   0.49556   0.00000  Uiso   1.00
C301   C     0.04689   0.20622   0.52140   0.00000  Uiso   1.00
C302   C     0.09326   0.29206   0.52374   0.00000  Uiso   1.00
C303   C     0.40672   0.20540   0.48075   0.00000  Uiso   1.00
C304   C     0.40674   0.29206   0.47626   0.00000  Uiso   1.00
C305   C     0.09328   0.20540   0.51925   0.00000  Uiso   1.00
C306   C     0.11666   0.24923   0.51388   0.00000  Uiso   1.00
C307   C     0.38334   0.24923   0.48612   0.00000  Uiso   1.00
C308   C     0.02378   0.24892   0.51002   0.00000  Uiso   1.00
C309   C     0.47622   0.24892   0.48998   0.00000  Uiso   1.00
C310   C     0.26632   0.01981   0.61085   0.00000  Uiso   1.00
C311   C     0.27542   0.10442   0.53419   0.00000  Uiso   1.00
C312   C     0.15202   0.47808   0.52173   0.00000  Uiso   1.00
C313   C     0.23369   0.01981   0.38916   0.00000  Uiso   1.00
C314   C     0.34798   0.47808   0.47827   0.00000  Uiso   1.00
C315   C     0.21521   0.39597   0.47856   0.00000  Uiso   1.00
C316   C     0.22458   0.10442   0.46581   0.00000  Uiso   1.00
C317   C     0.28479   0.39597   0.52144   0.00000  Uiso   1.00
C318   C     0.27351   0.05405   0.53686   0.00000  Uiso   1.00
C319   C     0.21154   0.44576   0.48579   0.00000  Uiso   1.00
C320   C     0.22650   0.05405   0.46314   0.00000  Uiso   1.00
Cl321  Cl    0.31175   0.13399   0.57643   0.00000  Uiso   1.00
Cl322  Cl    0.37984   0.14941   0.47175   0.00000  Uiso   1.00
Cl323  Cl    0.37909   0.34529   0.45746   0.00000  Uiso   1.00
Cl324  Cl    0.12016   0.14941   0.52825   0.00000  Uiso   1.00
Cl325  Cl    0.17545   0.36872   0.43848   0.00000  Uiso   1.00
Cl326  Cl    0.18825   0.13399   0.42357   0.00000  Uiso   1.00
Cl327  Cl    0.32455   0.36872   0.56152   0.00000  Uiso   1.00
Cl328  Cl    0.01861   0.33791   0.55377   0.00000  Uiso   1.00
Cl329  Cl    0.47957   0.15933   0.44728   0.00000  Uiso   1.00
Cl330  Cl    0.48139   0.33791   0.44624   0.00000  Uiso   1.00
Cl331  Cl    0.02043   0.15933   0.55272   0.00000  Uiso   1.00
Cl332  Cl    0.12091   0.34529   0.54254   0.00000  Uiso   1.00
Cu333  Cu    0.25000   0.29821   0.50000   0.00000  Uiso   1.00
Cu334  Cu    0.25000   0.20178   0.50000   0.00000  Uiso   1.00
H335   H     0.24199   0.49234   0.59743   0.00000  Uiso   1.00
H336   H     0.32982   0.00795   0.45947   0.00000  Uiso   1.00
H337   H     0.34877   0.44630   0.45379   0.00000  Uiso   1.00
H338   H     0.38281   0.48998   0.48551   0.00000  Uiso   1.00
H339   H     0.24856   0.05219   0.62344   0.00000  Uiso   1.00
H340   H     0.28548   0.00418   0.64249   0.00000  Uiso   1.00
H341   H     0.17018   0.00796   0.54053   0.00000  Uiso   1.00
H342   H     0.15123   0.44630   0.54621   0.00000  Uiso   1.00
H343   H     0.11719   0.48998   0.51448   0.00000  Uiso   1.00
H344   H     0.25800   0.49232   0.40258   0.00000  Uiso   1.00
H345   H     0.25146   0.05218   0.37657   0.00000  Uiso   1.00
H346   H     0.21452   0.00418   0.35750   0.00000  Uiso   1.00
N347   N     0.25000   0.12934   0.50000   0.00000  Uiso   1.00
N348   N     0.25000   0.37065   0.50000   0.00000  Uiso   1.00
O349   O     0.18573   0.29071   0.50000   0.00000  Uiso   1.00
O350   O     0.17054   0.46706   0.47668   0.00000  Uiso   1.00
O351   O     0.20350   0.03165   0.42486   0.00000  Uiso   1.00
O352   O     0.32947   0.46706   0.52332   0.00000  Uiso   1.00
O353   O     0.31427   0.20928   0.50000   0.00000  Uiso   1.00
O354   O     0.31427   0.29071   0.50000   0.00000  Uiso   1.00
O355   O     0.18573   0.20928   0.50000   0.00000  Uiso   1.00
O356   O     0.25000   0.29071   0.42946   0.00000  Uiso   1.00
O357   O     0.25000   0.20929   0.57054   0.00000  Uiso   1.00
O358   O     0.25000   0.29071   0.57054   0.00000  Uiso   1.00
O359   O     0.25000   0.20929   0.42946   0.00000  Uiso   1.00
O360   O     0.29650   0.03165   0.57514   0.00000  Uiso   1.00
C361   C     0.66501   0.24987   0.50444   0.00000  Uiso   1.00
C362   C     0.78846   0.44576   0.51421   0.00000  Uiso   1.00
C363   C     0.74987   0.25000   0.40688   0.00000  Uiso   1.00
C364   C     0.75013   0.25000   0.59312   0.00000  Uiso   1.00
C365   C     0.75000   0.02737   0.50000   0.00000  Uiso   1.00
C366   C     0.75000   0.47268   0.50000   0.00000  Uiso   1.00
C367   C     0.74996   0.25000   0.35515   0.00000  Uiso   1.00
C368   C     0.75004   0.25000   0.64485   0.00000  Uiso   1.00
C369   C     0.54660   0.29126   0.52380   0.00000  Uiso   1.00
C370   C     0.95311   0.20622   0.47860   0.00000  Uiso   1.00
C371   C     0.95340   0.29126   0.47621   0.00000  Uiso   1.00
C372   C     0.83499   0.24987   0.49556   0.00000  Uiso   1.00
C373   C     0.54689   0.20622   0.52140   0.00000  Uiso   1.00
C374   C     0.59326   0.29206   0.52374   0.00000  Uiso   1.00
C375   C     0.90672   0.20540   0.48075   0.00000  Uiso   1.00
C376   C     0.90674   0.29206   0.47626   0.00000  Uiso   1.00
C377   C     0.59328   0.20540   0.51925   0.00000  Uiso   1.00
C378   C     0.61666   0.24923   0.51388   0.00000  Uiso   1.00
C379   C     0.88334   0.24923   0.48612   0.00000  Uiso   1.00
C380   C     0.52378   0.24892   0.51002   0.00000  Uiso   1.00
C381   C     0.97622   0.24892   0.48998   0.00000  Uiso   1.00
C382   C     0.76632   0.01981   0.61085   0.00000  Uiso   1.00
C383   C     0.77542   0.10442   0.53419   0.00000  Uiso   1.00
C384   C     0.65202   0.47808   0.52173   0.00000  Uiso   1.00
C385   C     0.73369   0.01981   0.38916   0.00000  Uiso   1.00
C386   C     0.84798   0.47808   0.47827   0.00000  Uiso   1.00
C387   C     0.71521   0.39597   0.47856   0.00000  Uiso   1.00
C388   C     0.72458   0.10442   0.46581   0.00000  Uiso   1.00
C389   C     0.78479   0.39597   0.52144   0.00000  Uiso   1.00
C390   C     0.77351   0.05405   0.53686   0.00000  Uiso   1.00
C391   C     0.71154   0.44576   0.48579   0.00000  Uiso   1.00
C392   C     0.72650   0.05405   0.46314   0.00000  Uiso   1.00
Cl393  Cl    0.81175   0.13399   0.57643   0.00000  Uiso   1.00
Cl394  Cl    0.87984   0.14941   0.47175   0.00000  Uiso   1.00
Cl395  Cl    0.87909   0.34529   0.45746   0.00000  Uiso   1.00
Cl396  Cl    0.62016   0.14941   0.52825   0.00000  Uiso   1.00
Cl397  Cl    0.67545   0.36872   0.43848   0.00000  Uiso   1.00
Cl398  Cl    0.68825   0.13399   0.42357   0.00000  Uiso   1.00
Cl399  Cl    0.82455   0.36872   0.56152   0.00000  Uiso   1.00
Cl400  Cl    0.51861   0.33791   0.55377   0.00000  Uiso   1.00
Cl401  Cl    0.97957   0.15933   0.44728   0.00000  Uiso   1.00
Cl402  Cl    0.98139   0.33791   0.44624   0.00000  Uiso   1.00
Cl403  Cl    0.52043   0.15933   0.55272   0.00000  Uiso   1.00
Cl404  Cl    0.62091   0.34529   0.54254   0.00000  Uiso   1.00
Cu405  Cu    0.75000   0.29821   0.50000   0.00000  Uiso   1.00
Cu406  Cu    0.75000   0.20178   0.50000   0.00000  Uiso   1.00
H407   H     0.74199   0.49234   0.59743   0.00000  Uiso   1.00
H408   H     0.82982   0.00795   0.45947   0.00000  Uiso   1.00
H409   H     0.84877   0.44630   0.45379   0.00000  Uiso   1.00
H410   H     0.88281   0.48998   0.48551   0.00000  Uiso   1.00
H411   H     0.74856   0.05219   0.62344   0.00000  Uiso   1.00
H412   H     0.78548   0.00418   0.64249   0.00000  Uiso   1.00
H413   H     0.67018   0.00796   0.54053   0.00000  Uiso   1.00
H414   H     0.65123   0.44630   0.54621   0.00000  Uiso   1.00
H415   H     0.61719   0.48998   0.51448   0.00000  Uiso   1.00
H416   H     0.75800   0.49232   0.40258   0.00000  Uiso   1.00
H417   H     0.75146   0.05218   0.37657   0.00000  Uiso   1.00
H418   H     0.71452   0.00418   0.35750   0.00000  Uiso   1.00
N419   N     0.75000   0.12934   0.50000   0.00000  Uiso   1.00
N420   N     0.75000   0.37065   0.50000   0.00000  Uiso   1.00
O421   O     0.68573   0.29071   0.50000   0.00000  Uiso   1.00
O422   O     0.67054   0.46706   0.47668   0.00000  Uiso   1.00
O423   O     0.70350   0.03165   0.42486   0.00000  Uiso   1.00
O424   O     0.82947   0.46706   0.52332   0.00000  Uiso   1.00
O425   O     0.81427   0.20928   0.50000   0.00000  Uiso   1.00
O426   O     0.81427   0.29071   0.50000   0.00000  Uiso   1.00
O427   O     0.68573   0.20928   0.50000   0.00000  Uiso   1.00
O428   O     0.75000   0.29071   0.42946   0.00000  Uiso   1.00
O429   O     0.75000   0.20929   0.57054   0.00000  Uiso   1.00
O430   O     0.75000   0.29071   0.57054   0.00000  Uiso   1.00
O431   O     0.75000   0.20929   0.42946   0.00000  Uiso   1.00
O432   O     0.79650   0.03165   0.57514   0.00000  Uiso   1.00
C433   C     0.16501   0.74987   0.50444   0.00000  Uiso   1.00
C434   C     0.28846   0.94576   0.51421   0.00000  Uiso   1.00
C435   C     0.24987   0.75000   0.40688   0.00000  Uiso   1.00
C436   C     0.25013   0.75000   0.59312   0.00000  Uiso   1.00
C437   C     0.25000   0.52737   0.50000   0.00000  Uiso   1.00
C438   C     0.25000   0.97268   0.50000   0.00000  Uiso   1.00
C439   C     0.24996   0.75000   0.35515   0.00000  Uiso   1.00
C440   C     0.25004   0.75000   0.64485   0.00000  Uiso   1.00
C441   C     0.04660   0.79126   0.52380   0.00000  Uiso   1.00
C442   C     0.45311   0.70622   0.47860   0.00000  Uiso   1.00
C443   C     0.45340   0.79126   0.47621   0.00000  Uiso   1.00
C444   C     0.33499   0.74987   0.49556   0.00000  Uiso   1.00
C445   C     0.04689   0.70622   0.52140   0.00000  Uiso   1.00
C446   C     0.09326   0.79206   0.52374   0.00000  Uiso   1.00
C447   C     0.40672   0.70540   0.48075   0.00000  Uiso   1.00
C448   C     0.40674   0.79206   0.47626   0.00000  Uiso   1.00
C449   C     0.09328   0.70540   0.51925   0.00000  Uiso   1.00
C450   C     0.11666   0.74923   0.51388   0.00000  Uiso   1.00
C451   C     0.38334   0.74923   0.48612   0.00000  Uiso   1.00
C452   C     0.02378   0.74892   0.51002   0.00000  Uiso   1.00
C453   C     0.47622   0.74892   0.48998   0.00000  Uiso   1.00
C454   C     0.26632   0.51981   0.61085   0.00000  Uiso   1.00
C455   C     0.27542   0.60442   0.53419   0.00000  Uiso   1.00
C456   C     0.15202   0.97808   0.52173   0.00000  Uiso   1.00
C457   C     0.23369   0.51981   0.38916   0.00000  Uiso   1.00
C458   C     0.34798   0.97808   0.47827   0.00000  Uiso   1.00
C459   C     0.21521   0.89597   0.47856   0.00000  Uiso   1.00
C460   C     0.22458   0.60442   0.46581   0.00000  Uiso   1.00
C461   C     0.28479   0.89597   0.52144   0.00000  Uiso   1.00
C462   C     0.27351   0.55405   0.53686   0.00000  Uiso   1.00
C463   C     0.21154   0.94576   0.48579   0.00000  Uiso   1.00
C464   C     0.22650   0.55405   0.46314   0.00000  Uiso   1.00
Cl465  Cl    0.31175   0.63399   0.57643   0.00000  Uiso   1.00
Cl466  Cl    0.37984   0.64941   0.47175   0.00000  Uiso   1.00
Cl467  Cl    0.37909   0.84529   0.45746   0.00000  Uiso   1.00
Cl468  Cl    0.12016   0.64941   0.52825   0.00000  Uiso   1.00
Cl469  Cl    0.17545   0.86872   0.43848   0.00000  Uiso   1.00
Cl470  Cl    0.18825   0.63399   0.42357   0.00000  Uiso   1.00
Cl471  Cl    0.32455   0.86872   0.56152   0.00000  Uiso   1.00
Cl472  Cl    0.01861   0.83791   0.55377   0.00000  Uiso   1.00
Cl473  Cl    0.47957   0.65933   0.44728   0.00000  Uiso   1.00
Cl474  Cl    0.48139   0.83791   0.44624   0.00000  Uiso   1.00
Cl475  Cl    0.02043   0.65933   0.55272   0.00000  Uiso   1.00
Cl476  Cl    0.12091   0.84529   0.54254   0.00000  Uiso   1.00
Cu477  Cu    0.25000   0.79821   0.50000   0.00000  Uiso   1.00
Cu478  Cu    0.25000   0.70178   0.50000   0.00000  Uiso   1.00
H479   H     0.24199   0.99234   0.59743   0.00000  Uiso   1.00
H480   H     0.32982   0.50795   0.45947   0.00000  Uiso   1.00
H481   H     0.34877   0.94630   0.45379   0.00000  Uiso   1.00
H482   H     0.38281   0.98998   0.48551   0.00000  Uiso   1.00
H483   H     0.24856   0.55219   0.62344   0.00000  Uiso   1.00
H484   H     0.28548   0.50418   0.64249   0.00000  Uiso   1.00
H485   H     0.17018   0.50796   0.54053   0.00000  Uiso   1.00
H486   H     0.15123   0.94630   0.54621   0.00000  Uiso   1.00
H487   H     0.11719   0.98998   0.51448   0.00000  Uiso   1.00
H488   H     0.25800   0.99232   0.40258   0.00000  Uiso   1.00
H489   H     0.25146   0.55218   0.37657   0.00000  Uiso   1.00
H490   H     0.21452   0.50418   0.35750   0.00000  Uiso   1.00
N491   N     0.25000   0.62934   0.50000   0.00000  Uiso   1.00
N492   N     0.25000   0.87065   0.50000   0.00000  Uiso   1.00
O493   O     0.18573   0.79071   0.50000   0.00000  Uiso   1.00
O494   O     0.17054   0.96706   0.47668   0.00000  Uiso   1.00
O495   O     0.20350   0.53165   0.42486   0.00000  Uiso   1.00
O496   O     0.32947   0.96706   0.52332   0.00000  Uiso   1.00
O497   O     0.31427   0.70928   0.50000   0.00000  Uiso   1.00
O498   O     0.31427   0.79071   0.50000   0.00000  Uiso   1.00
O499   O     0.18573   0.70928   0.50000   0.00000  Uiso   1.00
O500   O     0.25000   0.79071   0.42946   0.00000  Uiso   1.00
O501   O     0.25000   0.70929   0.57054   0.00000  Uiso   1.00
O502   O     0.25000   0.79071   0.57054   0.00000  Uiso   1.00
O503   O     0.25000   0.70929   0.42946   0.00000  Uiso   1.00
O504   O     0.29650   0.53165   0.57514   0.00000  Uiso   1.00
C505   C     0.66501   0.74987   0.50444   0.00000  Uiso   1.00
C506   C     0.78846   0.94576   0.51421   0.00000  Uiso   1.00
C507   C     0.74987   0.75000   0.40688   0.00000  Uiso   1.00
C508   C     0.75013   0.75000   0.59312   0.00000  Uiso   1.00
C509   C     0.75000   0.52737   0.50000   0.00000  Uiso   1.00
C510   C     0.75000   0.97268   0.50000   0.00000  Uiso   1.00
C511   C     0.74996   0.75000   0.35515   0.00000  Uiso   1.00
C512   C     0.75004   0.75000   0.64485   0.00000  Uiso   1.00
C513   C     0.54660   0.79126   0.52380   0.00000  Uiso   1.00
C514   C     0.95311   0.70622   0.47860   0.00000  Uiso   1.00
C515   C     0.95340   0.79126   0.47621   0.00000  Uiso   1.00
C516   C     0.83499   0.74987   0.49556   0.00000  Uiso   1.00
C517   C     0.54689   0.70622   0.52140   0.00000  Uiso   1.00
C518   C     0.59326   0.79206   0.52374   0.00000  Uiso   1.00
C519   C     0.90672   0.70540   0.48075   0.00000  Uiso   1.00
C520   C     0.90674   0.79206   0.47626   0.00000  Uiso   1.00
C521   C     0.59328   0.70540   0.51925   0.00000  Uiso   1.00
C522   C     0.61666   0.74923   0.51388   0.00000  Uiso   1.00
C523   C     0.88334   0.74923   0.48612   0.00000  Uiso   1.00
C524   C     0.52378   0.74892   0.51002   0.00000  Uiso   1.00
C525   C     0.97622   0.74892   0.48998   0.00000  Uiso   1.00
C526   C     0.76632   0.51981   0.61085   0.00000  Uiso   1.00
C527   C     0.77542   0.60442   0.53419   0.00000  Uiso   1.00
C528   C     0.65202   0.97808   0.52173   0.00000  Uiso   1.00
C529   C     0.73369   0.51981   0.38916   0.00000  Uiso   1.00
C530   C     0.84798   0.97808   0.47827   0.00000  Uiso   1.00
C531   C     0.71521   0.89597   0.47856   0.00000  Uiso   1.00
C532   C     0.72458   0.60442   0.46581   0.00000  Uiso   1.00
C533   C     0.78479   0.89597   0.52144   0.00000  Uiso   1.00
C534   C     0.77351   0.55405   0.53686   0.00000  Uiso   1.00
C535   C     0.71154   0.94576   0.48579   0.00000  Uiso   1.00
C536   C     0.72650   0.55405   0.46314   0.00000  Uiso   1.00
Cl537  Cl    0.81175   0.63399   0.57643   0.00000  Uiso   1.00
Cl538  Cl    0.87984   0.64941   0.47175   0.00000  Uiso   1.00
Cl539  Cl    0.87909   0.84529   0.45746   0.00000  Uiso   1.00
Cl540  Cl    0.62016   0.64941   0.52825   0.00000  Uiso   1.00
Cl541  Cl    0.67545   0.86872   0.43848   0.00000  Uiso   1.00
Cl542  Cl    0.68825   0.63399   0.42357   0.00000  Uiso   1.00
Cl543  Cl    0.82455   0.86872   0.56152   0.00000  Uiso   1.00
Cl544  Cl    0.51861   0.83791   0.55377   0.00000  Uiso   1.00
Cl545  Cl    0.97957   0.65933   0.44728   0.00000  Uiso   1.00
Cl546  Cl    0.98139   0.83791   0.44624   0.00000  Uiso   1.00
Cl547  Cl    0.52043   0.65933   0.55272   0.00000  Uiso   1.00
Cl548  Cl    0.62091   0.84529   0.54254   0.00000  Uiso   1.00
Cu549  Cu    0.75000   0.79821   0.50000   0.00000  Uiso   1.00
Cu550  Cu    0.75000   0.70178   0.50000   0.00000  Uiso   1.00
H551   H     0.74199   0.99234   0.59743   0.00000  Uiso   1.00
H552   H     0.82982   0.50795   0.45947   0.00000  Uiso   1.00
H553   H     0.84877   0.94630   0.45379   0.00000  Uiso   1.00
H554   H     0.88281   0.98998   0.48551   0.00000  Uiso   1.00
H555   H     0.74856   0.55219   0.62344   0.00000  Uiso   1.00
H556   H     0.78548   0.50418   0.64249   0.00000  Uiso   1.00
H557   H     0.67018   0.50796   0.54053   0.00000  Uiso   1.00
H558   H     0.65123   0.94630   0.54621   0.00000  Uiso   1.00
H559   H     0.61719   0.98998   0.51448   0.00000  Uiso   1.00
H560   H     0.75800   0.99232   0.40258   0.00000  Uiso   1.00
H561   H     0.75146   0.55218   0.37657   0.00000  Uiso   1.00
H562   H     0.71452   0.50418   0.35750   0.00000  Uiso   1.00
N563   N     0.75000   0.62934   0.50000   0.00000  Uiso   1.00
N564   N     0.75000   0.87065   0.50000   0.00000  Uiso   1.00
O565   O     0.68573   0.79071   0.50000   0.00000  Uiso   1.00
O566   O     0.67054   0.96706   0.47668   0.00000  Uiso   1.00
O567   O     0.70350   0.53165   0.42486   0.00000  Uiso   1.00
O568   O     0.82947   0.96706   0.52332   0.00000  Uiso   1.00
O569   O     0.81427   0.70928   0.50000   0.00000  Uiso   1.00
O570   O     0.81427   0.79071   0.50000   0.00000  Uiso   1.00
O571   O     0.68573   0.70928   0.50000   0.00000  Uiso   1.00
O572   O     0.75000   0.79071   0.42946   0.00000  Uiso   1.00
O573   O     0.75000   0.70929   0.57054   0.00000  Uiso   1.00
O574   O     0.75000   0.79071   0.57054   0.00000  Uiso   1.00
O575   O     0.75000   0.70929   0.42946   0.00000  Uiso   1.00
O576   O     0.79650   0.53165   0.57514   0.00000  Uiso   1.00
C577   C     0.16501   0.24987   0.83777   0.00000  Uiso   1.00
C578   C     0.28846   0.44576   0.84754   0.00000  Uiso   1.00
C579   C     0.24987   0.25000   0.74022   0.00000  Uiso   1.00
C580   C     0.25013   0.25000   0.92645   0.00000  Uiso   1.00
C581   C     0.25000   0.02737   0.83333   0.00000  Uiso   1.00
C582   C     0.25000   0.47268   0.83333   0.00000  Uiso   1.00
C583   C     0.24996   0.25000   0.68849   0.00000  Uiso   1.00
C584   C     0.25004   0.25000   0.97818   0.00000  Uiso   1.00
C585   C     0.04660   0.29126   0.85713   0.00000  Uiso   1.00
C586   C     0.45311   0.20622   0.81193   0.00000  Uiso   1.00
C587   C     0.45340   0.29126   0.80954   0.00000  Uiso   1.00
C588   C     0.33499   0.24987   0.82890   0.00000  Uiso   1.00
C589   C     0.04689   0.20622   0.85474   0.00000  Uiso   1.00
C590   C     0.09326   0.29206   0.85707   0.00000  Uiso   1.00
C591   C     0.40672   0.20540   0.81409   0.00000  Uiso   1.00
C592   C     0.40674   0.29206   0.80959   0.00000  Uiso   1.00
C593   C     0.09328   0.20540   0.85258   0.00000  Uiso   1.00
C594   C     0.11666   0.24923   0.84721   0.00000  Uiso   1.00
C595   C     0.38334   0.24923   0.81946   0.00000  Uiso   1.00
C596   C     0.02378   0.24892   0.84336   0.00000  Uiso   1.00
C597   C     0.47622   0.24892   0.82331   0.00000  Uiso   1.00
C598   C     0.26632   0.01981   0.94418   0.00000  Uiso   1.00
C599   C     0.27542   0.10442   0.86752   0.00000  Uiso   1.00
C600   C     0.15202   0.47808   0.85506   0.00000  Uiso   1.00
C601   C     0.23369   0.01981   0.72249   0.00000  Uiso   1.00
C602   C     0.34798   0.47808   0.81160   0.00000  Uiso   1.00
C603   C     0.21521   0.39597   0.81189   0.00000  Uiso   1.00
C604   C     0.22458   0.10442   0.79914   0.00000  Uiso   1.00
C605   C     0.28479   0.39597   0.85478   0.00000  Uiso   1.00
C606   C     0.27351   0.05405   0.87019   0.00000  Uiso   1.00
C607   C     0.21154   0.44576   0.81912   0.00000  Uiso   1.00
C608   C     0.22650   0.05405   0.79648   0.00000  Uiso   1.00
Cl609  Cl    0.31175   0.13399   0.90976   0.00000  Uiso   1.00
Cl610  Cl    0.37984   0.14941   0.80508   0.00000  Uiso   1.00
Cl611  Cl    0.37909   0.34529   0.79080   0.00000  Uiso   1.00
Cl612  Cl    0.12016   0.14941   0.86159   0.00000  Uiso   1.00
Cl613  Cl    0.17545   0.36872   0.77182   0.00000  Uiso   1.00
Cl614  Cl    0.18825   0.13399   0.75691   0.00000  Uiso   1.00
Cl615  Cl    0.32455   0.36872   0.89485   0.00000  Uiso   1.00
Cl616  Cl    0.01861   0.33791   0.88710   0.00000  Uiso   1.00
Cl617  Cl    0.47957   0.15933   0.78061   0.00000  Uiso   1.00
Cl618  Cl    0.48139   0.33791   0.77957   0.00000  Uiso   1.00
Cl619  Cl    0.02043   0.15933   0.88606   0.00000  Uiso   1.00
Cl620  Cl    0.12091   0.34529   0.87587   0.00000  Uiso   1.00
Cu621  Cu    0.25000   0.29821   0.83333   0.00000  Uiso   1.00
Cu622  Cu    0.25000   0.20178   0.83333   0.00000  Uiso   1.00
H623   H     0.24199   0.49234   0.93076   0.00000  Uiso   1.00
H624   H     0.32982   0.00795   0.79280   0.00000  Uiso   1.00
H625   H     0.34877   0.44630   0.78712   0.00000  Uiso   1.00
H626   H     0.38281   0.48998   0.81885   0.00000  Uiso   1.00
H627   H     0.24856   0.05219   0.95678   0.00000  Uiso   1.00
H628   H     0.28548   0.00418   0.97583   0.00000  Uiso   1.00
H629   H     0.17018   0.00796   0.87387   0.00000  Uiso   1.00
H630   H     0.15123   0.44630   0.87955   0.00000  Uiso   1.00
H631   H     0.11719   0.48998   0.84782   0.00000  Uiso   1.00
H632   H     0.25800   0.49232   0.73591   0.00000  Uiso   1.00
H633   H     0.25146   0.05218   0.70990   0.00000  Uiso   1.00
H634   H     0.21452   0.00418   0.69084   0.00000  Uiso   1.00
N635   N     0.25000   0.12934   0.83333   0.00000  Uiso   1.00
N636   N     0.25000   0.37065   0.83333   0.00000  Uiso   1.00
O637   O     0.18573   0.29071   0.83334   0.00000  Uiso   1.00
O638   O     0.17054   0.46706   0.81001   0.00000  Uiso   1.00
O639   O     0.20350   0.03165   0.75819   0.00000  Uiso   1.00
O640   O     0.32947   0.46706   0.85666   0.00000  Uiso   1.00
O641   O     0.31427   0.20928   0.83333   0.00000  Uiso   1.00
O642   O     0.31427   0.29071   0.83333   0.00000  Uiso   1.00
O643   O     0.18573   0.20928   0.83334   0.00000  Uiso   1.00
O644   O     0.25000   0.29071   0.76280   0.00000  Uiso   1.00
O645   O     0.25000   0.20929   0.90387   0.00000  Uiso   1.00
O646   O     0.25000   0.29071   0.90387   0.00000  Uiso   1.00
O647   O     0.25000   0.20929   0.76280   0.00000  Uiso   1.00
O648   O     0.29650   0.03165   0.90847   0.00000  Uiso   1.00
C649   C     0.66501   0.24987   0.83777   0.00000  Uiso   1.00
C650   C     0.78846   0.44576   0.84754   0.00000  Uiso   1.00
C651   C     0.74987   0.25000   0.74022   0.00000  Uiso   1.00
C652   C     0.75013   0.25000   0.92645   0.00000  Uiso   1.00
C653   C     0.75000   0.02737   0.83333   0.00000  Uiso   1.00
C654   C     0.75000   0.47268   0.83333   0.00000  Uiso   1.00
C655   C     0.74996   0.25000   0.68849   0.00000  Uiso   1.00
C656   C     0.75004   0.25000   0.97818   0.00000  Uiso   1.00
C657   C     0.54660   0.29126   0.85713   0.00000  Uiso   1.00
C658   C     0.95311   0.20622   0.81193   0.00000  Uiso   1.00
C659   C     0.95340   0.29126   0.80954   0.00000  Uiso   1.00
C660   C     0.83499   0.24987   0.82890   0.00000  Uiso   1.00
C661   C     0.54689   0.20622   0.85474   0.00000  Uiso   1.00
C662   C     0.59326   0.29206   0.85707   0.00000  Uiso   1.00
C663   C     0.90672   0.20540   0.81409   0.00000  Uiso   1.00
C664   C     0.90674   0.29206   0.80959   0.00000  Uiso   1.00
C665   C     0.59328   0.20540   0.85258   0.00000  Uiso   1.00
C666   C     0.61666   0.24923   0.84721   0.00000  Uiso   1.00
C667   C     0.88334   0.24923   0.81946   0.00000  Uiso   1.00
C668   C     0.52378   0.24892   0.84336   0.00000  Uiso   1.00
C669   C     0.97622   0.24892   0.82331   0.00000  Uiso   1.00
C670   C     0.76632   0.01981   0.94418   0.00000  Uiso   1.00
C671   C     0.77542   0.10442   0.86752   0.00000  Uiso   1.00
C672   C     0.65202   0.47808   0.85506   0.00000  Uiso   1.00
C673   C     0.73369   0.01981   0.72249   0.00000  Uiso   1.00
C674   C     0.84798   0.47808   0.81160   0.00000  Uiso   1.00
C675   C     0.71521   0.39597   0.81189   0.00000  Uiso   1.00
C676   C     0.72458   0.10442   0.79914   0.00000  Uiso   1.00
C677   C     0.78479   0.39597   0.85478   0.00000  Uiso   1.00
C678   C     0.77351   0.05405   0.87019   0.00000  Uiso   1.00
C679   C     0.71154   0.44576   0.81912   0.00000  Uiso   1.00
C680   C     0.72650   0.05405   0.79648   0.00000  Uiso   1.00
Cl681  Cl    0.81175   0.13399   0.90976   0.00000  Uiso   1.00
Cl682  Cl    0.87984   0.14941   0.80508   0.00000  Uiso   1.00
Cl683  Cl    0.87909   0.34529   0.79080   0.00000  Uiso   1.00
Cl684  Cl    0.62016   0.14941   0.86159   0.00000  Uiso   1.00
Cl685  Cl    0.67545   0.36872   0.77182   0.00000  Uiso   1.00
Cl686  Cl    0.68825   0.13399   0.75691   0.00000  Uiso   1.00
Cl687  Cl    0.82455   0.36872   0.89485   0.00000  Uiso   1.00
Cl688  Cl    0.51861   0.33791   0.88710   0.00000  Uiso   1.00
Cl689  Cl    0.97957   0.15933   0.78061   0.00000  Uiso   1.00
Cl690  Cl    0.98139   0.33791   0.77957   0.00000  Uiso   1.00
Cl691  Cl    0.52043   0.15933   0.88606   0.00000  Uiso   1.00
Cl692  Cl    0.62091   0.34529   0.87587   0.00000  Uiso   1.00
Cu693  Cu    0.75000   0.29821   0.83333   0.00000  Uiso   1.00
Cu694  Cu    0.75000   0.20178   0.83333   0.00000  Uiso   1.00
H695   H     0.74199   0.49234   0.93076   0.00000  Uiso   1.00
H696   H     0.82982   0.00795   0.79280   0.00000  Uiso   1.00
H697   H     0.84877   0.44630   0.78712   0.00000  Uiso   1.00
H698   H     0.88281   0.48998   0.81885   0.00000  Uiso   1.00
H699   H     0.74856   0.05219   0.95678   0.00000  Uiso   1.00
H700   H     0.78548   0.00418   0.97583   0.00000  Uiso   1.00
H701   H     0.67018   0.00796   0.87387   0.00000  Uiso   1.00
H702   H     0.65123   0.44630   0.87955   0.00000  Uiso   1.00
H703   H     0.61719   0.48998   0.84782   0.00000  Uiso   1.00
H704   H     0.75800   0.49232   0.73591   0.00000  Uiso   1.00
H705   H     0.75146   0.05218   0.70990   0.00000  Uiso   1.00
H706   H     0.71452   0.00418   0.69084   0.00000  Uiso   1.00
N707   N     0.75000   0.12934   0.83333   0.00000  Uiso   1.00
N708   N     0.75000   0.37065   0.83333   0.00000  Uiso   1.00
O709   O     0.68573   0.29071   0.83334   0.00000  Uiso   1.00
O710   O     0.67054   0.46706   0.81001   0.00000  Uiso   1.00
O711   O     0.70350   0.03165   0.75819   0.00000  Uiso   1.00
O712   O     0.82947   0.46706   0.85666   0.00000  Uiso   1.00
O713   O     0.81427   0.20928   0.83333   0.00000  Uiso   1.00
O714   O     0.81427   0.29071   0.83333   0.00000  Uiso   1.00
O715   O     0.68573   0.20928   0.83334   0.00000  Uiso   1.00
O716   O     0.75000   0.29071   0.76280   0.00000  Uiso   1.00
O717   O     0.75000   0.20929   0.90387   0.00000  Uiso   1.00
O718   O     0.75000   0.29071   0.90387   0.00000  Uiso   1.00
O719   O     0.75000   0.20929   0.76280   0.00000  Uiso   1.00
O720   O     0.79650   0.03165   0.90847   0.00000  Uiso   1.00
C721   C     0.16501   0.74987   0.83777   0.00000  Uiso   1.00
C722   C     0.28846   0.94576   0.84754   0.00000  Uiso   1.00
C723   C     0.24987   0.75000   0.74022   0.00000  Uiso   1.00
C724   C     0.25013   0.75000   0.92645   0.00000  Uiso   1.00
C725   C     0.25000   0.52737   0.83333   0.00000  Uiso   1.00
C726   C     0.25000   0.97268   0.83333   0.00000  Uiso   1.00
C727   C     0.24996   0.75000   0.68849   0.00000  Uiso   1.00
C728   C     0.25004   0.75000   0.97818   0.00000  Uiso   1.00
C729   C     0.04660   0.79126   0.85713   0.00000  Uiso   1.00
C730   C     0.45311   0.70622   0.81193   0.00000  Uiso   1.00
C731   C     0.45340   0.79126   0.80954   0.00000  Uiso   1.00
C732   C     0.33499   0.74987   0.82890   0.00000  Uiso   1.00
C733   C     0.04689   0.70622   0.85474   0.00000  Uiso   1.00
C734   C     0.09326   0.79206   0.85707   0.00000  Uiso   1.00
C735   C     0.40672   0.70540   0.81409   0.00000  Uiso   1.00
C736   C     0.40674   0.79206   0.80959   0.00000  Uiso   1.00
C737   C     0.09328   0.70540   0.85258   0.00000  Uiso   1.00
C738   C     0.11666   0.74923   0.84721   0.00000  Uiso   1.00
C739   C     0.38334   0.74923   0.81946   0.00000  Uiso   1.00
C740   C     0.02378   0.74892   0.84336   0.00000  Uiso   1.00
C741   C     0.47622   0.74892   0.82331   0.00000  Uiso   1.00
C742   C     0.26632   0.51981   0.94418   0.00000  Uiso   1.00
C743   C     0.27542   0.60442   0.86752   0.00000  Uiso   1.00
C744   C     0.15202   0.97808   0.85506   0.00000  Uiso   1.00
C745   C     0.23369   0.51981   0.72249   0.00000  Uiso   1.00
C746   C     0.34798   0.97808   0.81160   0.00000  Uiso   1.00
C747   C     0.21521   0.89597   0.81189   0.00000  Uiso   1.00
C748   C     0.22458   0.60442   0.79914   0.00000  Uiso   1.00
C749   C     0.28479   0.89597   0.85478   0.00000  Uiso   1.00
C750   C     0.27351   0.55405   0.87019   0.00000  Uiso   1.00
C751   C     0.21154   0.94576   0.81912   0.00000  Uiso   1.00
C752   C     0.22650   0.55405   0.79648   0.00000  Uiso   1.00
Cl753  Cl    0.31175   0.63399   0.90976   0.00000  Uiso   1.00
Cl754  Cl    0.37984   0.64941   0.80508   0.00000  Uiso   1.00
Cl755  Cl    0.37909   0.84529   0.79080   0.00000  Uiso   1.00
Cl756  Cl    0.12016   0.64941   0.86159   0.00000  Uiso   1.00
Cl757  Cl    0.17545   0.86872   0.77182   0.00000  Uiso   1.00
Cl758  Cl    0.18825   0.63399   0.75691   0.00000  Uiso   1.00
Cl759  Cl    0.32455   0.86872   0.89485   0.00000  Uiso   1.00
Cl760  Cl    0.01861   0.83791   0.88710   0.00000  Uiso   1.00
Cl761  Cl    0.47957   0.65933   0.78061   0.00000  Uiso   1.00
Cl762  Cl    0.48139   0.83791   0.77957   0.00000  Uiso   1.00
Cl763  Cl    0.02043   0.65933   0.88606   0.00000  Uiso   1.00
Cl764  Cl    0.12091   0.84529   0.87587   0.00000  Uiso   1.00
Cu765  Cu    0.25000   0.79821   0.83333   0.00000  Uiso   1.00
Cu766  Cu    0.25000   0.70178   0.83333   0.00000  Uiso   1.00
H767   H     0.24199   0.99234   0.93076   0.00000  Uiso   1.00
H768   H     0.32982   0.50795   0.79280   0.00000  Uiso   1.00
H769   H     0.34877   0.94630   0.78712   0.00000  Uiso   1.00
H770   H     0.38281   0.98998   0.81885   0.00000  Uiso   1.00
H771   H     0.24856   0.55219   0.95678   0.00000  Uiso   1.00
H772   H     0.28548   0.50418   0.97583   0.00000  Uiso   1.00
H773   H     0.17018   0.50796   0.87387   0.00000  Uiso   1.00
H774   H     0.15123   0.94630   0.87955   0.00000  Uiso   1.00
H775   H     0.11719   0.98998   0.84782   0.00000  Uiso   1.00
H776   H     0.25800   0.99232   0.73591   0.00000  Uiso   1.00
H777   H     0.25146   0.55218   0.70990   0.00000  Uiso   1.00
H778   H     0.21452   0.50418   0.69084   0.00000  Uiso   1.00
N779   N     0.25000   0.62934   0.83333   0.00000  Uiso   1.00
N780   N     0.25000   0.87065   0.83333   0.00000  Uiso   1.00
O781   O     0.18573   0.79071   0.83334   0.00000  Uiso   1.00
O782   O     0.17054   0.96706   0.81001   0.00000  Uiso   1.00
O783   O     0.20350   0.53165   0.75819   0.00000  Uiso   1.00
O784   O     0.32947   0.96706   0.85666   0.00000  Uiso   1.00
O785   O     0.31427   0.70928   0.83333   0.00000  Uiso   1.00
O786   O     0.31427   0.79071   0.83333   0.00000  Uiso   1.00
O787   O     0.18573   0.70928   0.83334   0.00000  Uiso   1.00
O788   O     0.25000   0.79071   0.76280   0.00000  Uiso   1.00
O789   O     0.25000   0.70929   0.90387   0.00000  Uiso   1.00
O790   O     0.25000   0.79071   0.90387   0.00000  Uiso   1.00
O791   O     0.25000   0.70929   0.76280   0.00000  Uiso   1.00
O792   O     0.29650   0.53165   0.90847   0.00000  Uiso   1.00
C793   C     0.66501   0.74987   0.83777   0.00000  Uiso   1.00
C794   C     0.78846   0.94576   0.84754   0.00000  Uiso   1.00
C795   C     0.74987   0.75000   0.74022   0.00000  Uiso   1.00
C796   C     0.75013   0.75000   0.92645   0.00000  Uiso   1.00
C797   C     0.75000   0.52737   0.83333   0.00000  Uiso   1.00
C798   C     0.75000   0.97268   0.83333   0.00000  Uiso   1.00
C799   C     0.74996   0.75000   0.68849   0.00000  Uiso   1.00
C800   C     0.75004   0.75000   0.97818   0.00000  Uiso   1.00
C801   C     0.54660   0.79126   0.85713   0.00000  Uiso   1.00
C802   C     0.95311   0.70622   0.81193   0.00000  Uiso   1.00
C803   C     0.95340   0.79126   0.80954   0.00000  Uiso   1.00
C804   C     0.83499   0.74987   0.82890   0.00000  Uiso   1.00
C805   C     0.54689   0.70622   0.85474   0.00000  Uiso   1.00
C806   C     0.59326   0.79206   0.85707   0.00000  Uiso   1.00
C807   C     0.90672   0.70540   0.81409   0.00000  Uiso   1.00
C808   C     0.90674   0.79206   0.80959   0.00000  Uiso   1.00
C809   C     0.59328   0.70540   0.85258   0.00000  Uiso   1.00
C810   C     0.61666   0.74923   0.84721   0.00000  Uiso   1.00
C811   C     0.88334   0.74923   0.81946   0.00000  Uiso   1.00
C812   C     0.52378   0.74892   0.84336   0.00000  Uiso   1.00
C813   C     0.97622   0.74892   0.82331   0.00000  Uiso   1.00
C814   C     0.76632   0.51981   0.94418   0.00000  Uiso   1.00
C815   C     0.77542   0.60442   0.86752   0.00000  Uiso   1.00
C816   C     0.65202   0.97808   0.85506   0.00000  Uiso   1.00
C817   C     0.73369   0.51981   0.72249   0.00000  Uiso   1.00
C818   C     0.84798   0.97808   0.81160   0.00000  Uiso   1.00
C819   C     0.71521   0.89597   0.81189   0.00000  Uiso   1.00
C820   C     0.72458   0.60442   0.79914   0.00000  Uiso   1.00
C821   C     0.78479   0.89597   0.85478   0.00000  Uiso   1.00
C822   C     0.77351   0.55405   0.87019   0.00000  Uiso   1.00
C823   C     0.71154   0.94576   0.81912   0.00000  Uiso   1.00
C824   C     0.72650   0.55405   0.79648   0.00000  Uiso   1.00
Cl825  Cl    0.81175   0.63399   0.90976   0.00000  Uiso   1.00
Cl826  Cl    0.87984   0.64941   0.80508   0.00000  Uiso   1.00
Cl827  Cl    0.87909   0.84529   0.79080   0.00000  Uiso   1.00
Cl828  Cl    0.62016   0.64941   0.86159   0.00000  Uiso   1.00
Cl829  Cl    0.67545   0.86872   0.77182   0.00000  Uiso   1.00
Cl830  Cl    0.68825   0.63399   0.75691   0.00000  Uiso   1.00
Cl831  Cl    0.82455   0.86872   0.89485   0.00000  Uiso   1.00
Cl832  Cl    0.51861   0.83791   0.88710   0.00000  Uiso   1.00
Cl833  Cl    0.97957   0.65933   0.78061   0.00000  Uiso   1.00
Cl834  Cl    0.98139   0.83791   0.77957   0.00000  Uiso   1.00
Cl835  Cl    0.52043   0.65933   0.88606   0.00000  Uiso   1.00
Cl836  Cl    0.62091   0.84529   0.87587   0.00000  Uiso   1.00
Cu837  Cu    0.75000   0.79821   0.83333   0.00000  Uiso   1.00
Cu838  Cu    0.75000   0.70178   0.83333   0.00000  Uiso   1.00
H839   H     0.74199   0.99234   0.93076   0.00000  Uiso   1.00
H840   H     0.82982   0.50795   0.79280   0.00000  Uiso   1.00
H841   H     0.84877   0.94630   0.78712   0.00000  Uiso   1.00
H842   H     0.88281   0.98998   0.81885   0.00000  Uiso   1.00
H843   H     0.74856   0.55219   0.95678   0.00000  Uiso   1.00
H844   H     0.78548   0.50418   0.97583   0.00000  Uiso   1.00
H845   H     0.67018   0.50796   0.87387   0.00000  Uiso   1.00
H846   H     0.65123   0.94630   0.87955   0.00000  Uiso   1.00
H847   H     0.61719   0.98998   0.84782   0.00000  Uiso   1.00
H848   H     0.75800   0.99232   0.73591   0.00000  Uiso   1.00
H849   H     0.75146   0.55218   0.70990   0.00000  Uiso   1.00
H850   H     0.71452   0.50418   0.69084   0.00000  Uiso   1.00
N851   N     0.75000   0.62934   0.83333   0.00000  Uiso   1.00
N852   N     0.75000   0.87065   0.83333   0.00000  Uiso   1.00
O853   O     0.68573   0.79071   0.83334   0.00000  Uiso   1.00
O854   O     0.67054   0.96706   0.81001   0.00000  Uiso   1.00
O855   O     0.70350   0.53165   0.75819   0.00000  Uiso   1.00
O856   O     0.82947   0.96706   0.85666   0.00000  Uiso   1.00
O857   O     0.81427   0.70928   0.83333   0.00000  Uiso   1.00
O858   O     0.81427   0.79071   0.83333   0.00000  Uiso   1.00
O859   O     0.68573   0.70928   0.83334   0.00000  Uiso   1.00
O860   O     0.75000   0.79071   0.76280   0.00000  Uiso   1.00
O861   O     0.75000   0.70929   0.90387   0.00000  Uiso   1.00
O862   O     0.75000   0.79071   0.90387   0.00000  Uiso   1.00
O863   O     0.75000   0.70929   0.76280   0.00000  Uiso   1.00
O864   O     0.79650   0.53165   0.90847   0.00000  Uiso   1.00
loop_
_geom_bond_atom_site_label_1
_geom_bond_atom_site_label_2
_geom_bond_distance
_geom_bond_site_symmetry_2
_ccdc_geom_bond_type
C1     C18     1.490   .     S
C1     O67     1.302   .     A
C1     O61     1.308   .     A
C2     C6      1.420   .     A
C2     O64     1.383   .     S
C2     C29     1.410   .     A
C3     O71     1.294   .     A
C3     O68     1.294   .     A
C3     C7      1.416   .     S
C4     C8      1.416   .     S
C4     O70     1.294   .     A
C4     O69     1.294   .     A
C5     C32     1.417   .     A
C5     C30     1.417   .     A
C5     C150    1.528   1_545 S
C6     C31     1.420   .     A
C6     C149    1.528   .     S
C7     C584    1.195   1_554 S
C8     C295    1.195   .     S
C9     C14     1.405   .     A
C9     C20     1.410   .     A
C9     Cl40    1.773   .     S
C10    C21     1.409   .     A
C10    C15     1.401   .     A
C10    Cl41    1.774   .     S
C11    C16     1.405   .     A
C11    Cl42    1.773   .     S
C11    C21     1.410   .     A
C12    C19     1.490   .     S
C12    O65     1.302   .     A
C12    O66     1.308   .     A
C13    C17     1.401   .     A
C13    Cl43    1.774   .     S
C13    C20     1.409   .     A
C14    C18     1.421   .     A
C14    Cl44    1.769   .     S
C15    Cl34    1.773   .     S
C15    C19     1.423   .     A
C16    Cl35    1.769   .     S
C16    C19     1.421   .     A
C17    Cl36    1.773   .     S
C17    C18     1.423   .     A
C20    C93     1.510   1_455 S
C21    C92     1.510   .     S
C22    H52     1.108   .     S
C22    O72     1.404   .     S
C22    H51     1.113   .     S
C22    H191    1.112   1_545 S
C23    N59     1.372   .     A
C23    C30     1.410   .     A
C23    Cl33    1.761   .     S
C24    H54     1.113   .     S
C24    H55     1.109   .     S
C24    O62     1.411   .     S
C24    H197    1.111   .     S
C25    H57     1.113   .     S
C25    O63     1.404   .     S
C25    H58     1.108   .     S
C25    H200    1.112   1_545 S
C26    H50     1.109   .     S
C26    H49     1.113   .     S
C26    O64     1.411   .     S
C26    H192    1.111   .     S
C27    Cl37    1.759   .     S
C27    N60     1.373   .     A
C27    C31     1.410   .     A
C28    Cl38    1.761   .     S
C28    C32     1.410   .     A
C28    N59     1.372   .     A
C29    N60     1.373   .     A
C29    Cl39    1.759   .     S
C30    O72     1.379   .     S
C31    O62     1.383   .     S
C32    O63     1.379   .     S
Cu45   N60     2.023   .     S
Cu45   O68     1.942   .     S
Cu45   Cu46    2.693   .     S
Cu45   O61     1.946   .     S
Cu45   O66     1.946   .     S
Cu45   O70     1.942   .     S
Cu46   N59     2.023   .     S
Cu46   O71     1.942   .     S
Cu46   O65     1.946   .     S
Cu46   O69     1.942   .     S
Cu46   O67     1.946   .     S
H47    C166    1.112   .     S
H48    C170    1.111   1_545 S
H53    C168    1.111   1_545 S
H56    C169    1.112   .     S
C73    C90     1.490   .     S
C73    O139    1.302   .     A
C73    O133    1.308   .     A
C74    C78     1.420   .     A
C74    O136    1.383   .     S
C74    C101    1.410   .     A
C75    O143    1.294   .     A
C75    O140    1.294   .     A
C75    C79     1.416   .     S
C76    C80     1.416   .     S
C76    O142    1.294   .     A
C76    O141    1.294   .     A
C77    C104    1.417   .     A
C77    C102    1.417   .     A
C77    C222    1.528   1_545 S
C78    C103    1.420   .     A
C78    C221    1.528   .     S
C79    C656    1.195   1_554 S
C80    C367    1.195   .     S
C81    C86     1.405   .     A
C81    C92     1.410   .     A
C81    Cl112   1.773   .     S
C82    C93     1.409   .     A
C82    C87     1.401   .     A
C82    Cl113   1.774   .     S
C83    C88     1.405   .     A
C83    Cl114   1.773   .     S
C83    C93     1.410   .     A
C84    C91     1.490   .     S
C84    O137    1.302   .     A
C84    O138    1.308   .     A
C85    C89     1.401   .     A
C85    Cl115   1.774   .     S
C85    C92     1.409   .     A
C86    C90     1.421   .     A
C86    Cl116   1.769   .     S
C87    Cl106   1.773   .     S
C87    C91     1.423   .     A
C88    Cl107   1.769   .     S
C88    C91     1.421   .     A
C89    Cl108   1.773   .     S
C89    C90     1.423   .     A
C93    C20     1.510   1_655 S
C94    H124    1.108   .     S
C94    O144    1.404   .     S
C94    H123    1.113   .     S
C94    H263    1.112   1_545 S
C95    N131    1.372   .     A
C95    C102    1.410   .     A
C95    Cl105   1.761   .     S
C96    H126    1.113   .     S
C96    H127    1.109   .     S
C96    O134    1.411   .     S
C96    H269    1.111   .     S
C97    H129    1.113   .     S
C97    O135    1.404   .     S
C97    H130    1.108   .     S
C97    H272    1.112   1_545 S
C98    H122    1.109   .     S
C98    H121    1.113   .     S
C98    O136    1.411   .     S
C98    H264    1.111   .     S
C99    Cl109   1.759   .     S
C99    N132    1.373   .     A
C99    C103    1.410   .     A
C100   Cl110   1.761   .     S
C100   C104    1.410   .     A
C100   N131    1.372   .     A
C101   N132    1.373   .     A
C101   Cl111   1.759   .     S
C102   O144    1.379   .     S
C103   O134    1.383   .     S
C104   O135    1.379   .     S
Cu117  N132    2.023   .     S
Cu117  O140    1.942   .     S
Cu117  Cu118   2.693   .     S
Cu117  O133    1.946   .     S
Cu117  O138    1.946   .     S
Cu117  O142    1.942   .     S
Cu118  N131    2.023   .     S
Cu118  O143    1.942   .     S
Cu118  O137    1.946   .     S
Cu118  O141    1.942   .     S
Cu118  O139    1.946   .     S
H119   C238    1.112   .     S
H120   C242    1.111   1_545 S
H125   C240    1.111   1_545 S
H128   C241    1.112   .     S
C145   C162    1.490   .     S
C145   O211    1.302   .     A
C145   O205    1.308   .     A
C146   C150    1.420   .     A
C146   O208    1.383   .     S
C146   C173    1.410   .     A
C147   O215    1.294   .     A
C147   O212    1.294   .     A
C147   C151    1.416   .     S
C148   C152    1.416   .     S
C148   O214    1.294   .     A
C148   O213    1.294   .     A
C149   C176    1.417   .     A
C149   C174    1.417   .     A
C150   C175    1.420   .     A
C150   C5      1.528   1_565 S
C151   C728    1.195   1_554 S
C152   C439    1.195   .     S
C153   C158    1.405   .     A
C153   C164    1.410   .     A
C153   Cl184   1.773   .     S
C154   C165    1.409   .     A
C154   C159    1.401   .     A
C154   Cl185   1.774   .     S
C155   C160    1.405   .     A
C155   Cl186   1.773   .     S
C155   C165    1.410   .     A
C156   C163    1.490   .     S
C156   O209    1.302   .     A
C156   O210    1.308   .     A
C157   C161    1.401   .     A
C157   Cl187   1.774   .     S
C157   C164    1.409   .     A
C158   C162    1.421   .     A
C158   Cl188   1.769   .     S
C159   Cl178   1.773   .     S
C159   C163    1.423   .     A
C160   Cl179   1.769   .     S
C160   C163    1.421   .     A
C161   Cl180   1.773   .     S
C161   C162    1.423   .     A
C164   C237    1.510   1_455 S
C165   C236    1.510   .     S
C166   H196    1.108   .     S
C166   O216    1.404   .     S
C166   H195    1.113   .     S
C167   N203    1.372   .     A
C167   C174    1.410   .     A
C167   Cl177   1.761   .     S
C168   H198    1.113   .     S
C168   H199    1.109   .     S
C168   O206    1.411   .     S
C168   H53     1.111   1_565 S
C169   H201    1.113   .     S
C169   O207    1.404   .     S
C169   H202    1.108   .     S
C170   H194    1.109   .     S
C170   H193    1.113   .     S
C170   O208    1.411   .     S
C170   H48     1.111   1_565 S
C171   Cl181   1.759   .     S
C171   N204    1.373   .     A
C171   C175    1.410   .     A
C172   Cl182   1.761   .     S
C172   C176    1.410   .     A
C172   N203    1.372   .     A
C173   N204    1.373   .     A
C173   Cl183   1.759   .     S
C174   O216    1.379   .     S
C175   O206    1.383   .     S
C176   O207    1.379   .     S
Cu189  N204    2.023   .     S
Cu189  O212    1.942   .     S
Cu189  Cu190   2.693   .     S
Cu189  O205    1.946   .     S
Cu189  O210    1.946   .     S
Cu189  O214    1.942   .     S
Cu190  N203    2.023   .     S
Cu190  O215    1.942   .     S
Cu190  O209    1.946   .     S
Cu190  O213    1.942   .     S
Cu190  O211    1.946   .     S
H191   C22     1.112   1_565 S
H200   C25     1.112   1_565 S
C217   C234    1.490   .     S
C217   O283    1.302   .     A
C217   O277    1.308   .     A
C218   C222    1.420   .     A
C218   O280    1.383   .     S
C218   C245    1.410   .     A
C219   O287    1.294   .     A
C219   O284    1.294   .     A
C219   C223    1.416   .     S
C220   C224    1.416   .     S
C220   O286    1.294   .     A
C220   O285    1.294   .     A
C221   C248    1.417   .     A
C221   C246    1.417   .     A
C222   C247    1.420   .     A
C222   C77     1.528   1_565 S
C223   C800    1.195   1_554 S
C224   C511    1.195   .     S
C225   C230    1.405   .     A
C225   C236    1.410   .     A
C225   Cl256   1.773   .     S
C226   C237    1.409   .     A
C226   C231    1.401   .     A
C226   Cl257   1.774   .     S
C227   C232    1.405   .     A
C227   Cl258   1.773   .     S
C227   C237    1.410   .     A
C228   C235    1.490   .     S
C228   O281    1.302   .     A
C228   O282    1.308   .     A
C229   C233    1.401   .     A
C229   Cl259   1.774   .     S
C229   C236    1.409   .     A
C230   C234    1.421   .     A
C230   Cl260   1.769   .     S
C231   Cl250   1.773   .     S
C231   C235    1.423   .     A
C232   Cl251   1.769   .     S
C232   C235    1.421   .     A
C233   Cl252   1.773   .     S
C233   C234    1.423   .     A
C237   C164    1.510   1_655 S
C238   H268    1.108   .     S
C238   O288    1.404   .     S
C238   H267    1.113   .     S
C239   N275    1.372   .     A
C239   C246    1.410   .     A
C239   Cl249   1.761   .     S
C240   H270    1.113   .     S
C240   H271    1.109   .     S
C240   O278    1.411   .     S
C240   H125    1.111   1_565 S
C241   H273    1.113   .     S
C241   O279    1.404   .     S
C241   H274    1.108   .     S
C242   H266    1.109   .     S
C242   H265    1.113   .     S
C242   O280    1.411   .     S
C242   H120    1.111   1_565 S
C243   Cl253   1.759   .     S
C243   N276    1.373   .     A
C243   C247    1.410   .     A
C244   Cl254   1.761   .     S
C244   C248    1.410   .     A
C244   N275    1.372   .     A
C245   N276    1.373   .     A
C245   Cl255   1.759   .     S
C246   O288    1.379   .     S
C247   O278    1.383   .     S
C248   O279    1.379   .     S
Cu261  N276    2.023   .     S
Cu261  O284    1.942   .     S
Cu261  Cu262   2.693   .     S
Cu261  O277    1.946   .     S
Cu261  O282    1.946   .     S
Cu261  O286    1.942   .     S
Cu262  N275    2.023   .     S
Cu262  O287    1.942   .     S
Cu262  O281    1.946   .     S
Cu262  O285    1.942   .     S
Cu262  O283    1.946   .     S
H263   C94     1.112   1_565 S
H272   C97     1.112   1_565 S
C289   C306    1.490   .     S
C289   O355    1.302   .     A
C289   O349    1.308   .     A
C290   C294    1.420   .     A
C290   O352    1.383   .     S
C290   C317    1.410   .     A
C291   O359    1.294   .     A
C291   O356    1.294   .     A
C291   C295    1.416   .     S
C292   C296    1.416   .     S
C292   O358    1.294   .     A
C292   O357    1.294   .     A
C293   C320    1.417   .     A
C293   C318    1.417   .     A
C293   C438    1.528   1_545 S
C294   C319    1.420   .     A
C294   C437    1.528   .     S
C296   C583    1.195   .     S
C297   C302    1.405   .     A
C297   C308    1.410   .     A
C297   Cl328   1.773   .     S
C298   C309    1.409   .     A
C298   C303    1.401   .     A
C298   Cl329   1.774   .     S
C299   C304    1.405   .     A
C299   Cl330   1.773   .     S
C299   C309    1.410   .     A
C300   C307    1.490   .     S
C300   O353    1.302   .     A
C300   O354    1.308   .     A
C301   C305    1.401   .     A
C301   Cl331   1.774   .     S
C301   C308    1.409   .     A
C302   C306    1.421   .     A
C302   Cl332   1.769   .     S
C303   Cl322   1.773   .     S
C303   C307    1.423   .     A
C304   Cl323   1.769   .     S
C304   C307    1.421   .     A
C305   Cl324   1.773   .     S
C305   C306    1.423   .     A
C308   C381    1.510   1_455 S
C309   C380    1.510   .     S
C310   H340    1.108   .     S
C310   O360    1.404   .     S
C310   H339    1.113   .     S
C310   H479    1.112   1_545 S
C311   N347    1.372   .     A
C311   C318    1.410   .     A
C311   Cl321   1.761   .     S
C312   H342    1.113   .     S
C312   H343    1.109   .     S
C312   O350    1.411   .     S
C312   H485    1.111   .     S
C313   H345    1.113   .     S
C313   O351    1.404   .     S
C313   H346    1.108   .     S
C313   H488    1.112   1_545 S
C314   H338    1.109   .     S
C314   H337    1.113   .     S
C314   O352    1.411   .     S
C314   H480    1.111   .     S
C315   Cl325   1.759   .     S
C315   N348    1.373   .     A
C315   C319    1.410   .     A
C316   Cl326   1.761   .     S
C316   C320    1.410   .     A
C316   N347    1.372   .     A
C317   N348    1.373   .     A
C317   Cl327   1.759   .     S
C318   O360    1.379   .     S
C319   O350    1.383   .     S
C320   O351    1.379   .     S
Cu333  N348    2.023   .     S
Cu333  O356    1.942   .     S
Cu333  Cu334   2.693   .     S
Cu333  O349    1.946   .     S
Cu333  O354    1.946   .     S
Cu333  O358    1.942   .     S
Cu334  N347    2.023   .     S
Cu334  O359    1.942   .     S
Cu334  O353    1.946   .     S
Cu334  O357    1.942   .     S
Cu334  O355    1.946   .     S
H335   C454    1.112   .     S
H336   C458    1.111   1_545 S
H341   C456    1.111   1_545 S
H344   C457    1.112   .     S
C361   C378    1.490   .     S
C361   O427    1.302   .     A
C361   O421    1.308   .     A
C362   C366    1.420   .     A
C362   O424    1.383   .     S
C362   C389    1.410   .     A
C363   O431    1.294   .     A
C363   O428    1.294   .     A
C363   C367    1.416   .     S
C364   C368    1.416   .     S
C364   O430    1.294   .     A
C364   O429    1.294   .     A
C365   C392    1.417   .     A
C365   C390    1.417   .     A
C365   C510    1.528   1_545 S
C366   C391    1.420   .     A
C366   C509    1.528   .     S
C368   C655    1.195   .     S
C369   C374    1.405   .     A
C369   C380    1.410   .     A
C369   Cl400   1.773   .     S
C370   C381    1.409   .     A
C370   C375    1.401   .     A
C370   Cl401   1.774   .     S
C371   C376    1.405   .     A
C371   Cl402   1.773   .     S
C371   C381    1.410   .     A
C372   C379    1.490   .     S
C372   O425    1.302   .     A
C372   O426    1.308   .     A
C373   C377    1.401   .     A
C373   Cl403   1.774   .     S
C373   C380    1.409   .     A
C374   C378    1.421   .     A
C374   Cl404   1.769   .     S
C375   Cl394   1.773   .     S
C375   C379    1.423   .     A
C376   Cl395   1.769   .     S
C376   C379    1.421   .     A
C377   Cl396   1.773   .     S
C377   C378    1.423   .     A
C381   C308    1.510   1_655 S
C382   H412    1.108   .     S
C382   O432    1.404   .     S
C382   H411    1.113   .     S
C382   H551    1.112   1_545 S
C383   N419    1.372   .     A
C383   C390    1.410   .     A
C383   Cl393   1.761   .     S
C384   H414    1.113   .     S
C384   H415    1.109   .     S
C384   O422    1.411   .     S
C384   H557    1.111   .     S
C385   H417    1.113   .     S
C385   O423    1.404   .     S
C385   H418    1.108   .     S
C385   H560    1.112   1_545 S
C386   H410    1.109   .     S
C386   H409    1.113   .     S
C386   O424    1.411   .     S
C386   H552    1.111   .     S
C387   Cl397   1.759   .     S
C387   N420    1.373   .     A
C387   C391    1.410   .     A
C388   Cl398   1.761   .     S
C388   C392    1.410   .     A
C388   N419    1.372   .     A
C389   N420    1.373   .     A
C389   Cl399   1.759   .     S
C390   O432    1.379   .     S
C391   O422    1.383   .     S
C392   O423    1.379   .     S
Cu405  N420    2.023   .     S
Cu405  O428    1.942   .     S
Cu405  Cu406   2.693   .     S
Cu405  O421    1.946   .     S
Cu405  O426    1.946   .     S
Cu405  O430    1.942   .     S
Cu406  N419    2.023   .     S
Cu406  O431    1.942   .     S
Cu406  O425    1.946   .     S
Cu406  O429    1.942   .     S
Cu406  O427    1.946   .     S
H407   C526    1.112   .     S
H408   C530    1.111   1_545 S
H413   C528    1.111   1_545 S
H416   C529    1.112   .     S
C433   C450    1.490   .     S
C433   O499    1.302   .     A
C433   O493    1.308   .     A
C434   C438    1.420   .     A
C434   O496    1.383   .     S
C434   C461    1.410   .     A
C435   O503    1.294   .     A
C435   O500    1.294   .     A
C435   C439    1.416   .     S
C436   C440    1.416   .     S
C436   O502    1.294   .     A
C436   O501    1.294   .     A
C437   C464    1.417   .     A
C437   C462    1.417   .     A
C438   C463    1.420   .     A
C438   C293    1.528   1_565 S
C440   C727    1.195   .     S
C441   C446    1.405   .     A
C441   C452    1.410   .     A
C441   Cl472   1.773   .     S
C442   C453    1.409   .     A
C442   C447    1.401   .     A
C442   Cl473   1.774   .     S
C443   C448    1.405   .     A
C443   Cl474   1.773   .     S
C443   C453    1.410   .     A
C444   C451    1.490   .     S
C444   O497    1.302   .     A
C444   O498    1.308   .     A
C445   C449    1.401   .     A
C445   Cl475   1.774   .     S
C445   C452    1.409   .     A
C446   C450    1.421   .     A
C446   Cl476   1.769   .     S
C447   Cl466   1.773   .     S
C447   C451    1.423   .     A
C448   Cl467   1.769   .     S
C448   C451    1.421   .     A
C449   Cl468   1.773   .     S
C449   C450    1.423   .     A
C452   C525    1.510   1_455 S
C453   C524    1.510   .     S
C454   H484    1.108   .     S
C454   O504    1.404   .     S
C454   H483    1.113   .     S
C455   N491    1.372   .     A
C455   C462    1.410   .     A
C455   Cl465   1.761   .     S
C456   H486    1.113   .     S
C456   H487    1.109   .     S
C456   O494    1.411   .     S
C456   H341    1.111   1_565 S
C457   H489    1.113   .     S
C457   O495    1.404   .     S
C457   H490    1.108   .     S
C458   H482    1.109   .     S
C458   H481    1.113   .     S
C458   O496    1.411   .     S
C458   H336    1.111   1_565 S
C459   Cl469   1.759   .     S
C459   N492    1.373   .     A
C459   C463    1.410   .     A
C460   Cl470   1.761   .     S
C460   C464    1.410   .     A
C460   N491    1.372   .     A
C461   N492    1.373   .     A
C461   Cl471   1.759   .     S
C462   O504    1.379   .     S
C463   O494    1.383   .     S
C464   O495    1.379   .     S
Cu477  N492    2.023   .     S
Cu477  O500    1.942   .     S
Cu477  Cu478   2.693   .     S
Cu477  O493    1.946   .     S
Cu477  O498    1.946   .     S
Cu477  O502    1.942   .     S
Cu478  N491    2.023   .     S
Cu478  O503    1.942   .     S
Cu478  O497    1.946   .     S
Cu478  O501    1.942   .     S
Cu478  O499    1.946   .     S
H479   C310    1.112   1_565 S
H488   C313    1.112   1_565 S
C505   C522    1.490   .     S
C505   O571    1.302   .     A
C505   O565    1.308   .     A
C506   C510    1.420   .     A
C506   O568    1.383   .     S
C506   C533    1.410   .     A
C507   O575    1.294   .     A
C507   O572    1.294   .     A
C507   C511    1.416   .     S
C508   C512    1.416   .     S
C508   O574    1.294   .     A
C508   O573    1.294   .     A
C509   C536    1.417   .     A
C509   C534    1.417   .     A
C510   C535    1.420   .     A
C510   C365    1.528   1_565 S
C512   C799    1.195   .     S
C513   C518    1.405   .     A
C513   C524    1.410   .     A
C513   Cl544   1.773   .     S
C514   C525    1.409   .     A
C514   C519    1.401   .     A
C514   Cl545   1.774   .     S
C515   C520    1.405   .     A
C515   Cl546   1.773   .     S
C515   C525    1.410   .     A
C516   C523    1.490   .     S
C516   O569    1.302   .     A
C516   O570    1.308   .     A
C517   C521    1.401   .     A
C517   Cl547   1.774   .     S
C517   C524    1.409   .     A
C518   C522    1.421   .     A
C518   Cl548   1.769   .     S
C519   Cl538   1.773   .     S
C519   C523    1.423   .     A
C520   Cl539   1.769   .     S
C520   C523    1.421   .     A
C521   Cl540   1.773   .     S
C521   C522    1.423   .     A
C525   C452    1.510   1_655 S
C526   H556    1.108   .     S
C526   O576    1.404   .     S
C526   H555    1.113   .     S
C527   N563    1.372   .     A
C527   C534    1.410   .     A
C527   Cl537   1.761   .     S
C528   H558    1.113   .     S
C528   H559    1.109   .     S
C528   O566    1.411   .     S
C528   H413    1.111   1_565 S
C529   H561    1.113   .     S
C529   O567    1.404   .     S
C529   H562    1.108   .     S
C530   H554    1.109   .     S
C530   H553    1.113   .     S
C530   O568    1.411   .     S
C530   H408    1.111   1_565 S
C531   Cl541   1.759   .     S
C531   N564    1.373   .     A
C531   C535    1.410   .     A
C532   Cl542   1.761   .     S
C532   C536    1.410   .     A
C532   N563    1.372   .     A
C533   N564    1.373   .     A
C533   Cl543   1.759   .     S
C534   O576    1.379   .     S
C535   O566    1.383   .     S
C536   O567    1.379   .     S
Cu549  N564    2.023   .     S
Cu549  O572    1.942   .     S
Cu549  Cu550   2.693   .     S
Cu549  O565    1.946   .     S
Cu549  O570    1.946   .     S
Cu549  O574    1.942   .     S
Cu550  N563    2.023   .     S
Cu550  O575    1.942   .     S
Cu550  O569    1.946   .     S
Cu550  O573    1.942   .     S
Cu550  O571    1.946   .     S
H551   C382    1.112   1_565 S
H560   C385    1.112   1_565 S
C577   C594    1.490   .     S
C577   O643    1.302   .     A
C577   O637    1.308   .     A
C578   C582    1.420   .     A
C578   O640    1.383   .     S
C578   C605    1.410   .     A
C579   O647    1.294   .     A
C579   O644    1.294   .     A
C579   C583    1.416   .     S
C580   C584    1.416   .     S
C580   O646    1.294   .     A
C580   O645    1.294   .     A
C581   C608    1.417   .     A
C581   C606    1.417   .     A
C581   C726    1.528   1_545 S
C582   C607    1.420   .     A
C582   C725    1.528   .     S
C584   C7      1.195   1_556 S
C585   C590    1.405   .     A
C585   C596    1.410   .     A
C585   Cl616   1.773   .     S
C586   C597    1.409   .     A
C586   C591    1.401   .     A
C586   Cl617   1.774   .     S
C587   C592    1.405   .     A
C587   Cl618   1.773   .     S
C587   C597    1.410   .     A
C588   C595    1.490   .     S
C588   O641    1.302   .     A
C588   O642    1.308   .     A
C589   C593    1.401   .     A
C589   Cl619   1.774   .     S
C589   C596    1.409   .     A
C590   C594    1.421   .     A
C590   Cl620   1.769   .     S
C591   Cl610   1.773   .     S
C591   C595    1.423   .     A
C592   Cl611   1.769   .     S
C592   C595    1.421   .     A
C593   Cl612   1.773   .     S
C593   C594    1.423   .     A
C596   C669    1.510   1_455 S
C597   C668    1.510   .     S
C598   H628    1.108   .     S
C598   O648    1.404   .     S
C598   H627    1.113   .     S
C598   H767    1.112   1_545 S
C599   N635    1.372   .     A
C599   C606    1.410   .     A
C599   Cl609   1.761   .     S
C600   H630    1.113   .     S
C600   H631    1.109   .     S
C600   O638    1.411   .     S
C600   H773    1.111   .     S
C601   H633    1.113   .     S
C601   O639    1.404   .     S
C601   H634    1.108   .     S
C601   H776    1.112   1_545 S
C602   H626    1.109   .     S
C602   H625    1.113   .     S
C602   O640    1.411   .     S
C602   H768    1.111   .     S
C603   Cl613   1.759   .     S
C603   N636    1.373   .     A
C603   C607    1.410   .     A
C604   Cl614   1.761   .     S
C604   C608    1.410   .     A
C604   N635    1.372   .     A
C605   N636    1.373   .     A
C605   Cl615   1.759   .     S
C606   O648    1.379   .     S
C607   O638    1.383   .     S
C608   O639    1.379   .     S
Cu621  N636    2.023   .     S
Cu621  O644    1.942   .     S
Cu621  Cu622   2.693   .     S
Cu621  O637    1.946   .     S
Cu621  O642    1.946   .     S
Cu621  O646    1.942   .     S
Cu622  N635    2.023   .     S
Cu622  O647    1.942   .     S
Cu622  O641    1.946   .     S
Cu622  O645    1.942   .     S
Cu622  O643    1.946   .     S
H623   C742    1.112   .     S
H624   C746    1.111   1_545 S
H629   C744    1.111   1_545 S
H632   C745    1.112   .     S
C649   C666    1.490   .     S
C649   O715    1.302   .     A
C649   O709    1.308   .     A
C650   C654    1.420   .     A
C650   O712    1.383   .     S
C650   C677    1.410   .     A
C651   O719    1.294   .     A
C651   O716    1.294   .     A
C651   C655    1.416   .     S
C652   C656    1.416   .     S
C652   O718    1.294   .     A
C652   O717    1.294   .     A
C653   C680    1.417   .     A
C653   C678    1.417   .     A
C653   C798    1.528   1_545 S
C654   C679    1.420   .     A
C654   C797    1.528   .     S
C656   C79     1.195   1_556 S
C657   C662    1.405   .     A
C657   C668    1.410   .     A
C657   Cl688   1.773   .     S
C658   C669    1.409   .     A
C658   C663    1.401   .     A
C658   Cl689   1.774   .     S
C659   C664    1.405   .     A
C659   Cl690   1.773   .     S
C659   C669    1.410   .     A
C660   C667    1.490   .     S
C660   O713    1.302   .     A
C660   O714    1.308   .     A
C661   C665    1.401   .     A
C661   Cl691   1.774   .     S
C661   C668    1.409   .     A
C662   C666    1.421   .     A
C662   Cl692   1.769   .     S
C663   Cl682   1.773   .     S
C663   C667    1.423   .     A
C664   Cl683   1.769   .     S
C664   C667    1.421   .     A
C665   Cl684   1.773   .     S
C665   C666    1.423   .     A
C669   C596    1.510   1_655 S
C670   H700    1.108   .     S
C670   O720    1.404   .     S
C670   H699    1.113   .     S
C670   H839    1.112   1_545 S
C671   N707    1.372   .     A
C671   C678    1.410   .     A
C671   Cl681   1.761   .     S
C672   H702    1.113   .     S
C672   H703    1.109   .     S
C672   O710    1.411   .     S
C672   H845    1.111   .     S
C673   H705    1.113   .     S
C673   O711    1.404   .     S
C673   H706    1.108   .     S
C673   H848    1.112   1_545 S
C674   H698    1.109   .     S
C674   H697    1.113   .     S
C674   O712    1.411   .     S
C674   H840    1.111   .     S
C675   Cl685   1.759   .     S
C675   N708    1.373   .     A
C675   C679    1.410   .     A
C676   Cl686   1.761   .     S
C676   C680    1.410   .     A
C676   N707    1.372   .     A
C677   N708    1.373   .     A
C677   Cl687   1.759   .     S
C678   O720    1.379   .     S
C679   O710    1.383   .     S
C680   O711    1.379   .     S
Cu693  N708    2.023   .     S
Cu693  O716    1.942   .     S
Cu693  Cu694   2.693   .     S
Cu693  O709    1.946   .     S
Cu693  O714    1.946   .     S
Cu693  O718    1.942   .     S
Cu694  N707    2.023   .     S
Cu694  O719    1.942   .     S
Cu694  O713    1.946   .     S
Cu694  O717    1.942   .     S
Cu694  O715    1.946   .     S
H695   C814    1.112   .     S
H696   C818    1.111   1_545 S
H701   C816    1.111   1_545 S
H704   C817    1.112   .     S
C721   C738    1.490   .     S
C721   O787    1.302   .     A
C721   O781    1.308   .     A
C722   C726    1.420   .     A
C722   O784    1.383   .     S
C722   C749    1.410   .     A
C723   O791    1.294   .     A
C723   O788    1.294   .     A
C723   C727    1.416   .     S
C724   C728    1.416   .     S
C724   O790    1.294   .     A
C724   O789    1.294   .     A
C725   C752    1.417   .     A
C725   C750    1.417   .     A
C726   C751    1.420   .     A
C726   C581    1.528   1_565 S
C728   C151    1.195   1_556 S
C729   C734    1.405   .     A
C729   C740    1.410   .     A
C729   Cl760   1.773   .     S
C730   C741    1.409   .     A
C730   C735    1.401   .     A
C730   Cl761   1.774   .     S
C731   C736    1.405   .     A
C731   Cl762   1.773   .     S
C731   C741    1.410   .     A
C732   C739    1.490   .     S
C732   O785    1.302   .     A
C732   O786    1.308   .     A
C733   C737    1.401   .     A
C733   Cl763   1.774   .     S
C733   C740    1.409   .     A
C734   C738    1.421   .     A
C734   Cl764   1.769   .     S
C735   Cl754   1.773   .     S
C735   C739    1.423   .     A
C736   Cl755   1.769   .     S
C736   C739    1.421   .     A
C737   Cl756   1.773   .     S
C737   C738    1.423   .     A
C740   C813    1.510   1_455 S
C741   C812    1.510   .     S
C742   H772    1.108   .     S
C742   O792    1.404   .     S
C742   H771    1.113   .     S
C743   N779    1.372   .     A
C743   C750    1.410   .     A
C743   Cl753   1.761   .     S
C744   H774    1.113   .     S
C744   H775    1.109   .     S
C744   O782    1.411   .     S
C744   H629    1.111   1_565 S
C745   H777    1.113   .     S
C745   O783    1.404   .     S
C745   H778    1.108   .     S
C746   H770    1.109   .     S
C746   H769    1.113   .     S
C746   O784    1.411   .     S
C746   H624    1.111   1_565 S
C747   Cl757   1.759   .     S
C747   N780    1.373   .     A
C747   C751    1.410   .     A
C748   Cl758   1.761   .     S
C748   C752    1.410   .     A
C748   N779    1.372   .     A
C749   N780    1.373   .     A
C749   Cl759   1.759   .     S
C750   O792    1.379   .     S
C751   O782    1.383   .     S
C752   O783    1.379   .     S
Cu765  N780    2.023   .     S
Cu765  O788    1.942   .     S
Cu765  Cu766   2.693   .     S
Cu765  O781    1.946   .     S
Cu765  O786    1.946   .     S
Cu765  O790    1.942   .     S
Cu766  N779    2.023   .     S
Cu766  O791    1.942   .     S
Cu766  O785    1.946   .     S
Cu766  O789    1.942   .     S
Cu766  O787    1.946   .     S
H767   C598    1.112   1_565 S
H776   C601    1.112   1_565 S
C793   C810    1.490   .     S
C793   O859    1.302   .     A
C793   O853    1.308   .     A
C794   C798    1.420   .     A
C794   O856    1.383   .     S
C794   C821    1.410   .     A
C795   O863    1.294   .     A
C795   O860    1.294   .     A
C795   C799    1.416   .     S
C796   C800    1.416   .     S
C796   O862    1.294   .     A
C796   O861    1.294   .     A
C797   C824    1.417   .     A
C797   C822    1.417   .     A
C798   C823    1.420   .     A
C798   C653    1.528   1_565 S
C800   C223    1.195   1_556 S
C801   C806    1.405   .     A
C801   C812    1.410   .     A
C801   Cl832   1.773   .     S
C802   C813    1.409   .     A
C802   C807    1.401   .     A
C802   Cl833   1.774   .     S
C803   C808    1.405   .     A
C803   Cl834   1.773   .     S
C803   C813    1.410   .     A
C804   C811    1.490   .     S
C804   O857    1.302   .     A
C804   O858    1.308   .     A
C805   C809    1.401   .     A
C805   Cl835   1.774   .     S
C805   C812    1.409   .     A
C806   C810    1.421   .     A
C806   Cl836   1.769   .     S
C807   Cl826   1.773   .     S
C807   C811    1.423   .     A
C808   Cl827   1.769   .     S
C808   C811    1.421   .     A
C809   Cl828   1.773   .     S
C809   C810    1.423   .     A
C813   C740    1.510   1_655 S
C814   H844    1.108   .     S
C814   O864    1.404   .     S
C814   H843    1.113   .     S
C815   N851    1.372   .     A
C815   C822    1.410   .     A
C815   Cl825   1.761   .     S
C816   H846    1.113   .     S
C816   H847    1.109   .     S
C816   O854    1.411   .     S
C816   H701    1.111   1_565 S
C817   H849    1.113   .     S
C817   O855    1.404   .     S
C817   H850    1.108   .     S
C818   H842    1.109   .     S
C818   H841    1.113   .     S
C818   O856    1.411   .     S
C818   H696    1.111   1_565 S
C819   Cl829   1.759   .     S
C819   N852    1.373   .     A
C819   C823    1.410   .     A
C820   Cl830   1.761   .     S
C820   C824    1.410   .     A
C820   N851    1.372   .     A
C821   N852    1.373   .     A
C821   Cl831   1.759   .     S
C822   O864    1.379   .     S
C823   O854    1.383   .     S
C824   O855    1.379   .     S
Cu837  N852    2.023   .     S
Cu837  O860    1.942   .     S
Cu837  Cu838   2.693   .     S
Cu837  O853    1.946   .     S
Cu837  O858    1.946   .     S
Cu837  O862    1.942   .     S
Cu838  N851    2.023   .     S
Cu838  O863    1.942   .     S
Cu838  O857    1.946   .     S
Cu838  O861    1.942   .     S
Cu838  O859    1.946   .     S
H839   C670    1.112   1_565 S
H848   C673    1.112   1_565 S
