data_str_m1_o1_o17_pcu_sym.99
_audit_creation_date              2020-01-03
_audit_creation_method            'Materials Studio'
_symmetry_space_group_name_H-M    'P1'
_symmetry_Int_Tables_number       1
_symmetry_cell_setting            triclinic
loop_
_symmetry_equiv_pos_as_xyz
  x,y,z
_cell_length_a                    36.7586
_cell_length_b                    36.7588
_cell_length_c                    34.3973
_cell_angle_alpha                 89.9999
_cell_angle_beta                  89.9998
_cell_angle_gamma                 89.9904
loop_
_atom_site_label
_atom_site_type_symbol
_atom_site_fract_x
_atom_site_fract_y
_atom_site_fract_z
_atom_site_U_iso_or_equiv
_atom_site_adp_type
_atom_site_occupancy
C1     C     0.00255   0.28311   0.41791   0.00000  Uiso   1.00
C2     C     0.24743   0.46689   0.08209   0.00000  Uiso   1.00
C3     C     0.21636   0.49892   0.54117   0.00000  Uiso   1.00
C4     C     0.49937   0.28366   0.45884   0.00000  Uiso   1.00
C5     C     0.49890   0.21636   0.54117   0.00000  Uiso   1.00
C6     C     0.21634   0.00061   0.45884   0.00000  Uiso   1.00
C7     C     0.28364   0.00108   0.54117   0.00000  Uiso   1.00
C8     C     0.24889   0.46636   0.95883   0.00000  Uiso   1.00
C9     C     0.24940   0.03366   0.04116   0.00000  Uiso   1.00
C10    C     0.03364   0.25110   0.95883   0.00000  Uiso   1.00
C11    C     0.46634   0.25061   0.04116   0.00000  Uiso   1.00
C12    C     0.25111   0.03364   0.95883   0.00000  Uiso   1.00
C13    C     0.46686   0.25209   0.91791   0.00000  Uiso   1.00
C14    C     0.25060   0.46634   0.04116   0.00000  Uiso   1.00
C15    C     0.46636   0.24891   0.95883   0.00000  Uiso   1.00
C16    C     0.03366   0.24940   0.04116   0.00000  Uiso   1.00
C17    C     0.09808   0.34808   0.25000   0.00000  Uiso   1.00
C18    C     0.40192   0.15192   0.75000   0.00000  Uiso   1.00
C19    C     0.15192   0.09808   0.25000   0.00000  Uiso   1.00
C20    C     0.34808   0.40192   0.75000   0.00000  Uiso   1.00
C21    C     0.40192   0.15192   0.25000   0.00000  Uiso   1.00
C22    C     0.09808   0.34808   0.75000   0.00000  Uiso   1.00
C23    C     0.34808   0.40192   0.25000   0.00000  Uiso   1.00
C24    C     0.03311   0.25257   0.08209   0.00000  Uiso   1.00
C25    C     0.15192   0.09808   0.75000   0.00000  Uiso   1.00
C26    C     0.09808   0.15192   0.75000   0.00000  Uiso   1.00
C27    C     0.40192   0.34808   0.25000   0.00000  Uiso   1.00
C28    C     0.15192   0.40192   0.75000   0.00000  Uiso   1.00
C29    C     0.34808   0.09808   0.25000   0.00000  Uiso   1.00
C30    C     0.40192   0.34808   0.75000   0.00000  Uiso   1.00
C31    C     0.09808   0.15192   0.25000   0.00000  Uiso   1.00
C32    C     0.34808   0.09808   0.75000   0.00000  Uiso   1.00
C33    C     0.15192   0.40192   0.25000   0.00000  Uiso   1.00
C34    C     0.49999   0.25000   0.47940   0.00000  Uiso   1.00
C35    C     0.25208   0.46686   0.91791   0.00000  Uiso   1.00
C36    C     0.49999   0.25000   0.52060   0.00000  Uiso   1.00
C37    C     0.25000   0.49999   0.47940   0.00000  Uiso   1.00
C38    C     0.25000  -0.00000   0.52060   0.00000  Uiso   1.00
C39    C     0.25000  -0.00000   0.97939   0.00000  Uiso   1.00
C40    C     0.25000  -0.00000   0.02060   0.00000  Uiso   1.00
C41    C    -0.00000   0.25000   0.97939   0.00000  Uiso   1.00
C42    C    -0.00000   0.25000   0.02060   0.00000  Uiso   1.00
C43    C     0.14433   0.40955   0.17821   0.00000  Uiso   1.00
C44    C     0.39511   0.05020   0.74087   0.00000  Uiso   1.00
C45    C     0.05018   0.10488   0.25891   0.00000  Uiso   1.00
C46    C     0.25257   0.03311   0.08208   0.00000  Uiso   1.00
C47    C     0.40898   0.35505   0.82191   0.00000  Uiso   1.00
C48    C     0.35567   0.09045   0.17821   0.00000  Uiso   1.00
C49    C     0.10489   0.44981   0.74093   0.00000  Uiso   1.00
C50    C     0.44981   0.39511   0.25903   0.00000  Uiso   1.00
C51    C     0.09103   0.14496   0.82191   0.00000  Uiso   1.00
C52    C     0.14495   0.09102   0.82191   0.00000  Uiso   1.00
C53    C     0.39511   0.44981   0.25902   0.00000  Uiso   1.00
C54    C     0.05019   0.39511   0.74093   0.00000  Uiso   1.00
C55    C     0.40954   0.14434   0.17821   0.00000  Uiso   1.00
C56    C     0.35505   0.40898   0.82191   0.00000  Uiso   1.00
C57    C     0.03314   0.24791   0.91791   0.00000  Uiso   1.00
C58    C     0.10488   0.05018   0.25892   0.00000  Uiso   1.00
C59    C     0.44980   0.10489   0.74087   0.00000  Uiso   1.00
C60    C     0.09044   0.35567   0.17821   0.00000  Uiso   1.00
C61    C     0.35489   0.19980   0.75913   0.00000  Uiso   1.00
C62    C     0.10567   0.34045   0.32179   0.00000  Uiso   1.00
C63    C     0.34099   0.39492   0.67810   0.00000  Uiso   1.00
C64    C     0.19982   0.14512   0.24108   0.00000  Uiso   1.00
C65    C     0.14511   0.30019   0.75907   0.00000  Uiso   1.00
C66    C     0.39433   0.15955   0.32179   0.00000  Uiso   1.00
C67    C     0.15898   0.10506   0.67809   0.00000  Uiso   1.00
C68    C     0.46689   0.24744   0.08208   0.00000  Uiso   1.00
C69    C     0.30019   0.35489   0.24097   0.00000  Uiso   1.00
C70    C     0.35489   0.30019   0.24098   0.00000  Uiso   1.00
C71    C     0.10505   0.15898   0.67809   0.00000  Uiso   1.00
C72    C     0.34045   0.10566   0.32179   0.00000  Uiso   1.00
C73    C     0.19981   0.35489   0.75907   0.00000  Uiso   1.00
C74    C     0.14512   0.19982   0.24109   0.00000  Uiso   1.00
C75    C     0.39493   0.34100   0.67809   0.00000  Uiso   1.00
C76    C     0.15955   0.39433   0.32179   0.00000  Uiso   1.00
C77    C     0.30019   0.14511   0.75913   0.00000  Uiso   1.00
C78    C     0.01182   0.31535   0.39564   0.00000  Uiso   1.00
C79    C    -0.00000   0.25000   0.39799   0.00000  Uiso   1.00
C80    C     0.01094   0.18449   0.60436   0.00000  Uiso   1.00
C81    C     0.18464   0.48818   0.39563   0.00000  Uiso   1.00
C82    C     0.31550   0.48902   0.60437   0.00000  Uiso   1.00
C83    C     0.48817   0.18465   0.39563   0.00000  Uiso   1.00
C84    C     0.48904   0.31551   0.60437   0.00000  Uiso   1.00
C85    C     0.31535   0.01181   0.39563   0.00000  Uiso   1.00
C86    C     0.18450   0.01098   0.60436   0.00000  Uiso   1.00
C87    C     0.23906   0.06551   0.89563   0.00000  Uiso   1.00
C88    C     0.23816   0.43465   0.10437   0.00000  Uiso   1.00
C89    C     0.43449   0.26096   0.89563   0.00000  Uiso   1.00
C90    C    -0.00000   0.25000   0.60201   0.00000  Uiso   1.00
C91    C     0.06535   0.26183   0.10437   0.00000  Uiso   1.00
C92    C     0.26093   0.43449   0.89563   0.00000  Uiso   1.00
C93    C     0.26184   0.06535   0.10437   0.00000  Uiso   1.00
C94    C     0.06551   0.23905   0.89563   0.00000  Uiso   1.00
C95    C     0.43464   0.23818   0.10437   0.00000  Uiso   1.00
C96    C     0.25000  -0.00000   0.39799   0.00000  Uiso   1.00
C97    C     0.00209   0.21686   0.58209   0.00000  Uiso   1.00
C98    C     0.25000  -0.00000   0.60201   0.00000  Uiso   1.00
C99    C     0.25000  -0.00000   0.89798   0.00000  Uiso   1.00
C100   C     0.25000  -0.00000   0.10201   0.00000  Uiso   1.00
C101   C     0.00000   0.25000   0.89798   0.00000  Uiso   1.00
C102   C    -0.00000   0.25000   0.10201   0.00000  Uiso   1.00
C103   C     0.00270   0.18338   0.48003   0.00000  Uiso   1.00
C104   C     0.00363   0.31657   0.51998   0.00000  Uiso   1.00
C105   C     0.31662   0.49727   0.48003   0.00000  Uiso   1.00
C106   C     0.18343   0.49635   0.51999   0.00000  Uiso   1.00
C107   C     0.49726   0.31662   0.48002   0.00000  Uiso   1.00
C108   C     0.21689   0.49744   0.41792   0.00000  Uiso   1.00
C109   C     0.49632   0.18343   0.51998   0.00000  Uiso   1.00
C110   C     0.18338   0.00272   0.48003   0.00000  Uiso   1.00
C111   C     0.31657   0.00364   0.51998   0.00000  Uiso   1.00
C112   C     0.24630   0.43343   0.98001   0.00000  Uiso   1.00
C113   C     0.24732   0.06662   0.01997   0.00000  Uiso   1.00
C114   C     0.06657   0.25368   0.98001   0.00000  Uiso   1.00
C115   C     0.43338   0.25271   0.01997   0.00000  Uiso   1.00
C116   C     0.25370   0.06656   0.98001   0.00000  Uiso   1.00
C117   C     0.25268   0.43338   0.01997   0.00000  Uiso   1.00
C118   C     0.43343   0.24633   0.98001   0.00000  Uiso   1.00
C119   C     0.28314   0.49789   0.58209   0.00000  Uiso   1.00
C120   C     0.06662   0.24731   0.01997   0.00000  Uiso   1.00
C121   C     0.25000   0.00000   0.35563   0.00000  Uiso   1.00
C122   C     0.25000   0.00000   0.64438   0.00000  Uiso   1.00
C123   C    -0.00000   0.25000   0.35562   0.00000  Uiso   1.00
C124   C    -0.00000   0.25000   0.64438   0.00000  Uiso   1.00
C125   C     0.00000   0.25000   0.85562   0.00000  Uiso   1.00
C126   C     0.00000   0.25000   0.14438   0.00000  Uiso   1.00
C127   C     0.25000  -0.00000   0.85562   0.00000  Uiso   1.00
C128   C     0.25000  -0.00000   0.14437   0.00000  Uiso   1.00
C129   C     0.18003   0.06997   0.25000   0.00000  Uiso   1.00
C130   C     0.49743   0.21689   0.41791   0.00000  Uiso   1.00
C131   C     0.31998   0.43002   0.75000   0.00000  Uiso   1.00
C132   C     0.43002   0.18002   0.25000   0.00000  Uiso   1.00
C133   C     0.06997   0.31997   0.75000   0.00000  Uiso   1.00
C134   C     0.31997   0.43003   0.25000   0.00000  Uiso   1.00
C135   C     0.18002   0.06998   0.75000   0.00000  Uiso   1.00
C136   C     0.06998   0.31998   0.25000   0.00000  Uiso   1.00
C137   C     0.43003   0.18003   0.75000   0.00000  Uiso   1.00
C138   C     0.18003   0.43003   0.75000   0.00000  Uiso   1.00
C139   C     0.31998   0.06998   0.25000   0.00000  Uiso   1.00
C140   C     0.43002   0.31998   0.75000   0.00000  Uiso   1.00
C141   C     0.49790   0.28314   0.58209   0.00000  Uiso   1.00
C142   C     0.06997   0.18003   0.25000   0.00000  Uiso   1.00
C143   C     0.31997   0.06997   0.75000   0.00000  Uiso   1.00
C144   C     0.18002   0.43002   0.25000   0.00000  Uiso   1.00
C145   C     0.06998   0.18002   0.75000   0.00000  Uiso   1.00
C146   C     0.43003   0.31997   0.25000   0.00000  Uiso   1.00
C147   C     0.13442   0.39245   0.21484   0.00000  Uiso   1.00
C148   C     0.38496   0.08808   0.74618   0.00000  Uiso   1.00
C149   C     0.08807   0.11503   0.25371   0.00000  Uiso   1.00
C150   C     0.39217   0.36529   0.78523   0.00000  Uiso   1.00
C151   C     0.36558   0.10755   0.21484   0.00000  Uiso   1.00
C152   C     0.28311   0.00255   0.41791   0.00000  Uiso   1.00
C153   C     0.11504   0.41193   0.74621   0.00000  Uiso   1.00
C154   C     0.41193   0.38496   0.25377   0.00000  Uiso   1.00
C155   C     0.10784   0.13471   0.78523   0.00000  Uiso   1.00
C156   C     0.13471   0.10784   0.78523   0.00000  Uiso   1.00
C157   C     0.38496   0.41193   0.25377   0.00000  Uiso   1.00
C158   C     0.08807   0.38497   0.74621   0.00000  Uiso   1.00
C159   C     0.39244   0.13443   0.21484   0.00000  Uiso   1.00
C160   C     0.36529   0.39217   0.78523   0.00000  Uiso   1.00
C161   C     0.11503   0.08807   0.25371   0.00000  Uiso   1.00
C162   C     0.41192   0.11504   0.74618   0.00000  Uiso   1.00
C163   C     0.21686   0.00210   0.58209   0.00000  Uiso   1.00
C164   C     0.10755   0.36558   0.21484   0.00000  Uiso   1.00
C165   C     0.36504   0.16192   0.75382   0.00000  Uiso   1.00
C166   C     0.11558   0.35755   0.28516   0.00000  Uiso   1.00
C167   C     0.35782   0.38470   0.71477   0.00000  Uiso   1.00
C168   C     0.16193   0.13497   0.24629   0.00000  Uiso   1.00
C169   C     0.13497   0.33807   0.75379   0.00000  Uiso   1.00
C170   C     0.38442   0.14244   0.28516   0.00000  Uiso   1.00
C171   C     0.14217   0.11530   0.71477   0.00000  Uiso   1.00
C172   C     0.33807   0.36504   0.24623   0.00000  Uiso   1.00
C173   C     0.36504   0.33807   0.24623   0.00000  Uiso   1.00
C174   C     0.24792   0.03314   0.91791   0.00000  Uiso   1.00
C175   C     0.11529   0.14217   0.71477   0.00000  Uiso   1.00
C176   C     0.35756   0.11557   0.28516   0.00000  Uiso   1.00
C177   C     0.16193   0.36504   0.75379   0.00000  Uiso   1.00
C178   C     0.13497   0.16193   0.24629   0.00000  Uiso   1.00
C179   C     0.38470   0.35782   0.71477   0.00000  Uiso   1.00
C180   C     0.14245   0.38442   0.28516   0.00000  Uiso   1.00
C181   C     0.33808   0.13496   0.75382   0.00000  Uiso   1.00
C182   C     0.00060   0.21634   0.45884   0.00000  Uiso   1.00
C183   C     0.00107   0.28365   0.54117   0.00000  Uiso   1.00
C184   C     0.28366   0.49938   0.45884   0.00000  Uiso   1.00
I185   I     0.02643   0.13438   0.45704   0.00000  Uiso   1.00
I186   I     0.22361   0.11563   0.04296   0.00000  Uiso   1.00
I187   I     0.11519   0.27814   0.95699   0.00000  Uiso   1.00
I188   I     0.38438   0.27644   0.04296   0.00000  Uiso   1.00
I189   I     0.27817   0.11518   0.95699   0.00000  Uiso   1.00
I190   I     0.27639   0.38437   0.04296   0.00000  Uiso   1.00
I191   I     0.38480   0.22189   0.95699   0.00000  Uiso   1.00
I192   I     0.11562   0.22358   0.04296   0.00000  Uiso   1.00
I193   I     0.02803   0.36523   0.54300   0.00000  Uiso   1.00
I194   I     0.36561   0.47352   0.45703   0.00000  Uiso   1.00
I195   I     0.13479   0.47193   0.54301   0.00000  Uiso   1.00
I196   I     0.47350   0.36560   0.45701   0.00000  Uiso   1.00
I197   I     0.47187   0.13480   0.54301   0.00000  Uiso   1.00
I198   I     0.13439   0.02647   0.45703   0.00000  Uiso   1.00
I199   I     0.36521   0.02806   0.54300   0.00000  Uiso   1.00
I200   I     0.22183   0.38481   0.95699   0.00000  Uiso   1.00
N201   N     0.15194   0.42320   0.14900   0.00000  Uiso   1.00
N202   N     0.40317   0.47999   0.26322   0.00000  Uiso   1.00
N203   N     0.02001   0.40318   0.73672   0.00000  Uiso   1.00
N204   N     0.42318   0.15197   0.14900   0.00000  Uiso   1.00
N205   N     0.34716   0.42239   0.85116   0.00000  Uiso   1.00
N206   N     0.09681   0.01999   0.26307   0.00000  Uiso   1.00
N207   N     0.47999   0.09683   0.73663   0.00000  Uiso   1.00
N208   N     0.07680   0.34806   0.14900   0.00000  Uiso   1.00
N209   N     0.34683   0.22998   0.76337   0.00000  Uiso   1.00
N210   N     0.09806   0.32680   0.35100   0.00000  Uiso   1.00
N211   N     0.32757   0.40280   0.64885   0.00000  Uiso   1.00
N212   N     0.40317   0.02002   0.73662   0.00000  Uiso   1.00
N213   N     0.23001   0.15319   0.23693   0.00000  Uiso   1.00
N214   N     0.15318   0.27001   0.76329   0.00000  Uiso   1.00
N215   N     0.40195   0.17319   0.35100   0.00000  Uiso   1.00
N216   N     0.17240   0.09717   0.64884   0.00000  Uiso   1.00
N217   N     0.27001   0.34683   0.23677   0.00000  Uiso   1.00
N218   N     0.34683   0.27001   0.23678   0.00000  Uiso   1.00
N219   N     0.09716   0.17239   0.64884   0.00000  Uiso   1.00
N220   N     0.32681   0.09805   0.35100   0.00000  Uiso   1.00
N221   N     0.22999   0.34682   0.76329   0.00000  Uiso   1.00
N222   N     0.15319   0.23001   0.23694   0.00000  Uiso   1.00
N223   N     0.01999   0.09681   0.26307   0.00000  Uiso   1.00
N224   N     0.40281   0.32758   0.64885   0.00000  Uiso   1.00
N225   N     0.17320   0.40194   0.35100   0.00000  Uiso   1.00
N226   N     0.27001   0.15317   0.76338   0.00000  Uiso   1.00
N227   N     0.01930   0.34075   0.37740   0.00000  Uiso   1.00
N228   N     0.01810   0.15900   0.62260   0.00000  Uiso   1.00
N229   N     0.15925   0.48071   0.37740   0.00000  Uiso   1.00
N230   N     0.34100   0.48185   0.62260   0.00000  Uiso   1.00
N231   N     0.48070   0.15925   0.37739   0.00000  Uiso   1.00
N232   N     0.48188   0.34100   0.62261   0.00000  Uiso   1.00
N233   N     0.34075   0.01928   0.37740   0.00000  Uiso   1.00
N234   N     0.42239   0.34716   0.85116   0.00000  Uiso   1.00
N235   N     0.15901   0.01816   0.62259   0.00000  Uiso   1.00
N236   N     0.23190   0.09101   0.87741   0.00000  Uiso   1.00
N237   N     0.23069   0.40926   0.12261   0.00000  Uiso   1.00
N238   N     0.40900   0.26812   0.87740   0.00000  Uiso   1.00
N239   N     0.09075   0.26930   0.12261   0.00000  Uiso   1.00
N240   N     0.26808   0.40899   0.87740   0.00000  Uiso   1.00
N241   N     0.26931   0.09074   0.12261   0.00000  Uiso   1.00
N242   N     0.09100   0.23189   0.87740   0.00000  Uiso   1.00
N243   N     0.40925   0.23072   0.12261   0.00000  Uiso   1.00
N244   N     0.34806   0.07680   0.14900   0.00000  Uiso   1.00
N245   N     0.09682   0.47999   0.73670   0.00000  Uiso   1.00
N246   N     0.47999   0.40317   0.26323   0.00000  Uiso   1.00
N247   N     0.07763   0.15286   0.85116   0.00000  Uiso   1.00
N248   N     0.15285   0.07762   0.85116   0.00000  Uiso   1.00
O249   O     0.25000  -0.00000   0.25000   0.00000  Uiso   1.00
O250   O     0.25000   0.46964   0.66245   0.00000  Uiso   1.00
O251   O     0.46963   0.25000   0.33755   0.00000  Uiso   1.00
O252   O     0.03036   0.25000   0.66245   0.00000  Uiso   1.00
O253   O    -0.00000   0.21964   0.83755   0.00000  Uiso   1.00
O254   O     0.00000   0.28037   0.16245   0.00000  Uiso   1.00
O255   O     0.28036  -0.00000   0.83755   0.00000  Uiso   1.00
O256   O     0.21963   0.00000   0.16245   0.00000  Uiso   1.00
O257   O     0.00000   0.28037   0.83755   0.00000  Uiso   1.00
O258   O    -0.00000   0.21964   0.16245   0.00000  Uiso   1.00
O259   O     0.21963  -0.00000   0.83755   0.00000  Uiso   1.00
O260   O     0.25000  -0.00000   0.75000   0.00000  Uiso   1.00
O261   O     0.28036   0.00000   0.16245   0.00000  Uiso   1.00
O262   O     0.20724   0.07307   0.27302   0.00000  Uiso   1.00
O263   O     0.29275   0.42693   0.72698   0.00000  Uiso   1.00
O264   O     0.42692   0.20725   0.27302   0.00000  Uiso   1.00
O265   O     0.07307   0.29276   0.72698   0.00000  Uiso   1.00
O266   O     0.29275   0.42693   0.27302   0.00000  Uiso   1.00
O267   O     0.20724   0.07307   0.72698   0.00000  Uiso   1.00
O268   O     0.07307   0.29276   0.27302   0.00000  Uiso   1.00
O269   O     0.42692   0.20725   0.72698   0.00000  Uiso   1.00
O270   O     0.20724   0.42693   0.72698   0.00000  Uiso   1.00
O271   O    -0.00000   0.25000   0.25000   0.00000  Uiso   1.00
O272   O     0.29275   0.07307   0.27302   0.00000  Uiso   1.00
O273   O     0.42692   0.29276   0.72698   0.00000  Uiso   1.00
O274   O     0.07307   0.20725   0.27302   0.00000  Uiso   1.00
O275   O     0.29275   0.07307   0.72698   0.00000  Uiso   1.00
O276   O     0.20724   0.42693   0.27302   0.00000  Uiso   1.00
O277   O     0.07307   0.20725   0.72698   0.00000  Uiso   1.00
O278   O     0.42692   0.29276   0.27302   0.00000  Uiso   1.00
O279   O     0.45724   0.32308   0.77302   0.00000  Uiso   1.00
O280   O     0.04275   0.17693   0.22698   0.00000  Uiso   1.00
O281   O     0.17692   0.45725   0.77302   0.00000  Uiso   1.00
O282   O     0.00000   0.25000   0.75000   0.00000  Uiso   1.00
O283   O     0.32307   0.04275   0.22698   0.00000  Uiso   1.00
O284   O     0.04275   0.17693   0.77302   0.00000  Uiso   1.00
O285   O     0.45724   0.32308   0.22698   0.00000  Uiso   1.00
O286   O     0.32307   0.04275   0.77302   0.00000  Uiso   1.00
O287   O     0.17692   0.45725   0.22698   0.00000  Uiso   1.00
O288   O     0.45724   0.17692   0.22698   0.00000  Uiso   1.00
O289   O     0.04275   0.32308   0.77302   0.00000  Uiso   1.00
O290   O     0.17692   0.04275   0.22698   0.00000  Uiso   1.00
O291   O     0.32307   0.45725   0.77302   0.00000  Uiso   1.00
O292   O     0.04275   0.32308   0.22698   0.00000  Uiso   1.00
O293   O     0.25000   0.46964   0.33755   0.00000  Uiso   1.00
O294   O     0.45724   0.17692   0.77302   0.00000  Uiso   1.00
O295   O     0.32307   0.45725   0.22698   0.00000  Uiso   1.00
O296   O     0.17692   0.04275   0.77302   0.00000  Uiso   1.00
O297   O     0.25000   0.03036   0.66245   0.00000  Uiso   1.00
O298   O     0.03036   0.25000   0.33755   0.00000  Uiso   1.00
O299   O     0.46963   0.25000   0.66245   0.00000  Uiso   1.00
O300   O     0.25000   0.03036   0.33755   0.00000  Uiso   1.00
Zn301  Zn    0.20659  -0.00000   0.21735   0.00000  Uiso   1.00
Zn302  Zn    0.04340   0.25000   0.28265   0.00000  Uiso   1.00
Zn303  Zn    0.25000   0.45660   0.71735   0.00000  Uiso   1.00
Zn304  Zn    0.25000   0.04340   0.28265   0.00000  Uiso   1.00
Zn305  Zn    0.04340   0.25000   0.71735   0.00000  Uiso   1.00
Zn306  Zn    0.45659   0.25000   0.28265   0.00000  Uiso   1.00
Zn307  Zn    0.25000   0.04340   0.71735   0.00000  Uiso   1.00
Zn308  Zn    0.25000   0.45660   0.28265   0.00000  Uiso   1.00
Zn309  Zn    0.29340  -0.00000   0.78265   0.00000  Uiso   1.00
Zn310  Zn    0.00000   0.20660   0.21735   0.00000  Uiso   1.00
Zn311  Zn    0.00000   0.29341   0.78265   0.00000  Uiso   1.00
Zn312  Zn    0.29340  -0.00000   0.21735   0.00000  Uiso   1.00
Zn313  Zn    0.20659  -0.00000   0.78265   0.00000  Uiso   1.00
Zn314  Zn    0.00000   0.29341   0.21735   0.00000  Uiso   1.00
Zn315  Zn   -0.00000   0.20659   0.78265   0.00000  Uiso   1.00
Zn316  Zn    0.45659   0.25000   0.71735   0.00000  Uiso   1.00
C317   C     0.50255   0.28311   0.41791   0.00000  Uiso   1.00
C318   C     0.74743   0.46689   0.08209   0.00000  Uiso   1.00
C319   C     0.71636   0.49892   0.54117   0.00000  Uiso   1.00
C320   C     0.99937   0.28366   0.45884   0.00000  Uiso   1.00
C321   C     0.99890   0.21636   0.54117   0.00000  Uiso   1.00
C322   C     0.71634   0.00061   0.45884   0.00000  Uiso   1.00
C323   C     0.78364   0.00108   0.54117   0.00000  Uiso   1.00
C324   C     0.74889   0.46636   0.95883   0.00000  Uiso   1.00
C325   C     0.74940   0.03366   0.04116   0.00000  Uiso   1.00
C326   C     0.53364   0.25110   0.95883   0.00000  Uiso   1.00
C327   C     0.96634   0.25061   0.04116   0.00000  Uiso   1.00
C328   C     0.75111   0.03364   0.95883   0.00000  Uiso   1.00
C329   C     0.96686   0.25209   0.91791   0.00000  Uiso   1.00
C330   C     0.75060   0.46634   0.04116   0.00000  Uiso   1.00
C331   C     0.96636   0.24891   0.95883   0.00000  Uiso   1.00
C332   C     0.53366   0.24940   0.04116   0.00000  Uiso   1.00
C333   C     0.59808   0.34808   0.25000   0.00000  Uiso   1.00
C334   C     0.90192   0.15192   0.75000   0.00000  Uiso   1.00
C335   C     0.65192   0.09808   0.25000   0.00000  Uiso   1.00
C336   C     0.84808   0.40192   0.75000   0.00000  Uiso   1.00
C337   C     0.90192   0.15192   0.25000   0.00000  Uiso   1.00
C338   C     0.59808   0.34808   0.75000   0.00000  Uiso   1.00
C339   C     0.84808   0.40192   0.25000   0.00000  Uiso   1.00
C340   C     0.53311   0.25257   0.08209   0.00000  Uiso   1.00
C341   C     0.65192   0.09808   0.75000   0.00000  Uiso   1.00
C342   C     0.59808   0.15192   0.75000   0.00000  Uiso   1.00
C343   C     0.90192   0.34808   0.25000   0.00000  Uiso   1.00
C344   C     0.65192   0.40192   0.75000   0.00000  Uiso   1.00
C345   C     0.84808   0.09808   0.25000   0.00000  Uiso   1.00
C346   C     0.90192   0.34808   0.75000   0.00000  Uiso   1.00
C347   C     0.59808   0.15192   0.25000   0.00000  Uiso   1.00
C348   C     0.84808   0.09808   0.75000   0.00000  Uiso   1.00
C349   C     0.65192   0.40192   0.25000   0.00000  Uiso   1.00
C350   C     0.99999   0.25000   0.47940   0.00000  Uiso   1.00
C351   C     0.75208   0.46686   0.91791   0.00000  Uiso   1.00
C352   C     0.99999   0.25000   0.52060   0.00000  Uiso   1.00
C353   C     0.75000   0.49999   0.47940   0.00000  Uiso   1.00
C354   C     0.75000  -0.00000   0.52060   0.00000  Uiso   1.00
C355   C     0.75000  -0.00000   0.97939   0.00000  Uiso   1.00
C356   C     0.75000  -0.00000   0.02060   0.00000  Uiso   1.00
C357   C     0.50000   0.25000   0.97939   0.00000  Uiso   1.00
C358   C     0.50000   0.25000   0.02060   0.00000  Uiso   1.00
C359   C     0.64433   0.40955   0.17821   0.00000  Uiso   1.00
C360   C     0.89511   0.05020   0.74087   0.00000  Uiso   1.00
C361   C     0.55018   0.10488   0.25891   0.00000  Uiso   1.00
C362   C     0.75257   0.03311   0.08208   0.00000  Uiso   1.00
C363   C     0.90898   0.35505   0.82191   0.00000  Uiso   1.00
C364   C     0.85567   0.09045   0.17821   0.00000  Uiso   1.00
C365   C     0.60489   0.44981   0.74093   0.00000  Uiso   1.00
C366   C     0.94981   0.39511   0.25903   0.00000  Uiso   1.00
C367   C     0.59103   0.14496   0.82191   0.00000  Uiso   1.00
C368   C     0.64495   0.09102   0.82191   0.00000  Uiso   1.00
C369   C     0.89511   0.44981   0.25902   0.00000  Uiso   1.00
C370   C     0.55019   0.39511   0.74093   0.00000  Uiso   1.00
C371   C     0.90954   0.14434   0.17821   0.00000  Uiso   1.00
C372   C     0.85505   0.40898   0.82191   0.00000  Uiso   1.00
C373   C     0.53314   0.24791   0.91791   0.00000  Uiso   1.00
C374   C     0.60488   0.05018   0.25892   0.00000  Uiso   1.00
C375   C     0.94980   0.10489   0.74087   0.00000  Uiso   1.00
C376   C     0.59044   0.35567   0.17821   0.00000  Uiso   1.00
C377   C     0.85489   0.19980   0.75913   0.00000  Uiso   1.00
C378   C     0.60567   0.34045   0.32179   0.00000  Uiso   1.00
C379   C     0.84099   0.39492   0.67810   0.00000  Uiso   1.00
C380   C     0.69982   0.14512   0.24108   0.00000  Uiso   1.00
C381   C     0.64511   0.30019   0.75907   0.00000  Uiso   1.00
C382   C     0.89433   0.15955   0.32179   0.00000  Uiso   1.00
C383   C     0.65898   0.10506   0.67809   0.00000  Uiso   1.00
C384   C     0.96689   0.24744   0.08208   0.00000  Uiso   1.00
C385   C     0.80019   0.35489   0.24097   0.00000  Uiso   1.00
C386   C     0.85489   0.30019   0.24098   0.00000  Uiso   1.00
C387   C     0.60505   0.15898   0.67809   0.00000  Uiso   1.00
C388   C     0.84045   0.10566   0.32179   0.00000  Uiso   1.00
C389   C     0.69981   0.35489   0.75907   0.00000  Uiso   1.00
C390   C     0.64512   0.19982   0.24109   0.00000  Uiso   1.00
C391   C     0.89493   0.34100   0.67809   0.00000  Uiso   1.00
C392   C     0.65955   0.39433   0.32179   0.00000  Uiso   1.00
C393   C     0.80019   0.14511   0.75913   0.00000  Uiso   1.00
C394   C     0.51182   0.31535   0.39564   0.00000  Uiso   1.00
C395   C     0.50000   0.25000   0.39799   0.00000  Uiso   1.00
C396   C     0.51094   0.18449   0.60436   0.00000  Uiso   1.00
C397   C     0.68464   0.48818   0.39563   0.00000  Uiso   1.00
C398   C     0.81550   0.48902   0.60437   0.00000  Uiso   1.00
C399   C     0.98817   0.18465   0.39563   0.00000  Uiso   1.00
C400   C     0.98904   0.31551   0.60437   0.00000  Uiso   1.00
C401   C     0.81535   0.01181   0.39563   0.00000  Uiso   1.00
C402   C     0.68450   0.01098   0.60436   0.00000  Uiso   1.00
C403   C     0.73906   0.06551   0.89563   0.00000  Uiso   1.00
C404   C     0.73816   0.43465   0.10437   0.00000  Uiso   1.00
C405   C     0.93449   0.26096   0.89563   0.00000  Uiso   1.00
C406   C     0.50000   0.25000   0.60201   0.00000  Uiso   1.00
C407   C     0.56535   0.26183   0.10437   0.00000  Uiso   1.00
C408   C     0.76093   0.43449   0.89563   0.00000  Uiso   1.00
C409   C     0.76184   0.06535   0.10437   0.00000  Uiso   1.00
C410   C     0.56551   0.23905   0.89563   0.00000  Uiso   1.00
C411   C     0.93464   0.23818   0.10437   0.00000  Uiso   1.00
C412   C     0.75000  -0.00000   0.39799   0.00000  Uiso   1.00
C413   C     0.50209   0.21686   0.58209   0.00000  Uiso   1.00
C414   C     0.75000  -0.00000   0.60201   0.00000  Uiso   1.00
C415   C     0.75000  -0.00000   0.89798   0.00000  Uiso   1.00
C416   C     0.75000  -0.00000   0.10201   0.00000  Uiso   1.00
C417   C     0.50000   0.25000   0.89798   0.00000  Uiso   1.00
C418   C     0.50000   0.25000   0.10201   0.00000  Uiso   1.00
C419   C     0.50270   0.18338   0.48003   0.00000  Uiso   1.00
C420   C     0.50363   0.31657   0.51998   0.00000  Uiso   1.00
C421   C     0.81662   0.49727   0.48003   0.00000  Uiso   1.00
C422   C     0.68343   0.49635   0.51999   0.00000  Uiso   1.00
C423   C     0.99726   0.31662   0.48002   0.00000  Uiso   1.00
C424   C     0.71689   0.49744   0.41792   0.00000  Uiso   1.00
C425   C     0.99632   0.18343   0.51998   0.00000  Uiso   1.00
C426   C     0.68338   0.00272   0.48003   0.00000  Uiso   1.00
C427   C     0.81657   0.00364   0.51998   0.00000  Uiso   1.00
C428   C     0.74630   0.43343   0.98001   0.00000  Uiso   1.00
C429   C     0.74732   0.06662   0.01997   0.00000  Uiso   1.00
C430   C     0.56657   0.25368   0.98001   0.00000  Uiso   1.00
C431   C     0.93338   0.25271   0.01997   0.00000  Uiso   1.00
C432   C     0.75370   0.06656   0.98001   0.00000  Uiso   1.00
C433   C     0.75268   0.43338   0.01997   0.00000  Uiso   1.00
C434   C     0.93343   0.24633   0.98001   0.00000  Uiso   1.00
C435   C     0.78314   0.49789   0.58209   0.00000  Uiso   1.00
C436   C     0.56662   0.24731   0.01997   0.00000  Uiso   1.00
C437   C     0.75000   0.00000   0.35563   0.00000  Uiso   1.00
C438   C     0.75000   0.00000   0.64438   0.00000  Uiso   1.00
C439   C     0.50000   0.25000   0.35562   0.00000  Uiso   1.00
C440   C     0.50000   0.25000   0.64438   0.00000  Uiso   1.00
C441   C     0.50000   0.25000   0.85562   0.00000  Uiso   1.00
C442   C     0.50000   0.25000   0.14438   0.00000  Uiso   1.00
C443   C     0.75000  -0.00000   0.85562   0.00000  Uiso   1.00
C444   C     0.75000  -0.00000   0.14437   0.00000  Uiso   1.00
C445   C     0.68003   0.06997   0.25000   0.00000  Uiso   1.00
C446   C     0.99743   0.21689   0.41791   0.00000  Uiso   1.00
C447   C     0.81998   0.43002   0.75000   0.00000  Uiso   1.00
C448   C     0.93002   0.18002   0.25000   0.00000  Uiso   1.00
C449   C     0.56997   0.31997   0.75000   0.00000  Uiso   1.00
C450   C     0.81997   0.43003   0.25000   0.00000  Uiso   1.00
C451   C     0.68002   0.06998   0.75000   0.00000  Uiso   1.00
C452   C     0.56998   0.31998   0.25000   0.00000  Uiso   1.00
C453   C     0.93003   0.18003   0.75000   0.00000  Uiso   1.00
C454   C     0.68003   0.43003   0.75000   0.00000  Uiso   1.00
C455   C     0.81998   0.06998   0.25000   0.00000  Uiso   1.00
C456   C     0.93002   0.31998   0.75000   0.00000  Uiso   1.00
C457   C     0.99790   0.28314   0.58209   0.00000  Uiso   1.00
C458   C     0.56997   0.18003   0.25000   0.00000  Uiso   1.00
C459   C     0.81997   0.06997   0.75000   0.00000  Uiso   1.00
C460   C     0.68002   0.43002   0.25000   0.00000  Uiso   1.00
C461   C     0.56998   0.18002   0.75000   0.00000  Uiso   1.00
C462   C     0.93003   0.31997   0.25000   0.00000  Uiso   1.00
C463   C     0.63442   0.39245   0.21484   0.00000  Uiso   1.00
C464   C     0.88496   0.08808   0.74618   0.00000  Uiso   1.00
C465   C     0.58807   0.11503   0.25371   0.00000  Uiso   1.00
C466   C     0.89217   0.36529   0.78523   0.00000  Uiso   1.00
C467   C     0.86558   0.10755   0.21484   0.00000  Uiso   1.00
C468   C     0.78311   0.00255   0.41791   0.00000  Uiso   1.00
C469   C     0.61504   0.41193   0.74621   0.00000  Uiso   1.00
C470   C     0.91193   0.38496   0.25377   0.00000  Uiso   1.00
C471   C     0.60784   0.13471   0.78523   0.00000  Uiso   1.00
C472   C     0.63471   0.10784   0.78523   0.00000  Uiso   1.00
C473   C     0.88496   0.41193   0.25377   0.00000  Uiso   1.00
C474   C     0.58807   0.38497   0.74621   0.00000  Uiso   1.00
C475   C     0.89244   0.13443   0.21484   0.00000  Uiso   1.00
C476   C     0.86529   0.39217   0.78523   0.00000  Uiso   1.00
C477   C     0.61503   0.08807   0.25371   0.00000  Uiso   1.00
C478   C     0.91192   0.11504   0.74618   0.00000  Uiso   1.00
C479   C     0.71686   0.00210   0.58209   0.00000  Uiso   1.00
C480   C     0.60755   0.36558   0.21484   0.00000  Uiso   1.00
C481   C     0.86504   0.16192   0.75382   0.00000  Uiso   1.00
C482   C     0.61558   0.35755   0.28516   0.00000  Uiso   1.00
C483   C     0.85782   0.38470   0.71477   0.00000  Uiso   1.00
C484   C     0.66193   0.13497   0.24629   0.00000  Uiso   1.00
C485   C     0.63497   0.33807   0.75379   0.00000  Uiso   1.00
C486   C     0.88442   0.14244   0.28516   0.00000  Uiso   1.00
C487   C     0.64217   0.11530   0.71477   0.00000  Uiso   1.00
C488   C     0.83807   0.36504   0.24623   0.00000  Uiso   1.00
C489   C     0.86504   0.33807   0.24623   0.00000  Uiso   1.00
C490   C     0.74792   0.03314   0.91791   0.00000  Uiso   1.00
C491   C     0.61529   0.14217   0.71477   0.00000  Uiso   1.00
C492   C     0.85756   0.11557   0.28516   0.00000  Uiso   1.00
C493   C     0.66193   0.36504   0.75379   0.00000  Uiso   1.00
C494   C     0.63497   0.16193   0.24629   0.00000  Uiso   1.00
C495   C     0.88470   0.35782   0.71477   0.00000  Uiso   1.00
C496   C     0.64245   0.38442   0.28516   0.00000  Uiso   1.00
C497   C     0.83808   0.13496   0.75382   0.00000  Uiso   1.00
C498   C     0.50060   0.21634   0.45884   0.00000  Uiso   1.00
C499   C     0.50107   0.28365   0.54117   0.00000  Uiso   1.00
C500   C     0.78366   0.49938   0.45884   0.00000  Uiso   1.00
I501   I     0.52643   0.13438   0.45704   0.00000  Uiso   1.00
I502   I     0.72361   0.11563   0.04296   0.00000  Uiso   1.00
I503   I     0.61519   0.27814   0.95699   0.00000  Uiso   1.00
I504   I     0.88438   0.27644   0.04296   0.00000  Uiso   1.00
I505   I     0.77817   0.11518   0.95699   0.00000  Uiso   1.00
I506   I     0.77639   0.38437   0.04296   0.00000  Uiso   1.00
I507   I     0.88480   0.22189   0.95699   0.00000  Uiso   1.00
I508   I     0.61562   0.22358   0.04296   0.00000  Uiso   1.00
I509   I     0.52803   0.36523   0.54300   0.00000  Uiso   1.00
I510   I     0.86561   0.47352   0.45703   0.00000  Uiso   1.00
I511   I     0.63479   0.47193   0.54301   0.00000  Uiso   1.00
I512   I     0.97350   0.36560   0.45701   0.00000  Uiso   1.00
I513   I     0.97187   0.13480   0.54301   0.00000  Uiso   1.00
I514   I     0.63439   0.02647   0.45703   0.00000  Uiso   1.00
I515   I     0.86521   0.02806   0.54300   0.00000  Uiso   1.00
I516   I     0.72183   0.38481   0.95699   0.00000  Uiso   1.00
N517   N     0.65194   0.42320   0.14900   0.00000  Uiso   1.00
N518   N     0.90317   0.47999   0.26322   0.00000  Uiso   1.00
N519   N     0.52001   0.40318   0.73672   0.00000  Uiso   1.00
N520   N     0.92318   0.15197   0.14900   0.00000  Uiso   1.00
N521   N     0.84716   0.42239   0.85116   0.00000  Uiso   1.00
N522   N     0.59681   0.01999   0.26307   0.00000  Uiso   1.00
N523   N     0.97999   0.09683   0.73663   0.00000  Uiso   1.00
N524   N     0.57680   0.34806   0.14900   0.00000  Uiso   1.00
N525   N     0.84683   0.22998   0.76337   0.00000  Uiso   1.00
N526   N     0.59806   0.32680   0.35100   0.00000  Uiso   1.00
N527   N     0.82757   0.40280   0.64885   0.00000  Uiso   1.00
N528   N     0.90317   0.02002   0.73662   0.00000  Uiso   1.00
N529   N     0.73001   0.15319   0.23693   0.00000  Uiso   1.00
N530   N     0.65318   0.27001   0.76329   0.00000  Uiso   1.00
N531   N     0.90195   0.17319   0.35100   0.00000  Uiso   1.00
N532   N     0.67240   0.09717   0.64884   0.00000  Uiso   1.00
N533   N     0.77001   0.34683   0.23677   0.00000  Uiso   1.00
N534   N     0.84683   0.27001   0.23678   0.00000  Uiso   1.00
N535   N     0.59716   0.17239   0.64884   0.00000  Uiso   1.00
N536   N     0.82681   0.09805   0.35100   0.00000  Uiso   1.00
N537   N     0.72999   0.34682   0.76329   0.00000  Uiso   1.00
N538   N     0.65319   0.23001   0.23694   0.00000  Uiso   1.00
N539   N     0.51999   0.09681   0.26307   0.00000  Uiso   1.00
N540   N     0.90281   0.32758   0.64885   0.00000  Uiso   1.00
N541   N     0.67320   0.40194   0.35100   0.00000  Uiso   1.00
N542   N     0.77001   0.15317   0.76338   0.00000  Uiso   1.00
N543   N     0.51930   0.34075   0.37740   0.00000  Uiso   1.00
N544   N     0.51810   0.15900   0.62260   0.00000  Uiso   1.00
N545   N     0.65925   0.48071   0.37740   0.00000  Uiso   1.00
N546   N     0.84100   0.48185   0.62260   0.00000  Uiso   1.00
N547   N     0.98070   0.15925   0.37739   0.00000  Uiso   1.00
N548   N     0.98188   0.34100   0.62261   0.00000  Uiso   1.00
N549   N     0.84075   0.01928   0.37740   0.00000  Uiso   1.00
N550   N     0.92239   0.34716   0.85116   0.00000  Uiso   1.00
N551   N     0.65901   0.01816   0.62259   0.00000  Uiso   1.00
N552   N     0.73190   0.09101   0.87741   0.00000  Uiso   1.00
N553   N     0.73069   0.40926   0.12261   0.00000  Uiso   1.00
N554   N     0.90900   0.26812   0.87740   0.00000  Uiso   1.00
N555   N     0.59075   0.26930   0.12261   0.00000  Uiso   1.00
N556   N     0.76808   0.40899   0.87740   0.00000  Uiso   1.00
N557   N     0.76931   0.09074   0.12261   0.00000  Uiso   1.00
N558   N     0.59100   0.23189   0.87740   0.00000  Uiso   1.00
N559   N     0.90925   0.23072   0.12261   0.00000  Uiso   1.00
N560   N     0.84806   0.07680   0.14900   0.00000  Uiso   1.00
N561   N     0.59682   0.47999   0.73670   0.00000  Uiso   1.00
N562   N     0.97999   0.40317   0.26323   0.00000  Uiso   1.00
N563   N     0.57763   0.15286   0.85116   0.00000  Uiso   1.00
N564   N     0.65285   0.07762   0.85116   0.00000  Uiso   1.00
O565   O     0.75000  -0.00000   0.25000   0.00000  Uiso   1.00
O566   O     0.75000   0.46964   0.66245   0.00000  Uiso   1.00
O567   O     0.96963   0.25000   0.33755   0.00000  Uiso   1.00
O568   O     0.53036   0.25000   0.66245   0.00000  Uiso   1.00
O569   O     0.50000   0.21964   0.83755   0.00000  Uiso   1.00
O570   O     0.50000   0.28037   0.16245   0.00000  Uiso   1.00
O571   O     0.78036  -0.00000   0.83755   0.00000  Uiso   1.00
O572   O     0.71963   0.00000   0.16245   0.00000  Uiso   1.00
O573   O     0.50000   0.28037   0.83755   0.00000  Uiso   1.00
O574   O     0.50000   0.21964   0.16245   0.00000  Uiso   1.00
O575   O     0.71963  -0.00000   0.83755   0.00000  Uiso   1.00
O576   O     0.75000  -0.00000   0.75000   0.00000  Uiso   1.00
O577   O     0.78036   0.00000   0.16245   0.00000  Uiso   1.00
O578   O     0.70724   0.07307   0.27302   0.00000  Uiso   1.00
O579   O     0.79275   0.42693   0.72698   0.00000  Uiso   1.00
O580   O     0.92692   0.20725   0.27302   0.00000  Uiso   1.00
O581   O     0.57307   0.29276   0.72698   0.00000  Uiso   1.00
O582   O     0.79275   0.42693   0.27302   0.00000  Uiso   1.00
O583   O     0.70724   0.07307   0.72698   0.00000  Uiso   1.00
O584   O     0.57307   0.29276   0.27302   0.00000  Uiso   1.00
O585   O     0.92692   0.20725   0.72698   0.00000  Uiso   1.00
O586   O     0.70724   0.42693   0.72698   0.00000  Uiso   1.00
O587   O     0.50000   0.25000   0.25000   0.00000  Uiso   1.00
O588   O     0.79275   0.07307   0.27302   0.00000  Uiso   1.00
O589   O     0.92692   0.29276   0.72698   0.00000  Uiso   1.00
O590   O     0.57307   0.20725   0.27302   0.00000  Uiso   1.00
O591   O     0.79275   0.07307   0.72698   0.00000  Uiso   1.00
O592   O     0.70724   0.42693   0.27302   0.00000  Uiso   1.00
O593   O     0.57307   0.20725   0.72698   0.00000  Uiso   1.00
O594   O     0.92692   0.29276   0.27302   0.00000  Uiso   1.00
O595   O     0.95724   0.32308   0.77302   0.00000  Uiso   1.00
O596   O     0.54275   0.17693   0.22698   0.00000  Uiso   1.00
O597   O     0.67692   0.45725   0.77302   0.00000  Uiso   1.00
O598   O     0.50000   0.25000   0.75000   0.00000  Uiso   1.00
O599   O     0.82307   0.04275   0.22698   0.00000  Uiso   1.00
O600   O     0.54275   0.17693   0.77302   0.00000  Uiso   1.00
O601   O     0.95724   0.32308   0.22698   0.00000  Uiso   1.00
O602   O     0.82307   0.04275   0.77302   0.00000  Uiso   1.00
O603   O     0.67692   0.45725   0.22698   0.00000  Uiso   1.00
O604   O     0.95724   0.17692   0.22698   0.00000  Uiso   1.00
O605   O     0.54275   0.32308   0.77302   0.00000  Uiso   1.00
O606   O     0.67692   0.04275   0.22698   0.00000  Uiso   1.00
O607   O     0.82307   0.45725   0.77302   0.00000  Uiso   1.00
O608   O     0.54275   0.32308   0.22698   0.00000  Uiso   1.00
O609   O     0.75000   0.46964   0.33755   0.00000  Uiso   1.00
O610   O     0.95724   0.17692   0.77302   0.00000  Uiso   1.00
O611   O     0.82307   0.45725   0.22698   0.00000  Uiso   1.00
O612   O     0.67692   0.04275   0.77302   0.00000  Uiso   1.00
O613   O     0.75000   0.03036   0.66245   0.00000  Uiso   1.00
O614   O     0.53036   0.25000   0.33755   0.00000  Uiso   1.00
O615   O     0.96963   0.25000   0.66245   0.00000  Uiso   1.00
O616   O     0.75000   0.03036   0.33755   0.00000  Uiso   1.00
Zn617  Zn    0.70659  -0.00000   0.21735   0.00000  Uiso   1.00
Zn618  Zn    0.54340   0.25000   0.28265   0.00000  Uiso   1.00
Zn619  Zn    0.75000   0.45660   0.71735   0.00000  Uiso   1.00
Zn620  Zn    0.75000   0.04340   0.28265   0.00000  Uiso   1.00
Zn621  Zn    0.54340   0.25000   0.71735   0.00000  Uiso   1.00
Zn622  Zn    0.95659   0.25000   0.28265   0.00000  Uiso   1.00
Zn623  Zn    0.75000   0.04340   0.71735   0.00000  Uiso   1.00
Zn624  Zn    0.75000   0.45660   0.28265   0.00000  Uiso   1.00
Zn625  Zn    0.79340  -0.00000   0.78265   0.00000  Uiso   1.00
Zn626  Zn    0.50000   0.20660   0.21735   0.00000  Uiso   1.00
Zn627  Zn    0.50000   0.29341   0.78265   0.00000  Uiso   1.00
Zn628  Zn    0.79340  -0.00000   0.21735   0.00000  Uiso   1.00
Zn629  Zn    0.70659  -0.00000   0.78265   0.00000  Uiso   1.00
Zn630  Zn    0.50000   0.29341   0.21735   0.00000  Uiso   1.00
Zn631  Zn    0.50000   0.20659   0.78265   0.00000  Uiso   1.00
Zn632  Zn    0.95659   0.25000   0.71735   0.00000  Uiso   1.00
C633   C     0.00255   0.78311   0.41791   0.00000  Uiso   1.00
C634   C     0.24743   0.96689   0.08209   0.00000  Uiso   1.00
C635   C     0.21636   0.99892   0.54117   0.00000  Uiso   1.00
C636   C     0.49937   0.78366   0.45884   0.00000  Uiso   1.00
C637   C     0.49890   0.71636   0.54117   0.00000  Uiso   1.00
C638   C     0.21634   0.50061   0.45884   0.00000  Uiso   1.00
C639   C     0.28364   0.50108   0.54117   0.00000  Uiso   1.00
C640   C     0.24889   0.96636   0.95883   0.00000  Uiso   1.00
C641   C     0.24940   0.53366   0.04116   0.00000  Uiso   1.00
C642   C     0.03364   0.75110   0.95883   0.00000  Uiso   1.00
C643   C     0.46634   0.75061   0.04116   0.00000  Uiso   1.00
C644   C     0.25111   0.53364   0.95883   0.00000  Uiso   1.00
C645   C     0.46686   0.75209   0.91791   0.00000  Uiso   1.00
C646   C     0.25060   0.96634   0.04116   0.00000  Uiso   1.00
C647   C     0.46636   0.74891   0.95883   0.00000  Uiso   1.00
C648   C     0.03366   0.74940   0.04116   0.00000  Uiso   1.00
C649   C     0.09808   0.84808   0.25000   0.00000  Uiso   1.00
C650   C     0.40192   0.65192   0.75000   0.00000  Uiso   1.00
C651   C     0.15192   0.59808   0.25000   0.00000  Uiso   1.00
C652   C     0.34808   0.90192   0.75000   0.00000  Uiso   1.00
C653   C     0.40192   0.65192   0.25000   0.00000  Uiso   1.00
C654   C     0.09808   0.84808   0.75000   0.00000  Uiso   1.00
C655   C     0.34808   0.90192   0.25000   0.00000  Uiso   1.00
C656   C     0.03311   0.75257   0.08209   0.00000  Uiso   1.00
C657   C     0.15192   0.59808   0.75000   0.00000  Uiso   1.00
C658   C     0.09808   0.65192   0.75000   0.00000  Uiso   1.00
C659   C     0.40192   0.84808   0.25000   0.00000  Uiso   1.00
C660   C     0.15192   0.90192   0.75000   0.00000  Uiso   1.00
C661   C     0.34808   0.59808   0.25000   0.00000  Uiso   1.00
C662   C     0.40192   0.84808   0.75000   0.00000  Uiso   1.00
C663   C     0.09808   0.65192   0.25000   0.00000  Uiso   1.00
C664   C     0.34808   0.59808   0.75000   0.00000  Uiso   1.00
C665   C     0.15192   0.90192   0.25000   0.00000  Uiso   1.00
C666   C     0.49999   0.75000   0.47940   0.00000  Uiso   1.00
C667   C     0.25208   0.96686   0.91791   0.00000  Uiso   1.00
C668   C     0.49999   0.75000   0.52060   0.00000  Uiso   1.00
C669   C     0.25000   0.99999   0.47940   0.00000  Uiso   1.00
C670   C     0.25000   0.50000   0.52060   0.00000  Uiso   1.00
C671   C     0.25000   0.50000   0.97939   0.00000  Uiso   1.00
C672   C     0.25000   0.50000   0.02060   0.00000  Uiso   1.00
C673   C    -0.00000   0.75000   0.97939   0.00000  Uiso   1.00
C674   C    -0.00000   0.75000   0.02060   0.00000  Uiso   1.00
C675   C     0.14433   0.90955   0.17821   0.00000  Uiso   1.00
C676   C     0.39511   0.55020   0.74087   0.00000  Uiso   1.00
C677   C     0.05018   0.60488   0.25891   0.00000  Uiso   1.00
C678   C     0.25257   0.53311   0.08208   0.00000  Uiso   1.00
C679   C     0.40898   0.85505   0.82191   0.00000  Uiso   1.00
C680   C     0.35567   0.59045   0.17821   0.00000  Uiso   1.00
C681   C     0.10489   0.94981   0.74093   0.00000  Uiso   1.00
C682   C     0.44981   0.89511   0.25903   0.00000  Uiso   1.00
C683   C     0.09103   0.64496   0.82191   0.00000  Uiso   1.00
C684   C     0.14495   0.59102   0.82191   0.00000  Uiso   1.00
C685   C     0.39511   0.94981   0.25902   0.00000  Uiso   1.00
C686   C     0.05019   0.89511   0.74093   0.00000  Uiso   1.00
C687   C     0.40954   0.64434   0.17821   0.00000  Uiso   1.00
C688   C     0.35505   0.90898   0.82191   0.00000  Uiso   1.00
C689   C     0.03314   0.74791   0.91791   0.00000  Uiso   1.00
C690   C     0.10488   0.55018   0.25892   0.00000  Uiso   1.00
C691   C     0.44980   0.60489   0.74087   0.00000  Uiso   1.00
C692   C     0.09044   0.85567   0.17821   0.00000  Uiso   1.00
C693   C     0.35489   0.69980   0.75913   0.00000  Uiso   1.00
C694   C     0.10567   0.84045   0.32179   0.00000  Uiso   1.00
C695   C     0.34099   0.89492   0.67810   0.00000  Uiso   1.00
C696   C     0.19982   0.64512   0.24108   0.00000  Uiso   1.00
C697   C     0.14511   0.80019   0.75907   0.00000  Uiso   1.00
C698   C     0.39433   0.65955   0.32179   0.00000  Uiso   1.00
C699   C     0.15898   0.60506   0.67809   0.00000  Uiso   1.00
C700   C     0.46689   0.74744   0.08208   0.00000  Uiso   1.00
C701   C     0.30019   0.85489   0.24097   0.00000  Uiso   1.00
C702   C     0.35489   0.80019   0.24098   0.00000  Uiso   1.00
C703   C     0.10505   0.65898   0.67809   0.00000  Uiso   1.00
C704   C     0.34045   0.60566   0.32179   0.00000  Uiso   1.00
C705   C     0.19981   0.85489   0.75907   0.00000  Uiso   1.00
C706   C     0.14512   0.69982   0.24109   0.00000  Uiso   1.00
C707   C     0.39493   0.84100   0.67809   0.00000  Uiso   1.00
C708   C     0.15955   0.89433   0.32179   0.00000  Uiso   1.00
C709   C     0.30019   0.64511   0.75913   0.00000  Uiso   1.00
C710   C     0.01182   0.81535   0.39564   0.00000  Uiso   1.00
C711   C    -0.00000   0.75000   0.39799   0.00000  Uiso   1.00
C712   C     0.01094   0.68449   0.60436   0.00000  Uiso   1.00
C713   C     0.18464   0.98818   0.39563   0.00000  Uiso   1.00
C714   C     0.31550   0.98902   0.60437   0.00000  Uiso   1.00
C715   C     0.48817   0.68465   0.39563   0.00000  Uiso   1.00
C716   C     0.48904   0.81551   0.60437   0.00000  Uiso   1.00
C717   C     0.31535   0.51181   0.39563   0.00000  Uiso   1.00
C718   C     0.18450   0.51098   0.60436   0.00000  Uiso   1.00
C719   C     0.23906   0.56551   0.89563   0.00000  Uiso   1.00
C720   C     0.23816   0.93465   0.10437   0.00000  Uiso   1.00
C721   C     0.43449   0.76096   0.89563   0.00000  Uiso   1.00
C722   C    -0.00000   0.75000   0.60201   0.00000  Uiso   1.00
C723   C     0.06535   0.76183   0.10437   0.00000  Uiso   1.00
C724   C     0.26093   0.93449   0.89563   0.00000  Uiso   1.00
C725   C     0.26184   0.56535   0.10437   0.00000  Uiso   1.00
C726   C     0.06551   0.73905   0.89563   0.00000  Uiso   1.00
C727   C     0.43464   0.73818   0.10437   0.00000  Uiso   1.00
C728   C     0.25000   0.50000   0.39799   0.00000  Uiso   1.00
C729   C     0.00209   0.71686   0.58209   0.00000  Uiso   1.00
C730   C     0.25000   0.50000   0.60201   0.00000  Uiso   1.00
C731   C     0.25000   0.50000   0.89798   0.00000  Uiso   1.00
C732   C     0.25000   0.50000   0.10201   0.00000  Uiso   1.00
C733   C     0.00000   0.75000   0.89798   0.00000  Uiso   1.00
C734   C    -0.00000   0.75000   0.10201   0.00000  Uiso   1.00
C735   C     0.00270   0.68338   0.48003   0.00000  Uiso   1.00
C736   C     0.00363   0.81657   0.51998   0.00000  Uiso   1.00
C737   C     0.31662   0.99727   0.48003   0.00000  Uiso   1.00
C738   C     0.18343   0.99635   0.51999   0.00000  Uiso   1.00
C739   C     0.49726   0.81662   0.48002   0.00000  Uiso   1.00
C740   C     0.21689   0.99744   0.41792   0.00000  Uiso   1.00
C741   C     0.49632   0.68343   0.51998   0.00000  Uiso   1.00
C742   C     0.18338   0.50272   0.48003   0.00000  Uiso   1.00
C743   C     0.31657   0.50364   0.51998   0.00000  Uiso   1.00
C744   C     0.24630   0.93343   0.98001   0.00000  Uiso   1.00
C745   C     0.24732   0.56662   0.01997   0.00000  Uiso   1.00
C746   C     0.06657   0.75368   0.98001   0.00000  Uiso   1.00
C747   C     0.43338   0.75271   0.01997   0.00000  Uiso   1.00
C748   C     0.25370   0.56656   0.98001   0.00000  Uiso   1.00
C749   C     0.25268   0.93338   0.01997   0.00000  Uiso   1.00
C750   C     0.43343   0.74633   0.98001   0.00000  Uiso   1.00
C751   C     0.28314   0.99789   0.58209   0.00000  Uiso   1.00
C752   C     0.06662   0.74731   0.01997   0.00000  Uiso   1.00
C753   C     0.25000   0.50000   0.35563   0.00000  Uiso   1.00
C754   C     0.25000   0.50000   0.64438   0.00000  Uiso   1.00
C755   C    -0.00000   0.75000   0.35562   0.00000  Uiso   1.00
C756   C    -0.00000   0.75000   0.64438   0.00000  Uiso   1.00
C757   C     0.00000   0.75000   0.85562   0.00000  Uiso   1.00
C758   C     0.00000   0.75000   0.14438   0.00000  Uiso   1.00
C759   C     0.25000   0.50000   0.85562   0.00000  Uiso   1.00
C760   C     0.25000   0.50000   0.14437   0.00000  Uiso   1.00
C761   C     0.18003   0.56997   0.25000   0.00000  Uiso   1.00
C762   C     0.49743   0.71689   0.41791   0.00000  Uiso   1.00
C763   C     0.31998   0.93002   0.75000   0.00000  Uiso   1.00
C764   C     0.43002   0.68002   0.25000   0.00000  Uiso   1.00
C765   C     0.06997   0.81997   0.75000   0.00000  Uiso   1.00
C766   C     0.31997   0.93003   0.25000   0.00000  Uiso   1.00
C767   C     0.18002   0.56998   0.75000   0.00000  Uiso   1.00
C768   C     0.06998   0.81998   0.25000   0.00000  Uiso   1.00
C769   C     0.43003   0.68003   0.75000   0.00000  Uiso   1.00
C770   C     0.18003   0.93003   0.75000   0.00000  Uiso   1.00
C771   C     0.31998   0.56998   0.25000   0.00000  Uiso   1.00
C772   C     0.43002   0.81998   0.75000   0.00000  Uiso   1.00
C773   C     0.49790   0.78314   0.58209   0.00000  Uiso   1.00
C774   C     0.06997   0.68003   0.25000   0.00000  Uiso   1.00
C775   C     0.31997   0.56997   0.75000   0.00000  Uiso   1.00
C776   C     0.18002   0.93002   0.25000   0.00000  Uiso   1.00
C777   C     0.06998   0.68002   0.75000   0.00000  Uiso   1.00
C778   C     0.43003   0.81997   0.25000   0.00000  Uiso   1.00
C779   C     0.13442   0.89245   0.21484   0.00000  Uiso   1.00
C780   C     0.38496   0.58808   0.74618   0.00000  Uiso   1.00
C781   C     0.08807   0.61503   0.25371   0.00000  Uiso   1.00
C782   C     0.39217   0.86529   0.78523   0.00000  Uiso   1.00
C783   C     0.36558   0.60755   0.21484   0.00000  Uiso   1.00
C784   C     0.28311   0.50255   0.41791   0.00000  Uiso   1.00
C785   C     0.11504   0.91193   0.74621   0.00000  Uiso   1.00
C786   C     0.41193   0.88496   0.25377   0.00000  Uiso   1.00
C787   C     0.10784   0.63471   0.78523   0.00000  Uiso   1.00
C788   C     0.13471   0.60784   0.78523   0.00000  Uiso   1.00
C789   C     0.38496   0.91193   0.25377   0.00000  Uiso   1.00
C790   C     0.08807   0.88497   0.74621   0.00000  Uiso   1.00
C791   C     0.39244   0.63443   0.21484   0.00000  Uiso   1.00
C792   C     0.36529   0.89217   0.78523   0.00000  Uiso   1.00
C793   C     0.11503   0.58807   0.25371   0.00000  Uiso   1.00
C794   C     0.41192   0.61504   0.74618   0.00000  Uiso   1.00
C795   C     0.21686   0.50210   0.58209   0.00000  Uiso   1.00
C796   C     0.10755   0.86558   0.21484   0.00000  Uiso   1.00
C797   C     0.36504   0.66192   0.75382   0.00000  Uiso   1.00
C798   C     0.11558   0.85755   0.28516   0.00000  Uiso   1.00
C799   C     0.35782   0.88470   0.71477   0.00000  Uiso   1.00
C800   C     0.16193   0.63497   0.24629   0.00000  Uiso   1.00
C801   C     0.13497   0.83807   0.75379   0.00000  Uiso   1.00
C802   C     0.38442   0.64244   0.28516   0.00000  Uiso   1.00
C803   C     0.14217   0.61530   0.71477   0.00000  Uiso   1.00
C804   C     0.33807   0.86504   0.24623   0.00000  Uiso   1.00
C805   C     0.36504   0.83807   0.24623   0.00000  Uiso   1.00
C806   C     0.24792   0.53314   0.91791   0.00000  Uiso   1.00
C807   C     0.11529   0.64217   0.71477   0.00000  Uiso   1.00
C808   C     0.35756   0.61557   0.28516   0.00000  Uiso   1.00
C809   C     0.16193   0.86504   0.75379   0.00000  Uiso   1.00
C810   C     0.13497   0.66193   0.24629   0.00000  Uiso   1.00
C811   C     0.38470   0.85782   0.71477   0.00000  Uiso   1.00
C812   C     0.14245   0.88442   0.28516   0.00000  Uiso   1.00
C813   C     0.33808   0.63496   0.75382   0.00000  Uiso   1.00
C814   C     0.00060   0.71634   0.45884   0.00000  Uiso   1.00
C815   C     0.00107   0.78365   0.54117   0.00000  Uiso   1.00
C816   C     0.28366   0.99938   0.45884   0.00000  Uiso   1.00
I817   I     0.02643   0.63438   0.45704   0.00000  Uiso   1.00
I818   I     0.22361   0.61563   0.04296   0.00000  Uiso   1.00
I819   I     0.11519   0.77814   0.95699   0.00000  Uiso   1.00
I820   I     0.38438   0.77644   0.04296   0.00000  Uiso   1.00
I821   I     0.27817   0.61518   0.95699   0.00000  Uiso   1.00
I822   I     0.27639   0.88437   0.04296   0.00000  Uiso   1.00
I823   I     0.38480   0.72189   0.95699   0.00000  Uiso   1.00
I824   I     0.11562   0.72358   0.04296   0.00000  Uiso   1.00
I825   I     0.02803   0.86523   0.54300   0.00000  Uiso   1.00
I826   I     0.36561   0.97352   0.45703   0.00000  Uiso   1.00
I827   I     0.13479   0.97193   0.54301   0.00000  Uiso   1.00
I828   I     0.47350   0.86560   0.45701   0.00000  Uiso   1.00
I829   I     0.47187   0.63480   0.54301   0.00000  Uiso   1.00
I830   I     0.13439   0.52647   0.45703   0.00000  Uiso   1.00
I831   I     0.36521   0.52806   0.54300   0.00000  Uiso   1.00
I832   I     0.22183   0.88481   0.95699   0.00000  Uiso   1.00
N833   N     0.15194   0.92320   0.14900   0.00000  Uiso   1.00
N834   N     0.40317   0.97999   0.26322   0.00000  Uiso   1.00
N835   N     0.02001   0.90318   0.73672   0.00000  Uiso   1.00
N836   N     0.42318   0.65197   0.14900   0.00000  Uiso   1.00
N837   N     0.34716   0.92239   0.85116   0.00000  Uiso   1.00
N838   N     0.09681   0.51999   0.26307   0.00000  Uiso   1.00
N839   N     0.47999   0.59683   0.73663   0.00000  Uiso   1.00
N840   N     0.07680   0.84806   0.14900   0.00000  Uiso   1.00
N841   N     0.34683   0.72998   0.76337   0.00000  Uiso   1.00
N842   N     0.09806   0.82680   0.35100   0.00000  Uiso   1.00
N843   N     0.32757   0.90280   0.64885   0.00000  Uiso   1.00
N844   N     0.40317   0.52002   0.73662   0.00000  Uiso   1.00
N845   N     0.23001   0.65319   0.23693   0.00000  Uiso   1.00
N846   N     0.15318   0.77001   0.76329   0.00000  Uiso   1.00
N847   N     0.40195   0.67319   0.35100   0.00000  Uiso   1.00
N848   N     0.17240   0.59717   0.64884   0.00000  Uiso   1.00
N849   N     0.27001   0.84683   0.23677   0.00000  Uiso   1.00
N850   N     0.34683   0.77001   0.23678   0.00000  Uiso   1.00
N851   N     0.09716   0.67239   0.64884   0.00000  Uiso   1.00
N852   N     0.32681   0.59805   0.35100   0.00000  Uiso   1.00
N853   N     0.22999   0.84682   0.76329   0.00000  Uiso   1.00
N854   N     0.15319   0.73001   0.23694   0.00000  Uiso   1.00
N855   N     0.01999   0.59681   0.26307   0.00000  Uiso   1.00
N856   N     0.40281   0.82758   0.64885   0.00000  Uiso   1.00
N857   N     0.17320   0.90194   0.35100   0.00000  Uiso   1.00
N858   N     0.27001   0.65317   0.76338   0.00000  Uiso   1.00
N859   N     0.01930   0.84075   0.37740   0.00000  Uiso   1.00
N860   N     0.01810   0.65900   0.62260   0.00000  Uiso   1.00
N861   N     0.15925   0.98071   0.37740   0.00000  Uiso   1.00
N862   N     0.34100   0.98185   0.62260   0.00000  Uiso   1.00
N863   N     0.48070   0.65925   0.37739   0.00000  Uiso   1.00
N864   N     0.48188   0.84100   0.62261   0.00000  Uiso   1.00
N865   N     0.34075   0.51928   0.37740   0.00000  Uiso   1.00
N866   N     0.42239   0.84716   0.85116   0.00000  Uiso   1.00
N867   N     0.15901   0.51816   0.62259   0.00000  Uiso   1.00
N868   N     0.23190   0.59101   0.87741   0.00000  Uiso   1.00
N869   N     0.23069   0.90926   0.12261   0.00000  Uiso   1.00
N870   N     0.40900   0.76812   0.87740   0.00000  Uiso   1.00
N871   N     0.09075   0.76930   0.12261   0.00000  Uiso   1.00
N872   N     0.26808   0.90899   0.87740   0.00000  Uiso   1.00
N873   N     0.26931   0.59074   0.12261   0.00000  Uiso   1.00
N874   N     0.09100   0.73189   0.87740   0.00000  Uiso   1.00
N875   N     0.40925   0.73072   0.12261   0.00000  Uiso   1.00
N876   N     0.34806   0.57680   0.14900   0.00000  Uiso   1.00
N877   N     0.09682   0.97999   0.73670   0.00000  Uiso   1.00
N878   N     0.47999   0.90317   0.26323   0.00000  Uiso   1.00
N879   N     0.07763   0.65286   0.85116   0.00000  Uiso   1.00
N880   N     0.15285   0.57762   0.85116   0.00000  Uiso   1.00
O881   O     0.25000   0.50000   0.25000   0.00000  Uiso   1.00
O882   O     0.25000   0.96964   0.66245   0.00000  Uiso   1.00
O883   O     0.46963   0.75000   0.33755   0.00000  Uiso   1.00
O884   O     0.03036   0.75000   0.66245   0.00000  Uiso   1.00
O885   O    -0.00000   0.71964   0.83755   0.00000  Uiso   1.00
O886   O     0.00000   0.78037   0.16245   0.00000  Uiso   1.00
O887   O     0.28036   0.50000   0.83755   0.00000  Uiso   1.00
O888   O     0.21963   0.50000   0.16245   0.00000  Uiso   1.00
O889   O     0.00000   0.78037   0.83755   0.00000  Uiso   1.00
O890   O    -0.00000   0.71964   0.16245   0.00000  Uiso   1.00
O891   O     0.21963   0.50000   0.83755   0.00000  Uiso   1.00
O892   O     0.25000   0.50000   0.75000   0.00000  Uiso   1.00
O893   O     0.28036   0.50000   0.16245   0.00000  Uiso   1.00
O894   O     0.20724   0.57307   0.27302   0.00000  Uiso   1.00
O895   O     0.29275   0.92693   0.72698   0.00000  Uiso   1.00
O896   O     0.42692   0.70725   0.27302   0.00000  Uiso   1.00
O897   O     0.07307   0.79276   0.72698   0.00000  Uiso   1.00
O898   O     0.29275   0.92693   0.27302   0.00000  Uiso   1.00
O899   O     0.20724   0.57307   0.72698   0.00000  Uiso   1.00
O900   O     0.07307   0.79276   0.27302   0.00000  Uiso   1.00
O901   O     0.42692   0.70725   0.72698   0.00000  Uiso   1.00
O902   O     0.20724   0.92693   0.72698   0.00000  Uiso   1.00
O903   O    -0.00000   0.75000   0.25000   0.00000  Uiso   1.00
O904   O     0.29275   0.57307   0.27302   0.00000  Uiso   1.00
O905   O     0.42692   0.79276   0.72698   0.00000  Uiso   1.00
O906   O     0.07307   0.70725   0.27302   0.00000  Uiso   1.00
O907   O     0.29275   0.57307   0.72698   0.00000  Uiso   1.00
O908   O     0.20724   0.92693   0.27302   0.00000  Uiso   1.00
O909   O     0.07307   0.70725   0.72698   0.00000  Uiso   1.00
O910   O     0.42692   0.79276   0.27302   0.00000  Uiso   1.00
O911   O     0.45724   0.82308   0.77302   0.00000  Uiso   1.00
O912   O     0.04275   0.67693   0.22698   0.00000  Uiso   1.00
O913   O     0.17692   0.95725   0.77302   0.00000  Uiso   1.00
O914   O     0.00000   0.75000   0.75000   0.00000  Uiso   1.00
O915   O     0.32307   0.54275   0.22698   0.00000  Uiso   1.00
O916   O     0.04275   0.67693   0.77302   0.00000  Uiso   1.00
O917   O     0.45724   0.82308   0.22698   0.00000  Uiso   1.00
O918   O     0.32307   0.54275   0.77302   0.00000  Uiso   1.00
O919   O     0.17692   0.95725   0.22698   0.00000  Uiso   1.00
O920   O     0.45724   0.67692   0.22698   0.00000  Uiso   1.00
O921   O     0.04275   0.82308   0.77302   0.00000  Uiso   1.00
O922   O     0.17692   0.54275   0.22698   0.00000  Uiso   1.00
O923   O     0.32307   0.95725   0.77302   0.00000  Uiso   1.00
O924   O     0.04275   0.82308   0.22698   0.00000  Uiso   1.00
O925   O     0.25000   0.96964   0.33755   0.00000  Uiso   1.00
O926   O     0.45724   0.67692   0.77302   0.00000  Uiso   1.00
O927   O     0.32307   0.95725   0.22698   0.00000  Uiso   1.00
O928   O     0.17692   0.54275   0.77302   0.00000  Uiso   1.00
O929   O     0.25000   0.53036   0.66245   0.00000  Uiso   1.00
O930   O     0.03036   0.75000   0.33755   0.00000  Uiso   1.00
O931   O     0.46963   0.75000   0.66245   0.00000  Uiso   1.00
O932   O     0.25000   0.53036   0.33755   0.00000  Uiso   1.00
Zn933  Zn    0.20659   0.50000   0.21735   0.00000  Uiso   1.00
Zn934  Zn    0.04340   0.75000   0.28265   0.00000  Uiso   1.00
Zn935  Zn    0.25000   0.95660   0.71735   0.00000  Uiso   1.00
Zn936  Zn    0.25000   0.54340   0.28265   0.00000  Uiso   1.00
Zn937  Zn    0.04340   0.75000   0.71735   0.00000  Uiso   1.00
Zn938  Zn    0.45659   0.75000   0.28265   0.00000  Uiso   1.00
Zn939  Zn    0.25000   0.54340   0.71735   0.00000  Uiso   1.00
Zn940  Zn    0.25000   0.95660   0.28265   0.00000  Uiso   1.00
Zn941  Zn    0.29340   0.50000   0.78265   0.00000  Uiso   1.00
Zn942  Zn    0.00000   0.70660   0.21735   0.00000  Uiso   1.00
Zn943  Zn    0.00000   0.79341   0.78265   0.00000  Uiso   1.00
Zn944  Zn    0.29340   0.50000   0.21735   0.00000  Uiso   1.00
Zn945  Zn    0.20659   0.50000   0.78265   0.00000  Uiso   1.00
Zn946  Zn    0.00000   0.79341   0.21735   0.00000  Uiso   1.00
Zn947  Zn   -0.00000   0.70659   0.78265   0.00000  Uiso   1.00
Zn948  Zn    0.45659   0.75000   0.71735   0.00000  Uiso   1.00
C949   C     0.50255   0.78311   0.41791   0.00000  Uiso   1.00
C950   C     0.74743   0.96689   0.08209   0.00000  Uiso   1.00
C951   C     0.71636   0.99892   0.54117   0.00000  Uiso   1.00
C952   C     0.99937   0.78366   0.45884   0.00000  Uiso   1.00
C953   C     0.99890   0.71636   0.54117   0.00000  Uiso   1.00
C954   C     0.71634   0.50061   0.45884   0.00000  Uiso   1.00
C955   C     0.78364   0.50108   0.54117   0.00000  Uiso   1.00
C956   C     0.74889   0.96636   0.95883   0.00000  Uiso   1.00
C957   C     0.74940   0.53366   0.04116   0.00000  Uiso   1.00
C958   C     0.53364   0.75110   0.95883   0.00000  Uiso   1.00
C959   C     0.96634   0.75061   0.04116   0.00000  Uiso   1.00
C960   C     0.75111   0.53364   0.95883   0.00000  Uiso   1.00
C961   C     0.96686   0.75209   0.91791   0.00000  Uiso   1.00
C962   C     0.75060   0.96634   0.04116   0.00000  Uiso   1.00
C963   C     0.96636   0.74891   0.95883   0.00000  Uiso   1.00
C964   C     0.53366   0.74940   0.04116   0.00000  Uiso   1.00
C965   C     0.59808   0.84808   0.25000   0.00000  Uiso   1.00
C966   C     0.90192   0.65192   0.75000   0.00000  Uiso   1.00
C967   C     0.65192   0.59808   0.25000   0.00000  Uiso   1.00
C968   C     0.84808   0.90192   0.75000   0.00000  Uiso   1.00
C969   C     0.90192   0.65192   0.25000   0.00000  Uiso   1.00
C970   C     0.59808   0.84808   0.75000   0.00000  Uiso   1.00
C971   C     0.84808   0.90192   0.25000   0.00000  Uiso   1.00
C972   C     0.53311   0.75257   0.08209   0.00000  Uiso   1.00
C973   C     0.65192   0.59808   0.75000   0.00000  Uiso   1.00
C974   C     0.59808   0.65192   0.75000   0.00000  Uiso   1.00
C975   C     0.90192   0.84808   0.25000   0.00000  Uiso   1.00
C976   C     0.65192   0.90192   0.75000   0.00000  Uiso   1.00
C977   C     0.84808   0.59808   0.25000   0.00000  Uiso   1.00
C978   C     0.90192   0.84808   0.75000   0.00000  Uiso   1.00
C979   C     0.59808   0.65192   0.25000   0.00000  Uiso   1.00
C980   C     0.84808   0.59808   0.75000   0.00000  Uiso   1.00
C981   C     0.65192   0.90192   0.25000   0.00000  Uiso   1.00
C982   C     0.99999   0.75000   0.47940   0.00000  Uiso   1.00
C983   C     0.75208   0.96686   0.91791   0.00000  Uiso   1.00
C984   C     0.99999   0.75000   0.52060   0.00000  Uiso   1.00
C985   C     0.75000   0.99999   0.47940   0.00000  Uiso   1.00
C986   C     0.75000   0.50000   0.52060   0.00000  Uiso   1.00
C987   C     0.75000   0.50000   0.97939   0.00000  Uiso   1.00
C988   C     0.75000   0.50000   0.02060   0.00000  Uiso   1.00
C989   C     0.50000   0.75000   0.97939   0.00000  Uiso   1.00
C990   C     0.50000   0.75000   0.02060   0.00000  Uiso   1.00
C991   C     0.64433   0.90955   0.17821   0.00000  Uiso   1.00
C992   C     0.89511   0.55020   0.74087   0.00000  Uiso   1.00
C993   C     0.55018   0.60488   0.25891   0.00000  Uiso   1.00
C994   C     0.75257   0.53311   0.08208   0.00000  Uiso   1.00
C995   C     0.90898   0.85505   0.82191   0.00000  Uiso   1.00
C996   C     0.85567   0.59045   0.17821   0.00000  Uiso   1.00
C997   C     0.60489   0.94981   0.74093   0.00000  Uiso   1.00
C998   C     0.94981   0.89511   0.25903   0.00000  Uiso   1.00
C999   C     0.59103   0.64496   0.82191   0.00000  Uiso   1.00
C1000  C     0.64495   0.59102   0.82191   0.00000  Uiso   1.00
C1001  C     0.89511   0.94981   0.25902   0.00000  Uiso   1.00
C1002  C     0.55019   0.89511   0.74093   0.00000  Uiso   1.00
C1003  C     0.90954   0.64434   0.17821   0.00000  Uiso   1.00
C1004  C     0.85505   0.90898   0.82191   0.00000  Uiso   1.00
C1005  C     0.53314   0.74791   0.91791   0.00000  Uiso   1.00
C1006  C     0.60488   0.55018   0.25892   0.00000  Uiso   1.00
C1007  C     0.94980   0.60489   0.74087   0.00000  Uiso   1.00
C1008  C     0.59044   0.85567   0.17821   0.00000  Uiso   1.00
C1009  C     0.85489   0.69980   0.75913   0.00000  Uiso   1.00
C1010  C     0.60567   0.84045   0.32179   0.00000  Uiso   1.00
C1011  C     0.84099   0.89492   0.67810   0.00000  Uiso   1.00
C1012  C     0.69982   0.64512   0.24108   0.00000  Uiso   1.00
C1013  C     0.64511   0.80019   0.75907   0.00000  Uiso   1.00
C1014  C     0.89433   0.65955   0.32179   0.00000  Uiso   1.00
C1015  C     0.65898   0.60506   0.67809   0.00000  Uiso   1.00
C1016  C     0.96689   0.74744   0.08208   0.00000  Uiso   1.00
C1017  C     0.80019   0.85489   0.24097   0.00000  Uiso   1.00
C1018  C     0.85489   0.80019   0.24098   0.00000  Uiso   1.00
C1019  C     0.60505   0.65898   0.67809   0.00000  Uiso   1.00
C1020  C     0.84045   0.60566   0.32179   0.00000  Uiso   1.00
C1021  C     0.69981   0.85489   0.75907   0.00000  Uiso   1.00
C1022  C     0.64512   0.69982   0.24109   0.00000  Uiso   1.00
C1023  C     0.89493   0.84100   0.67809   0.00000  Uiso   1.00
C1024  C     0.65955   0.89433   0.32179   0.00000  Uiso   1.00
C1025  C     0.80019   0.64511   0.75913   0.00000  Uiso   1.00
C1026  C     0.51182   0.81535   0.39564   0.00000  Uiso   1.00
C1027  C     0.50000   0.75000   0.39799   0.00000  Uiso   1.00
C1028  C     0.51094   0.68449   0.60436   0.00000  Uiso   1.00
C1029  C     0.68464   0.98818   0.39563   0.00000  Uiso   1.00
C1030  C     0.81550   0.98902   0.60437   0.00000  Uiso   1.00
C1031  C     0.98817   0.68465   0.39563   0.00000  Uiso   1.00
C1032  C     0.98904   0.81551   0.60437   0.00000  Uiso   1.00
C1033  C     0.81535   0.51181   0.39563   0.00000  Uiso   1.00
C1034  C     0.68450   0.51098   0.60436   0.00000  Uiso   1.00
C1035  C     0.73906   0.56551   0.89563   0.00000  Uiso   1.00
C1036  C     0.73816   0.93465   0.10437   0.00000  Uiso   1.00
C1037  C     0.93449   0.76096   0.89563   0.00000  Uiso   1.00
C1038  C     0.50000   0.75000   0.60201   0.00000  Uiso   1.00
C1039  C     0.56535   0.76183   0.10437   0.00000  Uiso   1.00
C1040  C     0.76093   0.93449   0.89563   0.00000  Uiso   1.00
C1041  C     0.76184   0.56535   0.10437   0.00000  Uiso   1.00
C1042  C     0.56551   0.73905   0.89563   0.00000  Uiso   1.00
C1043  C     0.93464   0.73818   0.10437   0.00000  Uiso   1.00
C1044  C     0.75000   0.50000   0.39799   0.00000  Uiso   1.00
C1045  C     0.50209   0.71686   0.58209   0.00000  Uiso   1.00
C1046  C     0.75000   0.50000   0.60201   0.00000  Uiso   1.00
C1047  C     0.75000   0.50000   0.89798   0.00000  Uiso   1.00
C1048  C     0.75000   0.50000   0.10201   0.00000  Uiso   1.00
C1049  C     0.50000   0.75000   0.89798   0.00000  Uiso   1.00
C1050  C     0.50000   0.75000   0.10201   0.00000  Uiso   1.00
C1051  C     0.50270   0.68338   0.48003   0.00000  Uiso   1.00
C1052  C     0.50363   0.81657   0.51998   0.00000  Uiso   1.00
C1053  C     0.81662   0.99727   0.48003   0.00000  Uiso   1.00
C1054  C     0.68343   0.99635   0.51999   0.00000  Uiso   1.00
C1055  C     0.99726   0.81662   0.48002   0.00000  Uiso   1.00
C1056  C     0.71689   0.99744   0.41792   0.00000  Uiso   1.00
C1057  C     0.99632   0.68343   0.51998   0.00000  Uiso   1.00
C1058  C     0.68338   0.50272   0.48003   0.00000  Uiso   1.00
C1059  C     0.81657   0.50364   0.51998   0.00000  Uiso   1.00
C1060  C     0.74630   0.93343   0.98001   0.00000  Uiso   1.00
C1061  C     0.74732   0.56662   0.01997   0.00000  Uiso   1.00
C1062  C     0.56657   0.75368   0.98001   0.00000  Uiso   1.00
C1063  C     0.93338   0.75271   0.01997   0.00000  Uiso   1.00
C1064  C     0.75370   0.56656   0.98001   0.00000  Uiso   1.00
C1065  C     0.75268   0.93338   0.01997   0.00000  Uiso   1.00
C1066  C     0.93343   0.74633   0.98001   0.00000  Uiso   1.00
C1067  C     0.78314   0.99789   0.58209   0.00000  Uiso   1.00
C1068  C     0.56662   0.74731   0.01997   0.00000  Uiso   1.00
C1069  C     0.75000   0.50000   0.35563   0.00000  Uiso   1.00
C1070  C     0.75000   0.50000   0.64438   0.00000  Uiso   1.00
C1071  C     0.50000   0.75000   0.35562   0.00000  Uiso   1.00
C1072  C     0.50000   0.75000   0.64438   0.00000  Uiso   1.00
C1073  C     0.50000   0.75000   0.85562   0.00000  Uiso   1.00
C1074  C     0.50000   0.75000   0.14438   0.00000  Uiso   1.00
C1075  C     0.75000   0.50000   0.85562   0.00000  Uiso   1.00
C1076  C     0.75000   0.50000   0.14437   0.00000  Uiso   1.00
C1077  C     0.68003   0.56997   0.25000   0.00000  Uiso   1.00
C1078  C     0.99743   0.71689   0.41791   0.00000  Uiso   1.00
C1079  C     0.81998   0.93002   0.75000   0.00000  Uiso   1.00
C1080  C     0.93002   0.68002   0.25000   0.00000  Uiso   1.00
C1081  C     0.56997   0.81997   0.75000   0.00000  Uiso   1.00
C1082  C     0.81997   0.93003   0.25000   0.00000  Uiso   1.00
C1083  C     0.68002   0.56998   0.75000   0.00000  Uiso   1.00
C1084  C     0.56998   0.81998   0.25000   0.00000  Uiso   1.00
C1085  C     0.93003   0.68003   0.75000   0.00000  Uiso   1.00
C1086  C     0.68003   0.93003   0.75000   0.00000  Uiso   1.00
C1087  C     0.81998   0.56998   0.25000   0.00000  Uiso   1.00
C1088  C     0.93002   0.81998   0.75000   0.00000  Uiso   1.00
C1089  C     0.99790   0.78314   0.58209   0.00000  Uiso   1.00
C1090  C     0.56997   0.68003   0.25000   0.00000  Uiso   1.00
C1091  C     0.81997   0.56997   0.75000   0.00000  Uiso   1.00
C1092  C     0.68002   0.93002   0.25000   0.00000  Uiso   1.00
C1093  C     0.56998   0.68002   0.75000   0.00000  Uiso   1.00
C1094  C     0.93003   0.81997   0.25000   0.00000  Uiso   1.00
C1095  C     0.63442   0.89245   0.21484   0.00000  Uiso   1.00
C1096  C     0.88496   0.58808   0.74618   0.00000  Uiso   1.00
C1097  C     0.58807   0.61503   0.25371   0.00000  Uiso   1.00
C1098  C     0.89217   0.86529   0.78523   0.00000  Uiso   1.00
C1099  C     0.86558   0.60755   0.21484   0.00000  Uiso   1.00
C1100  C     0.78311   0.50255   0.41791   0.00000  Uiso   1.00
C1101  C     0.61504   0.91193   0.74621   0.00000  Uiso   1.00
C1102  C     0.91193   0.88496   0.25377   0.00000  Uiso   1.00
C1103  C     0.60784   0.63471   0.78523   0.00000  Uiso   1.00
C1104  C     0.63471   0.60784   0.78523   0.00000  Uiso   1.00
C1105  C     0.88496   0.91193   0.25377   0.00000  Uiso   1.00
C1106  C     0.58807   0.88497   0.74621   0.00000  Uiso   1.00
C1107  C     0.89244   0.63443   0.21484   0.00000  Uiso   1.00
C1108  C     0.86529   0.89217   0.78523   0.00000  Uiso   1.00
C1109  C     0.61503   0.58807   0.25371   0.00000  Uiso   1.00
C1110  C     0.91192   0.61504   0.74618   0.00000  Uiso   1.00
C1111  C     0.71686   0.50210   0.58209   0.00000  Uiso   1.00
C1112  C     0.60755   0.86558   0.21484   0.00000  Uiso   1.00
C1113  C     0.86504   0.66192   0.75382   0.00000  Uiso   1.00
C1114  C     0.61558   0.85755   0.28516   0.00000  Uiso   1.00
C1115  C     0.85782   0.88470   0.71477   0.00000  Uiso   1.00
C1116  C     0.66193   0.63497   0.24629   0.00000  Uiso   1.00
C1117  C     0.63497   0.83807   0.75379   0.00000  Uiso   1.00
C1118  C     0.88442   0.64244   0.28516   0.00000  Uiso   1.00
C1119  C     0.64217   0.61530   0.71477   0.00000  Uiso   1.00
C1120  C     0.83807   0.86504   0.24623   0.00000  Uiso   1.00
C1121  C     0.86504   0.83807   0.24623   0.00000  Uiso   1.00
C1122  C     0.74792   0.53314   0.91791   0.00000  Uiso   1.00
C1123  C     0.61529   0.64217   0.71477   0.00000  Uiso   1.00
C1124  C     0.85756   0.61557   0.28516   0.00000  Uiso   1.00
C1125  C     0.66193   0.86504   0.75379   0.00000  Uiso   1.00
C1126  C     0.63497   0.66193   0.24629   0.00000  Uiso   1.00
C1127  C     0.88470   0.85782   0.71477   0.00000  Uiso   1.00
C1128  C     0.64245   0.88442   0.28516   0.00000  Uiso   1.00
C1129  C     0.83808   0.63496   0.75382   0.00000  Uiso   1.00
C1130  C     0.50060   0.71634   0.45884   0.00000  Uiso   1.00
C1131  C     0.50107   0.78365   0.54117   0.00000  Uiso   1.00
C1132  C     0.78366   0.99938   0.45884   0.00000  Uiso   1.00
I1133  I     0.52643   0.63438   0.45704   0.00000  Uiso   1.00
I1134  I     0.72361   0.61563   0.04296   0.00000  Uiso   1.00
I1135  I     0.61519   0.77814   0.95699   0.00000  Uiso   1.00
I1136  I     0.88438   0.77644   0.04296   0.00000  Uiso   1.00
I1137  I     0.77817   0.61518   0.95699   0.00000  Uiso   1.00
I1138  I     0.77639   0.88437   0.04296   0.00000  Uiso   1.00
I1139  I     0.88480   0.72189   0.95699   0.00000  Uiso   1.00
I1140  I     0.61562   0.72358   0.04296   0.00000  Uiso   1.00
I1141  I     0.52803   0.86523   0.54300   0.00000  Uiso   1.00
I1142  I     0.86561   0.97352   0.45703   0.00000  Uiso   1.00
I1143  I     0.63479   0.97193   0.54301   0.00000  Uiso   1.00
I1144  I     0.97350   0.86560   0.45701   0.00000  Uiso   1.00
I1145  I     0.97187   0.63480   0.54301   0.00000  Uiso   1.00
I1146  I     0.63439   0.52647   0.45703   0.00000  Uiso   1.00
I1147  I     0.86521   0.52806   0.54300   0.00000  Uiso   1.00
I1148  I     0.72183   0.88481   0.95699   0.00000  Uiso   1.00
N1149  N     0.65194   0.92320   0.14900   0.00000  Uiso   1.00
N1150  N     0.90317   0.97999   0.26322   0.00000  Uiso   1.00
N1151  N     0.52001   0.90318   0.73672   0.00000  Uiso   1.00
N1152  N     0.92318   0.65197   0.14900   0.00000  Uiso   1.00
N1153  N     0.84716   0.92239   0.85116   0.00000  Uiso   1.00
N1154  N     0.59681   0.51999   0.26307   0.00000  Uiso   1.00
N1155  N     0.97999   0.59683   0.73663   0.00000  Uiso   1.00
N1156  N     0.57680   0.84806   0.14900   0.00000  Uiso   1.00
N1157  N     0.84683   0.72998   0.76337   0.00000  Uiso   1.00
N1158  N     0.59806   0.82680   0.35100   0.00000  Uiso   1.00
N1159  N     0.82757   0.90280   0.64885   0.00000  Uiso   1.00
N1160  N     0.90317   0.52002   0.73662   0.00000  Uiso   1.00
N1161  N     0.73001   0.65319   0.23693   0.00000  Uiso   1.00
N1162  N     0.65318   0.77001   0.76329   0.00000  Uiso   1.00
N1163  N     0.90195   0.67319   0.35100   0.00000  Uiso   1.00
N1164  N     0.67240   0.59717   0.64884   0.00000  Uiso   1.00
N1165  N     0.77001   0.84683   0.23677   0.00000  Uiso   1.00
N1166  N     0.84683   0.77001   0.23678   0.00000  Uiso   1.00
N1167  N     0.59716   0.67239   0.64884   0.00000  Uiso   1.00
N1168  N     0.82681   0.59805   0.35100   0.00000  Uiso   1.00
N1169  N     0.72999   0.84682   0.76329   0.00000  Uiso   1.00
N1170  N     0.65319   0.73001   0.23694   0.00000  Uiso   1.00
N1171  N     0.51999   0.59681   0.26307   0.00000  Uiso   1.00
N1172  N     0.90281   0.82758   0.64885   0.00000  Uiso   1.00
N1173  N     0.67320   0.90194   0.35100   0.00000  Uiso   1.00
N1174  N     0.77001   0.65317   0.76338   0.00000  Uiso   1.00
N1175  N     0.51930   0.84075   0.37740   0.00000  Uiso   1.00
N1176  N     0.51810   0.65900   0.62260   0.00000  Uiso   1.00
N1177  N     0.65925   0.98071   0.37740   0.00000  Uiso   1.00
N1178  N     0.84100   0.98185   0.62260   0.00000  Uiso   1.00
N1179  N     0.98070   0.65925   0.37739   0.00000  Uiso   1.00
N1180  N     0.98188   0.84100   0.62261   0.00000  Uiso   1.00
N1181  N     0.84075   0.51928   0.37740   0.00000  Uiso   1.00
N1182  N     0.92239   0.84716   0.85116   0.00000  Uiso   1.00
N1183  N     0.65901   0.51816   0.62259   0.00000  Uiso   1.00
N1184  N     0.73190   0.59101   0.87741   0.00000  Uiso   1.00
N1185  N     0.73069   0.90926   0.12261   0.00000  Uiso   1.00
N1186  N     0.90900   0.76812   0.87740   0.00000  Uiso   1.00
N1187  N     0.59075   0.76930   0.12261   0.00000  Uiso   1.00
N1188  N     0.76808   0.90899   0.87740   0.00000  Uiso   1.00
N1189  N     0.76931   0.59074   0.12261   0.00000  Uiso   1.00
N1190  N     0.59100   0.73189   0.87740   0.00000  Uiso   1.00
N1191  N     0.90925   0.73072   0.12261   0.00000  Uiso   1.00
N1192  N     0.84806   0.57680   0.14900   0.00000  Uiso   1.00
N1193  N     0.59682   0.97999   0.73670   0.00000  Uiso   1.00
N1194  N     0.97999   0.90317   0.26323   0.00000  Uiso   1.00
N1195  N     0.57763   0.65286   0.85116   0.00000  Uiso   1.00
N1196  N     0.65285   0.57762   0.85116   0.00000  Uiso   1.00
O1197  O     0.75000   0.50000   0.25000   0.00000  Uiso   1.00
O1198  O     0.75000   0.96964   0.66245   0.00000  Uiso   1.00
O1199  O     0.96963   0.75000   0.33755   0.00000  Uiso   1.00
O1200  O     0.53036   0.75000   0.66245   0.00000  Uiso   1.00
O1201  O     0.50000   0.71964   0.83755   0.00000  Uiso   1.00
O1202  O     0.50000   0.78037   0.16245   0.00000  Uiso   1.00
O1203  O     0.78036   0.50000   0.83755   0.00000  Uiso   1.00
O1204  O     0.71963   0.50000   0.16245   0.00000  Uiso   1.00
O1205  O     0.50000   0.78037   0.83755   0.00000  Uiso   1.00
O1206  O     0.50000   0.71964   0.16245   0.00000  Uiso   1.00
O1207  O     0.71963   0.50000   0.83755   0.00000  Uiso   1.00
O1208  O     0.75000   0.50000   0.75000   0.00000  Uiso   1.00
O1209  O     0.78036   0.50000   0.16245   0.00000  Uiso   1.00
O1210  O     0.70724   0.57307   0.27302   0.00000  Uiso   1.00
O1211  O     0.79275   0.92693   0.72698   0.00000  Uiso   1.00
O1212  O     0.92692   0.70725   0.27302   0.00000  Uiso   1.00
O1213  O     0.57307   0.79276   0.72698   0.00000  Uiso   1.00
O1214  O     0.79275   0.92693   0.27302   0.00000  Uiso   1.00
O1215  O     0.70724   0.57307   0.72698   0.00000  Uiso   1.00
O1216  O     0.57307   0.79276   0.27302   0.00000  Uiso   1.00
O1217  O     0.92692   0.70725   0.72698   0.00000  Uiso   1.00
O1218  O     0.70724   0.92693   0.72698   0.00000  Uiso   1.00
O1219  O     0.50000   0.75000   0.25000   0.00000  Uiso   1.00
O1220  O     0.79275   0.57307   0.27302   0.00000  Uiso   1.00
O1221  O     0.92692   0.79276   0.72698   0.00000  Uiso   1.00
O1222  O     0.57307   0.70725   0.27302   0.00000  Uiso   1.00
O1223  O     0.79275   0.57307   0.72698   0.00000  Uiso   1.00
O1224  O     0.70724   0.92693   0.27302   0.00000  Uiso   1.00
O1225  O     0.57307   0.70725   0.72698   0.00000  Uiso   1.00
O1226  O     0.92692   0.79276   0.27302   0.00000  Uiso   1.00
O1227  O     0.95724   0.82308   0.77302   0.00000  Uiso   1.00
O1228  O     0.54275   0.67693   0.22698   0.00000  Uiso   1.00
O1229  O     0.67692   0.95725   0.77302   0.00000  Uiso   1.00
O1230  O     0.50000   0.75000   0.75000   0.00000  Uiso   1.00
O1231  O     0.82307   0.54275   0.22698   0.00000  Uiso   1.00
O1232  O     0.54275   0.67693   0.77302   0.00000  Uiso   1.00
O1233  O     0.95724   0.82308   0.22698   0.00000  Uiso   1.00
O1234  O     0.82307   0.54275   0.77302   0.00000  Uiso   1.00
O1235  O     0.67692   0.95725   0.22698   0.00000  Uiso   1.00
O1236  O     0.95724   0.67692   0.22698   0.00000  Uiso   1.00
O1237  O     0.54275   0.82308   0.77302   0.00000  Uiso   1.00
O1238  O     0.67692   0.54275   0.22698   0.00000  Uiso   1.00
O1239  O     0.82307   0.95725   0.77302   0.00000  Uiso   1.00
O1240  O     0.54275   0.82308   0.22698   0.00000  Uiso   1.00
O1241  O     0.75000   0.96964   0.33755   0.00000  Uiso   1.00
O1242  O     0.95724   0.67692   0.77302   0.00000  Uiso   1.00
O1243  O     0.82307   0.95725   0.22698   0.00000  Uiso   1.00
O1244  O     0.67692   0.54275   0.77302   0.00000  Uiso   1.00
O1245  O     0.75000   0.53036   0.66245   0.00000  Uiso   1.00
O1246  O     0.53036   0.75000   0.33755   0.00000  Uiso   1.00
O1247  O     0.96963   0.75000   0.66245   0.00000  Uiso   1.00
O1248  O     0.75000   0.53036   0.33755   0.00000  Uiso   1.00
Zn1249 Zn    0.70659   0.50000   0.21735   0.00000  Uiso   1.00
Zn1250 Zn    0.54340   0.75000   0.28265   0.00000  Uiso   1.00
Zn1251 Zn    0.75000   0.95660   0.71735   0.00000  Uiso   1.00
Zn1252 Zn    0.75000   0.54340   0.28265   0.00000  Uiso   1.00
Zn1253 Zn    0.54340   0.75000   0.71735   0.00000  Uiso   1.00
Zn1254 Zn    0.95659   0.75000   0.28265   0.00000  Uiso   1.00
Zn1255 Zn    0.75000   0.54340   0.71735   0.00000  Uiso   1.00
Zn1256 Zn    0.75000   0.95660   0.28265   0.00000  Uiso   1.00
Zn1257 Zn    0.79340   0.50000   0.78265   0.00000  Uiso   1.00
Zn1258 Zn    0.50000   0.70660   0.21735   0.00000  Uiso   1.00
Zn1259 Zn    0.50000   0.79341   0.78265   0.00000  Uiso   1.00
Zn1260 Zn    0.79340   0.50000   0.21735   0.00000  Uiso   1.00
Zn1261 Zn    0.70659   0.50000   0.78265   0.00000  Uiso   1.00
Zn1262 Zn    0.50000   0.79341   0.21735   0.00000  Uiso   1.00
Zn1263 Zn    0.50000   0.70659   0.78265   0.00000  Uiso   1.00
Zn1264 Zn    0.95659   0.75000   0.71735   0.00000  Uiso   1.00
loop_
_geom_bond_atom_site_label_1
_geom_bond_atom_site_label_2
_geom_bond_distance
_geom_bond_site_symmetry_2
_ccdc_geom_bond_type
C1     C78     1.452   .     S
C1     C320    1.413   1_455 S
C1     C79     1.400   .     S
C2     C14     1.413   .     A
C2     C88     1.452   .     S
C2     C732    1.400   .     A
C3     C106    1.416   .     A
C3     C670    1.425   .     A
C3     C795    1.413   .     S
C4     C107    1.416   .     A
C4     C34     1.425   .     A
C4     C317    1.413   .     S
C5     C36     1.425   .     A
C5     C109    1.416   .     A
C5     C413    1.413   .     S
C6     C110    1.416   .     A
C6     C669    1.425   1_545 S
C6     C740    1.413   1_545 S
C7     C111    1.416   .     A
C7     C38     1.425   .     S
C7     C751    1.413   1_545 S
C8     C112    1.416   .     A
C8     C35     1.413   .     A
C8     C671    1.425   .     A
C9     C113    1.416   .     A
C9     C46     1.413   .     A
C9     C40     1.425   .     S
C10    C114    1.416   .     A
C10    C57     1.413   .     A
C10    C41     1.425   .     S
C11    C115    1.416   .     A
C11    C68     1.413   .     A
C11    C358    1.425   .     A
C12    C174    1.413   .     A
C12    C116    1.416   .     A
C12    C39     1.425   .     S
C13    C15     1.413   .     A
C13    C89     1.452   .     S
C13    C417    1.400   .     S
C14    C117    1.416   .     A
C14    C672    1.425   .     A
C15    C118    1.416   .     A
C15    C357    1.425   .     A
C16    C120    1.416   .     A
C16    C24     1.413   .     A
C16    C42     1.425   .     S
C17    C164    1.413   .     A
C17    C166    1.413   .     A
C17    C136    1.461   .     S
C18    C137    1.461   .     S
C18    C165    1.411   .     A
C18    C162    1.411   .     A
C19    C129    1.461   .     S
C19    C161    1.411   .     A
C19    C168    1.411   .     A
C20    C160    1.413   .     A
C20    C167    1.413   .     A
C20    C131    1.461   .     S
C21    C170    1.413   .     A
C21    C159    1.413   .     A
C21    C132    1.461   .     S
C22    C133    1.461   .     S
C22    C158    1.411   .     A
C22    C169    1.411   .     A
C23    C134    1.461   .     S
C23    C157    1.411   .     A
C23    C172    1.411   .     A
C24    C91     1.452   .     S
C24    C102    1.400   .     S
C25    C171    1.413   .     A
C25    C135    1.461   .     S
C25    C156    1.413   .     A
C26    C155    1.413   .     A
C26    C145    1.461   .     S
C26    C175    1.413   .     A
C27    C154    1.411   .     A
C27    C146    1.461   .     S
C27    C173    1.411   .     A
C28    C153    1.411   .     A
C28    C177    1.411   .     A
C28    C138    1.461   .     S
C29    C151    1.413   .     A
C29    C176    1.413   .     A
C29    C139    1.461   .     S
C30    C150    1.413   .     A
C30    C179    1.413   .     A
C30    C140    1.461   .     S
C31    C178    1.411   .     A
C31    C149    1.411   .     A
C31    C142    1.461   .     S
C32    C181    1.411   .     A
C32    C148    1.411   .     A
C32    C143    1.461   .     S
C33    C147    1.413   .     A
C33    C144    1.461   .     S
C33    C180    1.413   .     A
C34    C36     1.417   .     A
C34    C498    1.425   .     S
C35    C92     1.452   .     S
C35    C731    1.400   .     A
C36    C499    1.425   .     S
C37    C670    1.417   .     A
C37    C184    1.425   .     A
C37    C638    1.425   .     S
C38    C669    1.417   1_545 A
C38    C635    1.425   1_545 A
C39    C640    1.425   1_545 A
C39    C40     1.417   1_556 S
C40    C646    1.425   1_545 A
C40    C39     1.417   1_554 S
C41    C331    1.425   1_455 A
C41    C42     1.417   1_556 S
C42    C327    1.425   1_455 A
C42    C41     1.417   1_554 S
C43    N201    1.157   .     T
C43    C147    1.455   .     S
C44    N212    1.157   .     T
C44    C148    1.453   .     S
C45    N223    1.157   .     T
C45    C149    1.453   .     S
C46    C93     1.452   .     S
C46    C100    1.400   .     S
C47    C150    1.454   .     S
C47    N234    1.157   .     T
C48    C151    1.455   .     S
C48    N244    1.157   .     T
C49    C153    1.453   .     S
C49    N245    1.157   .     T
C50    N246    1.157   .     T
C50    C154    1.453   .     S
C51    N247    1.157   .     T
C51    C155    1.454   .     S
C52    N248    1.157   .     T
C52    C156    1.454   .     S
C53    N202    1.157   .     T
C53    C157    1.453   .     S
C54    N203    1.157   .     T
C54    C158    1.453   .     S
C55    C159    1.455   .     S
C55    N204    1.157   .     T
C56    N205    1.157   .     T
C56    C160    1.454   .     S
C57    C94     1.452   .     S
C57    C101    1.400   .     A
C58    N206    1.157   .     T
C58    C161    1.453   .     S
C59    C162    1.453   .     S
C59    N207    1.157   .     T
C60    C164    1.455   .     S
C60    N208    1.157   .     T
C61    C165    1.453   .     S
C61    N209    1.157   .     T
C62    N210    1.157   .     T
C62    C166    1.455   .     S
C63    C167    1.454   .     S
C63    N211    1.157   .     T
C64    N213    1.157   .     T
C64    C168    1.453   .     S
C65    C169    1.453   .     S
C65    N214    1.157   .     T
C66    N215    1.157   .     T
C66    C170    1.455   .     S
C67    N216    1.157   .     T
C67    C171    1.454   .     S
C68    C95     1.452   .     S
C68    C418    1.400   .     A
C69    C172    1.453   .     S
C69    N217    1.157   .     T
C70    N218    1.157   .     T
C70    C173    1.453   .     S
C71    N219    1.157   .     T
C71    C175    1.454   .     S
C72    N220    1.157   .     T
C72    C176    1.455   .     S
C73    N221    1.157   .     T
C73    C177    1.453   .     S
C74    C178    1.453   .     S
C74    N222    1.157   .     T
C75    C179    1.454   .     S
C75    N224    1.157   .     T
C76    N225    1.157   .     T
C76    C180    1.455   .     S
C77    C181    1.453   .     S
C77    N226    1.157   .     T
C78    N227    1.158   .     T
C79    C446    1.400   1_455 A
C79    C123    1.457   .     S
C80    C97     1.452   .     S
C80    N228    1.158   .     T
C81    C108    1.452   .     S
C81    N229    1.158   .     T
C82    N230    1.158   .     T
C82    C119    1.452   .     S
C83    N231    1.158   .     T
C83    C130    1.452   .     S
C84    N232    1.158   .     T
C84    C141    1.452   .     S
C85    N233    1.158   .     T
C85    C152    1.452   .     S
C86    C163    1.452   .     S
C86    N235    1.158   .     T
C87    C174    1.452   .     S
C87    N236    1.158   .     T
C88    N237    1.158   .     T
C89    N238    1.158   .     T
C90    C457    1.400   1_455 A
C90    C124    1.457   .     S
C90    C97     1.400   .     S
C91    N239    1.158   .     T
C92    N240    1.158   .     T
C93    N241    1.158   .     T
C94    N242    1.158   .     T
C95    N243    1.158   .     T
C96    C740    1.400   1_545 A
C96    C121    1.457   .     S
C96    C152    1.400   .     S
C97    C321    1.413   1_455 S
C98    C122    1.457   .     S
C98    C751    1.400   1_545 A
C98    C163    1.400   .     S
C99    C127    1.457   .     S
C99    C667    1.400   1_545 A
C99    C174    1.400   .     S
C100   C634    1.400   1_545 A
C100   C128    1.457   .     S
C101   C125    1.457   .     S
C101   C329    1.400   1_455 S
C102   C384    1.400   1_455 A
C102   C126    1.457   .     S
C103   I185    2.152   .     S
C103   C182    1.416   .     A
C103   C425    1.394   1_455 S
C104   I193    2.152   .     S
C104   C183    1.416   .     A
C104   C423    1.394   1_455 S
C105   C184    1.416   .     A
C105   I194    2.152   .     S
C105   C743    1.394   .     S
C106   I195    2.152   .     S
C106   C742    1.394   .     S
C107   I196    2.152   .     S
C107   C420    1.394   .     S
C108   C728    1.400   .     A
C108   C638    1.413   .     S
C109   I197    2.152   .     S
C109   C419    1.394   .     S
C110   I198    2.152   .     S
C110   C738    1.394   1_545 S
C111   I199    2.152   .     S
C111   C737    1.394   1_545 S
C112   I200    2.152   .     S
C112   C117    1.394   1_556 S
C113   I186    2.152   .     S
C113   C116    1.394   1_554 S
C114   I187    2.152   .     S
C114   C120    1.394   1_556 S
C115   I188    2.152   .     S
C115   C118    1.394   1_554 S
C116   I189    2.152   .     S
C116   C113    1.394   1_556 S
C117   I190    2.152   .     S
C117   C112    1.394   1_554 S
C118   I191    2.152   .     S
C118   C115    1.394   1_556 S
C119   C730    1.400   .     A
C119   C639    1.413   .     S
C120   I192    2.152   .     S
C120   C114    1.394   1_554 S
C121   O925    1.278   1_545 A
C121   O300    1.278   .     S
C122   O882    1.278   1_545 A
C122   O297    1.278   .     S
C123   O567    1.278   1_455 A
C123   O298    1.278   .     S
C124   O615    1.278   1_455 A
C124   O252    1.278   .     S
C125   O257    1.278   .     A
C125   O253    1.278   .     S
C126   O254    1.278   .     A
C126   O258    1.278   .     S
C127   O255    1.278   .     S
C127   O259    1.278   .     S
C128   O256    1.278   .     S
C128   O261    1.278   .     S
C129   O262    1.281   .     A
C129   O290    1.281   .     A
C130   C395    1.400   .     A
C130   C498    1.413   .     S
C131   O291    1.281   .     A
C131   O263    1.281   .     A
C132   O264    1.281   .     A
C132   O288    1.281   .     A
C133   O289    1.281   .     A
C133   O265    1.281   .     A
C134   O266    1.281   .     A
C134   O295    1.281   .     A
C135   O267    1.281   .     A
C135   O296    1.281   .     A
C136   O268    1.281   .     A
C136   O292    1.281   .     A
C137   O269    1.281   .     A
C137   O294    1.281   .     A
C138   O270    1.281   .     A
C138   O281    1.281   .     A
C139   O272    1.281   .     A
C139   O283    1.281   .     A
C140   O273    1.281   .     A
C140   O279    1.281   .     A
C141   C406    1.400   .     A
C141   C499    1.413   .     S
C142   O280    1.281   .     A
C142   O274    1.281   .     A
C143   O286    1.281   .     A
C143   O275    1.281   .     A
C144   O287    1.281   .     A
C144   O276    1.281   .     A
C145   O277    1.281   .     A
C145   O284    1.281   .     A
C146   O285    1.281   .     A
C146   O278    1.281   .     A
C147   C164    1.397   .     A
C148   C162    1.402   .     A
C149   C161    1.402   .     A
C150   C160    1.397   .     A
C151   C159    1.397   .     A
C152   C816    1.413   1_545 S
C153   C158    1.402   .     A
C154   C157    1.402   .     A
C155   C156    1.397   .     A
C163   C635    1.413   1_545 S
C165   C181    1.402   .     A
C166   C180    1.397   .     A
C167   C179    1.397   .     A
C168   C178    1.402   .     A
C169   C177    1.402   .     A
C170   C176    1.397   .     A
C171   C175    1.397   .     A
C172   C173    1.402   .     A
C182   C350    1.425   1_455 S
C182   C446    1.413   1_455 S
C183   C457    1.413   1_455 S
C183   C352    1.425   1_455 S
C184   C784    1.413   .     S
O249   Zn301   1.951   .     S
O249   Zn312   1.951   .     S
O249   Zn304   1.951   .     S
O249   Zn940   1.951   1_545 S
O250   C754    1.278   .     A
O250   Zn303   1.948   .     S
O251   C439    1.278   .     A
O251   Zn306   1.948   .     S
O252   Zn305   1.948   .     S
O253   Zn315   1.948   .     S
O254   Zn314   1.948   .     S
O255   Zn309   1.948   .     S
O256   Zn301   1.948   .     S
O257   Zn311   1.948   .     S
O258   Zn310   1.948   .     S
O259   Zn313   1.948   .     S
O260   Zn313   1.951   .     S
O260   Zn307   1.951   .     S
O260   Zn309   1.951   .     S
O260   Zn935   1.951   1_545 S
O261   Zn312   1.948   .     S
O262   Zn304   1.941   .     S
O263   Zn303   1.941   .     S
O264   Zn306   1.942   .     S
O265   Zn305   1.942   .     S
O266   Zn308   1.941   .     S
O267   Zn307   1.941   .     S
O268   Zn302   1.942   .     S
O269   Zn316   1.942   .     S
O270   Zn303   1.942   .     S
O271   Zn622   1.951   1_455 S
O271   Zn302   1.951   .     S
O271   Zn310   1.951   .     S
O271   Zn314   1.951   .     S
O272   Zn304   1.942   .     S
O273   Zn316   1.941   .     S
O274   Zn302   1.941   .     S
O275   Zn307   1.942   .     S
O276   Zn308   1.942   .     S
O277   Zn305   1.941   .     S
O278   Zn306   1.941   .     S
O279   Zn627   1.941   .     S
O280   Zn310   1.941   .     S
O281   Zn945   1.942   .     S
O282   Zn305   1.951   .     S
O282   Zn311   1.951   .     S
O282   Zn315   1.951   .     S
O282   Zn632   1.951   1_455 S
O283   Zn312   1.942   .     S
O284   Zn315   1.941   .     S
O285   Zn630   1.941   .     S
O286   Zn309   1.942   .     S
O287   Zn933   1.942   .     S
O288   Zn626   1.942   .     S
O289   Zn311   1.942   .     S
O290   Zn301   1.941   .     S
O291   Zn941   1.941   .     S
O292   Zn314   1.942   .     S
O293   C753    1.278   .     A
O293   Zn308   1.948   .     S
O294   Zn631   1.942   .     S
O295   Zn944   1.941   .     S
O296   Zn313   1.941   .     S
O297   Zn307   1.948   .     S
O298   Zn302   1.948   .     S
O299   C440    1.278   .     A
O299   Zn316   1.948   .     S
O300   Zn304   1.948   .     S
Zn301  O919    1.942   1_545 S
Zn303  O892    1.951   .     S
Zn306  O587    1.951   .     S
Zn308  O881    1.951   .     S
Zn309  O923    1.941   1_545 S
Zn310  O604    1.942   1_455 S
Zn311  O595    1.941   1_455 S
Zn312  O927    1.941   1_545 S
Zn313  O913    1.942   1_545 S
Zn314  O601    1.941   1_455 S
Zn315  O610    1.942   1_455 S
Zn316  O598    1.951   .     S
C317   C394    1.452   .     S
C317   C395    1.400   .     S
C318   C330    1.413   .     A
C318   C404    1.452   .     S
C318   C1048   1.400   .     A
C319   C422    1.416   .     A
C319   C986    1.425   .     A
C319   C1111   1.413   .     S
C320   C423    1.416   .     A
C320   C350    1.425   .     A
C320   C1      1.413   1_655 S
C321   C352    1.425   .     A
C321   C425    1.416   .     A
C321   C97     1.413   1_655 S
C322   C426    1.416   .     A
C322   C985    1.425   1_545 S
C322   C1056   1.413   1_545 S
C323   C427    1.416   .     A
C323   C354    1.425   .     S
C323   C1067   1.413   1_545 S
C324   C428    1.416   .     A
C324   C351    1.413   .     A
C324   C987    1.425   .     A
C325   C429    1.416   .     A
C325   C362    1.413   .     A
C325   C356    1.425   .     S
C326   C430    1.416   .     A
C326   C373    1.413   .     A
C326   C357    1.425   .     S
C327   C431    1.416   .     A
C327   C384    1.413   .     A
C327   C42     1.425   1_655 A
C328   C490    1.413   .     A
C328   C432    1.416   .     A
C328   C355    1.425   .     S
C329   C331    1.413   .     A
C329   C405    1.452   .     S
C329   C101    1.400   1_655 S
C330   C433    1.416   .     A
C330   C988    1.425   .     A
C331   C434    1.416   .     A
C331   C41     1.425   1_655 A
C332   C436    1.416   .     A
C332   C340    1.413   .     A
C332   C358    1.425   .     S
C333   C480    1.413   .     A
C333   C482    1.413   .     A
C333   C452    1.461   .     S
C334   C453    1.461   .     S
C334   C481    1.411   .     A
C334   C478    1.411   .     A
C335   C445    1.461   .     S
C335   C477    1.411   .     A
C335   C484    1.411   .     A
C336   C476    1.413   .     A
C336   C483    1.413   .     A
C336   C447    1.461   .     S
C337   C486    1.413   .     A
C337   C475    1.413   .     A
C337   C448    1.461   .     S
C338   C449    1.461   .     S
C338   C474    1.411   .     A
C338   C485    1.411   .     A
C339   C450    1.461   .     S
C339   C473    1.411   .     A
C339   C488    1.411   .     A
C340   C407    1.452   .     S
C340   C418    1.400   .     S
C341   C487    1.413   .     A
C341   C451    1.461   .     S
C341   C472    1.413   .     A
C342   C471    1.413   .     A
C342   C461    1.461   .     S
C342   C491    1.413   .     A
C343   C470    1.411   .     A
C343   C462    1.461   .     S
C343   C489    1.411   .     A
C344   C469    1.411   .     A
C344   C493    1.411   .     A
C344   C454    1.461   .     S
C345   C467    1.413   .     A
C345   C492    1.413   .     A
C345   C455    1.461   .     S
C346   C466    1.413   .     A
C346   C495    1.413   .     A
C346   C456    1.461   .     S
C347   C494    1.411   .     A
C347   C465    1.411   .     A
C347   C458    1.461   .     S
C348   C497    1.411   .     A
C348   C464    1.411   .     A
C348   C459    1.461   .     S
C349   C463    1.413   .     A
C349   C460    1.461   .     S
C349   C496    1.413   .     A
C350   C352    1.417   .     A
C350   C182    1.425   1_655 S
C351   C408    1.452   .     S
C351   C1047   1.400   .     A
C352   C183    1.425   1_655 S
C353   C986    1.417   .     A
C353   C500    1.425   .     A
C353   C954    1.425   .     S
C354   C985    1.417   1_545 A
C354   C951    1.425   1_545 A
C355   C956    1.425   1_545 A
C355   C356    1.417   1_556 S
C356   C962    1.425   1_545 A
C356   C355    1.417   1_554 S
C357   C358    1.417   1_556 S
C358   C357    1.417   1_554 S
C359   N517    1.157   .     T
C359   C463    1.455   .     S
C360   N528    1.157   .     T
C360   C464    1.453   .     S
C361   N539    1.157   .     T
C361   C465    1.453   .     S
C362   C409    1.452   .     S
C362   C416    1.400   .     S
C363   C466    1.454   .     S
C363   N550    1.157   .     T
C364   C467    1.455   .     S
C364   N560    1.157   .     T
C365   C469    1.453   .     S
C365   N561    1.157   .     T
C366   N562    1.157   .     T
C366   C470    1.453   .     S
C367   N563    1.157   .     T
C367   C471    1.454   .     S
C368   N564    1.157   .     T
C368   C472    1.454   .     S
C369   N518    1.157   .     T
C369   C473    1.453   .     S
C370   N519    1.157   .     T
C370   C474    1.453   .     S
C371   C475    1.455   .     S
C371   N520    1.157   .     T
C372   N521    1.157   .     T
C372   C476    1.454   .     S
C373   C410    1.452   .     S
C373   C417    1.400   .     A
C374   N522    1.157   .     T
C374   C477    1.453   .     S
C375   C478    1.453   .     S
C375   N523    1.157   .     T
C376   C480    1.455   .     S
C376   N524    1.157   .     T
C377   C481    1.453   .     S
C377   N525    1.157   .     T
C378   N526    1.157   .     T
C378   C482    1.455   .     S
C379   C483    1.454   .     S
C379   N527    1.157   .     T
C380   N529    1.157   .     T
C380   C484    1.453   .     S
C381   C485    1.453   .     S
C381   N530    1.157   .     T
C382   N531    1.157   .     T
C382   C486    1.455   .     S
C383   N532    1.157   .     T
C383   C487    1.454   .     S
C384   C411    1.452   .     S
C384   C102    1.400   1_655 A
C385   C488    1.453   .     S
C385   N533    1.157   .     T
C386   N534    1.157   .     T
C386   C489    1.453   .     S
C387   N535    1.157   .     T
C387   C491    1.454   .     S
C388   N536    1.157   .     T
C388   C492    1.455   .     S
C389   N537    1.157   .     T
C389   C493    1.453   .     S
C390   C494    1.453   .     S
C390   N538    1.157   .     T
C391   C495    1.454   .     S
C391   N540    1.157   .     T
C392   N541    1.157   .     T
C392   C496    1.455   .     S
C393   C497    1.453   .     S
C393   N542    1.157   .     T
C394   N543    1.158   .     T
C395   C439    1.457   .     S
C396   C413    1.452   .     S
C396   N544    1.158   .     T
C397   C424    1.452   .     S
C397   N545    1.158   .     T
C398   N546    1.158   .     T
C398   C435    1.452   .     S
C399   N547    1.158   .     T
C399   C446    1.452   .     S
C400   N548    1.158   .     T
C400   C457    1.452   .     S
C401   N549    1.158   .     T
C401   C468    1.452   .     S
C402   C479    1.452   .     S
C402   N551    1.158   .     T
C403   C490    1.452   .     S
C403   N552    1.158   .     T
C404   N553    1.158   .     T
C405   N554    1.158   .     T
C406   C440    1.457   .     S
C406   C413    1.400   .     S
C407   N555    1.158   .     T
C408   N556    1.158   .     T
C409   N557    1.158   .     T
C410   N558    1.158   .     T
C411   N559    1.158   .     T
C412   C1056   1.400   1_545 A
C412   C437    1.457   .     S
C412   C468    1.400   .     S
C414   C438    1.457   .     S
C414   C1067   1.400   1_545 A
C414   C479    1.400   .     S
C415   C443    1.457   .     S
C415   C983    1.400   1_545 A
C415   C490    1.400   .     S
C416   C950    1.400   1_545 A
C416   C444    1.457   .     S
C417   C441    1.457   .     S
C418   C442    1.457   .     S
C419   I501    2.152   .     S
C419   C498    1.416   .     A
C420   I509    2.152   .     S
C420   C499    1.416   .     A
C421   C500    1.416   .     A
C421   I510    2.152   .     S
C421   C1059   1.394   .     S
C422   I511    2.152   .     S
C422   C1058   1.394   .     S
C423   I512    2.152   .     S
C423   C104    1.394   1_655 S
C424   C1044   1.400   .     A
C424   C954    1.413   .     S
C425   I513    2.152   .     S
C425   C103    1.394   1_655 S
C426   I514    2.152   .     S
C426   C1054   1.394   1_545 S
C427   I515    2.152   .     S
C427   C1053   1.394   1_545 S
C428   I516    2.152   .     S
C428   C433    1.394   1_556 S
C429   I502    2.152   .     S
C429   C432    1.394   1_554 S
C430   I503    2.152   .     S
C430   C436    1.394   1_556 S
C431   I504    2.152   .     S
C431   C434    1.394   1_554 S
C432   I505    2.152   .     S
C432   C429    1.394   1_556 S
C433   I506    2.152   .     S
C433   C428    1.394   1_554 S
C434   I507    2.152   .     S
C434   C431    1.394   1_556 S
C435   C1046   1.400   .     A
C435   C955    1.413   .     S
C436   I508    2.152   .     S
C436   C430    1.394   1_554 S
C437   O1241   1.278   1_545 A
C437   O616    1.278   .     S
C438   O1198   1.278   1_545 A
C438   O613    1.278   .     S
C439   O614    1.278   .     S
C440   O568    1.278   .     S
C441   O573    1.278   .     A
C441   O569    1.278   .     S
C442   O570    1.278   .     A
C442   O574    1.278   .     S
C443   O571    1.278   .     S
C443   O575    1.278   .     S
C444   O572    1.278   .     S
C444   O577    1.278   .     S
C445   O578    1.281   .     A
C445   O606    1.281   .     A
C446   C79     1.400   1_655 A
C446   C182    1.413   1_655 S
C447   O607    1.281   .     A
C447   O579    1.281   .     A
C448   O580    1.281   .     A
C448   O604    1.281   .     A
C449   O605    1.281   .     A
C449   O581    1.281   .     A
C450   O582    1.281   .     A
C450   O611    1.281   .     A
C451   O583    1.281   .     A
C451   O612    1.281   .     A
C452   O584    1.281   .     A
C452   O608    1.281   .     A
C453   O585    1.281   .     A
C453   O610    1.281   .     A
C454   O586    1.281   .     A
C454   O597    1.281   .     A
C455   O588    1.281   .     A
C455   O599    1.281   .     A
C456   O589    1.281   .     A
C456   O595    1.281   .     A
C457   C90     1.400   1_655 A
C457   C183    1.413   1_655 S
C458   O596    1.281   .     A
C458   O590    1.281   .     A
C459   O602    1.281   .     A
C459   O591    1.281   .     A
C460   O603    1.281   .     A
C460   O592    1.281   .     A
C461   O593    1.281   .     A
C461   O600    1.281   .     A
C462   O601    1.281   .     A
C462   O594    1.281   .     A
C463   C480    1.397   .     A
C464   C478    1.402   .     A
C465   C477    1.402   .     A
C466   C476    1.397   .     A
C467   C475    1.397   .     A
C468   C1132   1.413   1_545 S
C469   C474    1.402   .     A
C470   C473    1.402   .     A
C471   C472    1.397   .     A
C479   C951    1.413   1_545 S
C481   C497    1.402   .     A
C482   C496    1.397   .     A
C483   C495    1.397   .     A
C484   C494    1.402   .     A
C485   C493    1.402   .     A
C486   C492    1.397   .     A
C487   C491    1.397   .     A
C488   C489    1.402   .     A
C500   C1100   1.413   .     S
O565   Zn617   1.951   .     S
O565   Zn628   1.951   .     S
O565   Zn620   1.951   .     S
O565   Zn1256  1.951   1_545 S
O566   C1070   1.278   .     A
O566   Zn619   1.948   .     S
O567   C123    1.278   1_655 A
O567   Zn622   1.948   .     S
O568   Zn621   1.948   .     S
O569   Zn631   1.948   .     S
O570   Zn630   1.948   .     S
O571   Zn625   1.948   .     S
O572   Zn617   1.948   .     S
O573   Zn627   1.948   .     S
O574   Zn626   1.948   .     S
O575   Zn629   1.948   .     S
O576   Zn629   1.951   .     S
O576   Zn623   1.951   .     S
O576   Zn625   1.951   .     S
O576   Zn1251  1.951   1_545 S
O577   Zn628   1.948   .     S
O578   Zn620   1.941   .     S
O579   Zn619   1.941   .     S
O580   Zn622   1.942   .     S
O581   Zn621   1.942   .     S
O582   Zn624   1.941   .     S
O583   Zn623   1.941   .     S
O584   Zn618   1.942   .     S
O585   Zn632   1.942   .     S
O586   Zn619   1.942   .     S
O587   Zn618   1.951   .     S
O587   Zn626   1.951   .     S
O587   Zn630   1.951   .     S
O588   Zn620   1.942   .     S
O589   Zn632   1.941   .     S
O590   Zn618   1.941   .     S
O591   Zn623   1.942   .     S
O592   Zn624   1.942   .     S
O593   Zn621   1.941   .     S
O594   Zn622   1.941   .     S
O595   Zn311   1.941   1_655 S
O596   Zn626   1.941   .     S
O597   Zn1261  1.942   .     S
O598   Zn621   1.951   .     S
O598   Zn627   1.951   .     S
O598   Zn631   1.951   .     S
O599   Zn628   1.942   .     S
O600   Zn631   1.941   .     S
O601   Zn314   1.941   1_655 S
O602   Zn625   1.942   .     S
O603   Zn1249  1.942   .     S
O604   Zn310   1.942   1_655 S
O605   Zn627   1.942   .     S
O606   Zn617   1.941   .     S
O607   Zn1257  1.941   .     S
O608   Zn630   1.942   .     S
O609   C1069   1.278   .     A
O609   Zn624   1.948   .     S
O610   Zn315   1.942   1_655 S
O611   Zn1260  1.941   .     S
O612   Zn629   1.941   .     S
O613   Zn623   1.948   .     S
O614   Zn618   1.948   .     S
O615   C124    1.278   1_655 A
O615   Zn632   1.948   .     S
O616   Zn620   1.948   .     S
Zn617  O1235   1.942   1_545 S
Zn619  O1208   1.951   .     S
Zn622  O271    1.951   1_655 S
Zn624  O1197   1.951   .     S
Zn625  O1239   1.941   1_545 S
Zn628  O1243   1.941   1_545 S
Zn629  O1229   1.942   1_545 S
Zn632  O282    1.951   1_655 S
C633   C710    1.452   .     S
C633   C952    1.413   1_455 S
C633   C711    1.400   .     S
C634   C646    1.413   .     A
C634   C720    1.452   .     S
C634   C100    1.400   1_565 A
C635   C738    1.416   .     A
C635   C38     1.425   1_565 A
C635   C163    1.413   1_565 S
C636   C739    1.416   .     A
C636   C666    1.425   .     A
C636   C949    1.413   .     S
C637   C668    1.425   .     A
C637   C741    1.416   .     A
C637   C1045   1.413   .     S
C638   C742    1.416   .     A
C639   C743    1.416   .     A
C639   C670    1.425   .     S
C640   C744    1.416   .     A
C640   C667    1.413   .     A
C640   C39     1.425   1_565 A
C641   C745    1.416   .     A
C641   C678    1.413   .     A
C641   C672    1.425   .     S
C642   C746    1.416   .     A
C642   C689    1.413   .     A
C642   C673    1.425   .     S
C643   C747    1.416   .     A
C643   C700    1.413   .     A
C643   C990    1.425   .     A
C644   C806    1.413   .     A
C644   C748    1.416   .     A
C644   C671    1.425   .     S
C645   C647    1.413   .     A
C645   C721    1.452   .     S
C645   C1049   1.400   .     S
C646   C749    1.416   .     A
C646   C40     1.425   1_565 A
C647   C750    1.416   .     A
C647   C989    1.425   .     A
C648   C752    1.416   .     A
C648   C656    1.413   .     A
C648   C674    1.425   .     S
C649   C796    1.413   .     A
C649   C798    1.413   .     A
C649   C768    1.461   .     S
C650   C769    1.461   .     S
C650   C797    1.411   .     A
C650   C794    1.411   .     A
C651   C761    1.461   .     S
C651   C793    1.411   .     A
C651   C800    1.411   .     A
C652   C792    1.413   .     A
C652   C799    1.413   .     A
C652   C763    1.461   .     S
C653   C802    1.413   .     A
C653   C791    1.413   .     A
C653   C764    1.461   .     S
C654   C765    1.461   .     S
C654   C790    1.411   .     A
C654   C801    1.411   .     A
C655   C766    1.461   .     S
C655   C789    1.411   .     A
C655   C804    1.411   .     A
C656   C723    1.452   .     S
C656   C734    1.400   .     S
C657   C803    1.413   .     A
C657   C767    1.461   .     S
C657   C788    1.413   .     A
C658   C787    1.413   .     A
C658   C777    1.461   .     S
C658   C807    1.413   .     A
C659   C786    1.411   .     A
C659   C778    1.461   .     S
C659   C805    1.411   .     A
C660   C785    1.411   .     A
C660   C809    1.411   .     A
C660   C770    1.461   .     S
C661   C783    1.413   .     A
C661   C808    1.413   .     A
C661   C771    1.461   .     S
C662   C782    1.413   .     A
C662   C811    1.413   .     A
C662   C772    1.461   .     S
C663   C810    1.411   .     A
C663   C781    1.411   .     A
C663   C774    1.461   .     S
C664   C813    1.411   .     A
C664   C780    1.411   .     A
C664   C775    1.461   .     S
C665   C779    1.413   .     A
C665   C776    1.461   .     S
C665   C812    1.413   .     A
C666   C668    1.417   .     A
C666   C1130   1.425   .     S
C667   C724    1.452   .     S
C667   C99     1.400   1_565 A
C668   C1131   1.425   .     S
C669   C38     1.417   1_565 A
C669   C816    1.425   .     A
C669   C6      1.425   1_565 S
C671   C672    1.417   1_556 S
C672   C671    1.417   1_554 S
C673   C963    1.425   1_455 A
C673   C674    1.417   1_556 S
C674   C959    1.425   1_455 A
C674   C673    1.417   1_554 S
C675   N833    1.157   .     T
C675   C779    1.455   .     S
C676   N844    1.157   .     T
C676   C780    1.453   .     S
C677   N855    1.157   .     T
C677   C781    1.453   .     S
C678   C725    1.452   .     S
C678   C732    1.400   .     S
C679   C782    1.454   .     S
C679   N866    1.157   .     T
C680   C783    1.455   .     S
C680   N876    1.157   .     T
C681   C785    1.453   .     S
C681   N877    1.157   .     T
C682   N878    1.157   .     T
C682   C786    1.453   .     S
C683   N879    1.157   .     T
C683   C787    1.454   .     S
C684   N880    1.157   .     T
C684   C788    1.454   .     S
C685   N834    1.157   .     T
C685   C789    1.453   .     S
C686   N835    1.157   .     T
C686   C790    1.453   .     S
C687   C791    1.455   .     S
C687   N836    1.157   .     T
C688   N837    1.157   .     T
C688   C792    1.454   .     S
C689   C726    1.452   .     S
C689   C733    1.400   .     A
C690   N838    1.157   .     T
C690   C793    1.453   .     S
C691   C794    1.453   .     S
C691   N839    1.157   .     T
C692   C796    1.455   .     S
C692   N840    1.157   .     T
C693   C797    1.453   .     S
C693   N841    1.157   .     T
C694   N842    1.157   .     T
C694   C798    1.455   .     S
C695   C799    1.454   .     S
C695   N843    1.157   .     T
C696   N845    1.157   .     T
C696   C800    1.453   .     S
C697   C801    1.453   .     S
C697   N846    1.157   .     T
C698   N847    1.157   .     T
C698   C802    1.455   .     S
C699   N848    1.157   .     T
C699   C803    1.454   .     S
C700   C727    1.452   .     S
C700   C1050   1.400   .     A
C701   C804    1.453   .     S
C701   N849    1.157   .     T
C702   N850    1.157   .     T
C702   C805    1.453   .     S
C703   N851    1.157   .     T
C703   C807    1.454   .     S
C704   N852    1.157   .     T
C704   C808    1.455   .     S
C705   N853    1.157   .     T
C705   C809    1.453   .     S
C706   C810    1.453   .     S
C706   N854    1.157   .     T
C707   C811    1.454   .     S
C707   N856    1.157   .     T
C708   N857    1.157   .     T
C708   C812    1.455   .     S
C709   C813    1.453   .     S
C709   N858    1.157   .     T
C710   N859    1.158   .     T
C711   C1078   1.400   1_455 A
C711   C755    1.457   .     S
C712   C729    1.452   .     S
C712   N860    1.158   .     T
C713   C740    1.452   .     S
C713   N861    1.158   .     T
C714   N862    1.158   .     T
C714   C751    1.452   .     S
C715   N863    1.158   .     T
C715   C762    1.452   .     S
C716   N864    1.158   .     T
C716   C773    1.452   .     S
C717   N865    1.158   .     T
C717   C784    1.452   .     S
C718   C795    1.452   .     S
C718   N867    1.158   .     T
C719   C806    1.452   .     S
C719   N868    1.158   .     T
C720   N869    1.158   .     T
C721   N870    1.158   .     T
C722   C1089   1.400   1_455 A
C722   C756    1.457   .     S
C722   C729    1.400   .     S
C723   N871    1.158   .     T
C724   N872    1.158   .     T
C725   N873    1.158   .     T
C726   N874    1.158   .     T
C727   N875    1.158   .     T
C728   C753    1.457   .     S
C728   C784    1.400   .     S
C729   C953    1.413   1_455 S
C730   C754    1.457   .     S
C730   C795    1.400   .     S
C731   C759    1.457   .     S
C731   C806    1.400   .     S
C732   C760    1.457   .     S
C733   C757    1.457   .     S
C733   C961    1.400   1_455 S
C734   C1016   1.400   1_455 A
C734   C758    1.457   .     S
C735   I817    2.152   .     S
C735   C814    1.416   .     A
C735   C1057   1.394   1_455 S
C736   I825    2.152   .     S
C736   C815    1.416   .     A
C736   C1055   1.394   1_455 S
C737   C816    1.416   .     A
C737   I826    2.152   .     S
C737   C111    1.394   1_565 S
C738   I827    2.152   .     S
C738   C110    1.394   1_565 S
C739   I828    2.152   .     S
C739   C1052   1.394   .     S
C740   C96     1.400   1_565 A
C740   C6      1.413   1_565 S
C741   I829    2.152   .     S
C741   C1051   1.394   .     S
C742   I830    2.152   .     S
C743   I831    2.152   .     S
C744   I832    2.152   .     S
C744   C749    1.394   1_556 S
C745   I818    2.152   .     S
C745   C748    1.394   1_554 S
C746   I819    2.152   .     S
C746   C752    1.394   1_556 S
C747   I820    2.152   .     S
C747   C750    1.394   1_554 S
C748   I821    2.152   .     S
C748   C745    1.394   1_556 S
C749   I822    2.152   .     S
C749   C744    1.394   1_554 S
C750   I823    2.152   .     S
C750   C747    1.394   1_556 S
C751   C98     1.400   1_565 A
C751   C7      1.413   1_565 S
C752   I824    2.152   .     S
C752   C746    1.394   1_554 S
C753   O932    1.278   .     S
C754   O929    1.278   .     S
C755   O1199   1.278   1_455 A
C755   O930    1.278   .     S
C756   O1247   1.278   1_455 A
C756   O884    1.278   .     S
C757   O889    1.278   .     A
C757   O885    1.278   .     S
C758   O886    1.278   .     A
C758   O890    1.278   .     S
C759   O887    1.278   .     S
C759   O891    1.278   .     S
C760   O888    1.278   .     S
C760   O893    1.278   .     S
C761   O894    1.281   .     A
C761   O922    1.281   .     A
C762   C1027   1.400   .     A
C762   C1130   1.413   .     S
C763   O923    1.281   .     A
C763   O895    1.281   .     A
C764   O896    1.281   .     A
C764   O920    1.281   .     A
C765   O921    1.281   .     A
C765   O897    1.281   .     A
C766   O898    1.281   .     A
C766   O927    1.281   .     A
C767   O899    1.281   .     A
C767   O928    1.281   .     A
C768   O900    1.281   .     A
C768   O924    1.281   .     A
C769   O901    1.281   .     A
C769   O926    1.281   .     A
C770   O902    1.281   .     A
C770   O913    1.281   .     A
C771   O904    1.281   .     A
C771   O915    1.281   .     A
C772   O905    1.281   .     A
C772   O911    1.281   .     A
C773   C1038   1.400   .     A
C773   C1131   1.413   .     S
C774   O912    1.281   .     A
C774   O906    1.281   .     A
C775   O918    1.281   .     A
C775   O907    1.281   .     A
C776   O919    1.281   .     A
C776   O908    1.281   .     A
C777   O909    1.281   .     A
C777   O916    1.281   .     A
C778   O917    1.281   .     A
C778   O910    1.281   .     A
C779   C796    1.397   .     A
C780   C794    1.402   .     A
C781   C793    1.402   .     A
C782   C792    1.397   .     A
C783   C791    1.397   .     A
C785   C790    1.402   .     A
C786   C789    1.402   .     A
C787   C788    1.397   .     A
C797   C813    1.402   .     A
C798   C812    1.397   .     A
C799   C811    1.397   .     A
C800   C810    1.402   .     A
C801   C809    1.402   .     A
C802   C808    1.397   .     A
C803   C807    1.397   .     A
C804   C805    1.402   .     A
C814   C982    1.425   1_455 S
C814   C1078   1.413   1_455 S
C815   C1089   1.413   1_455 S
C815   C984    1.425   1_455 S
C816   C152    1.413   1_565 S
O881   Zn933   1.951   .     S
O881   Zn944   1.951   .     S
O881   Zn936   1.951   .     S
O882   C122    1.278   1_565 A
O882   Zn935   1.948   .     S
O883   C1071   1.278   .     A
O883   Zn938   1.948   .     S
O884   Zn937   1.948   .     S
O885   Zn947   1.948   .     S
O886   Zn946   1.948   .     S
O887   Zn941   1.948   .     S
O888   Zn933   1.948   .     S
O889   Zn943   1.948   .     S
O890   Zn942   1.948   .     S
O891   Zn945   1.948   .     S
O892   Zn945   1.951   .     S
O892   Zn939   1.951   .     S
O892   Zn941   1.951   .     S
O893   Zn944   1.948   .     S
O894   Zn936   1.941   .     S
O895   Zn935   1.941   .     S
O896   Zn938   1.942   .     S
O897   Zn937   1.942   .     S
O898   Zn940   1.941   .     S
O899   Zn939   1.941   .     S
O900   Zn934   1.942   .     S
O901   Zn948   1.942   .     S
O902   Zn935   1.942   .     S
O903   Zn1254  1.951   1_455 S
O903   Zn934   1.951   .     S
O903   Zn942   1.951   .     S
O903   Zn946   1.951   .     S
O904   Zn936   1.942   .     S
O905   Zn948   1.941   .     S
O906   Zn934   1.941   .     S
O907   Zn939   1.942   .     S
O908   Zn940   1.942   .     S
O909   Zn937   1.941   .     S
O910   Zn938   1.941   .     S
O911   Zn1259  1.941   .     S
O912   Zn942   1.941   .     S
O913   Zn313   1.942   1_565 S
O914   Zn937   1.951   .     S
O914   Zn943   1.951   .     S
O914   Zn947   1.951   .     S
O914   Zn1264  1.951   1_455 S
O915   Zn944   1.942   .     S
O916   Zn947   1.941   .     S
O917   Zn1262  1.941   .     S
O918   Zn941   1.942   .     S
O919   Zn301   1.942   1_565 S
O920   Zn1258  1.942   .     S
O921   Zn943   1.942   .     S
O922   Zn933   1.941   .     S
O923   Zn309   1.941   1_565 S
O924   Zn946   1.942   .     S
O925   C121    1.278   1_565 A
O925   Zn940   1.948   .     S
O926   Zn1263  1.942   .     S
O927   Zn312   1.941   1_565 S
O928   Zn945   1.941   .     S
O929   Zn939   1.948   .     S
O930   Zn934   1.948   .     S
O931   C1072   1.278   .     A
O931   Zn948   1.948   .     S
O932   Zn936   1.948   .     S
Zn935  O260    1.951   1_565 S
Zn938  O1219   1.951   .     S
Zn940  O249    1.951   1_565 S
Zn942  O1236   1.942   1_455 S
Zn943  O1227   1.941   1_455 S
Zn946  O1233   1.941   1_455 S
Zn947  O1242   1.942   1_455 S
Zn948  O1230   1.951   .     S
C949   C1026   1.452   .     S
C949   C1027   1.400   .     S
C950   C962    1.413   .     A
C950   C1036   1.452   .     S
C950   C416    1.400   1_565 A
C951   C1054   1.416   .     A
C951   C354    1.425   1_565 A
C951   C479    1.413   1_565 S
C952   C1055   1.416   .     A
C952   C982    1.425   .     A
C952   C633    1.413   1_655 S
C953   C984    1.425   .     A
C953   C1057   1.416   .     A
C953   C729    1.413   1_655 S
C954   C1058   1.416   .     A
C955   C1059   1.416   .     A
C955   C986    1.425   .     S
C956   C1060   1.416   .     A
C956   C983    1.413   .     A
C956   C355    1.425   1_565 A
C957   C1061   1.416   .     A
C957   C994    1.413   .     A
C957   C988    1.425   .     S
C958   C1062   1.416   .     A
C958   C1005   1.413   .     A
C958   C989    1.425   .     S
C959   C1063   1.416   .     A
C959   C1016   1.413   .     A
C959   C674    1.425   1_655 A
C960   C1122   1.413   .     A
C960   C1064   1.416   .     A
C960   C987    1.425   .     S
C961   C963    1.413   .     A
C961   C1037   1.452   .     S
C961   C733    1.400   1_655 S
C962   C1065   1.416   .     A
C962   C356    1.425   1_565 A
C963   C1066   1.416   .     A
C963   C673    1.425   1_655 A
C964   C1068   1.416   .     A
C964   C972    1.413   .     A
C964   C990    1.425   .     S
C965   C1112   1.413   .     A
C965   C1114   1.413   .     A
C965   C1084   1.461   .     S
C966   C1085   1.461   .     S
C966   C1113   1.411   .     A
C966   C1110   1.411   .     A
C967   C1077   1.461   .     S
C967   C1109   1.411   .     A
C967   C1116   1.411   .     A
C968   C1108   1.413   .     A
C968   C1115   1.413   .     A
C968   C1079   1.461   .     S
C969   C1118   1.413   .     A
C969   C1107   1.413   .     A
C969   C1080   1.461   .     S
C970   C1081   1.461   .     S
C970   C1106   1.411   .     A
C970   C1117   1.411   .     A
C971   C1082   1.461   .     S
C971   C1105   1.411   .     A
C971   C1120   1.411   .     A
C972   C1039   1.452   .     S
C972   C1050   1.400   .     S
C973   C1119   1.413   .     A
C973   C1083   1.461   .     S
C973   C1104   1.413   .     A
C974   C1103   1.413   .     A
C974   C1093   1.461   .     S
C974   C1123   1.413   .     A
C975   C1102   1.411   .     A
C975   C1094   1.461   .     S
C975   C1121   1.411   .     A
C976   C1101   1.411   .     A
C976   C1125   1.411   .     A
C976   C1086   1.461   .     S
C977   C1099   1.413   .     A
C977   C1124   1.413   .     A
C977   C1087   1.461   .     S
C978   C1098   1.413   .     A
C978   C1127   1.413   .     A
C978   C1088   1.461   .     S
C979   C1126   1.411   .     A
C979   C1097   1.411   .     A
C979   C1090   1.461   .     S
C980   C1129   1.411   .     A
C980   C1096   1.411   .     A
C980   C1091   1.461   .     S
C981   C1095   1.413   .     A
C981   C1092   1.461   .     S
C981   C1128   1.413   .     A
C982   C984    1.417   .     A
C982   C814    1.425   1_655 S
C983   C1040   1.452   .     S
C983   C415    1.400   1_565 A
C984   C815    1.425   1_655 S
C985   C354    1.417   1_565 A
C985   C1132   1.425   .     A
C985   C322    1.425   1_565 S
C987   C988    1.417   1_556 S
C988   C987    1.417   1_554 S
C989   C990    1.417   1_556 S
C990   C989    1.417   1_554 S
C991   N1149   1.157   .     T
C991   C1095   1.455   .     S
C992   N1160   1.157   .     T
C992   C1096   1.453   .     S
C993   N1171   1.157   .     T
C993   C1097   1.453   .     S
C994   C1041   1.452   .     S
C994   C1048   1.400   .     S
C995   C1098   1.454   .     S
C995   N1182   1.157   .     T
C996   C1099   1.455   .     S
C996   N1192   1.157   .     T
C997   C1101   1.453   .     S
C997   N1193   1.157   .     T
C998   N1194   1.157   .     T
C998   C1102   1.453   .     S
C999   N1195   1.157   .     T
C999   C1103   1.454   .     S
C1000  N1196   1.157   .     T
C1000  C1104   1.454   .     S
C1001  N1150   1.157   .     T
C1001  C1105   1.453   .     S
C1002  N1151   1.157   .     T
C1002  C1106   1.453   .     S
C1003  C1107   1.455   .     S
C1003  N1152   1.157   .     T
C1004  N1153   1.157   .     T
C1004  C1108   1.454   .     S
C1005  C1042   1.452   .     S
C1005  C1049   1.400   .     A
C1006  N1154   1.157   .     T
C1006  C1109   1.453   .     S
C1007  C1110   1.453   .     S
C1007  N1155   1.157   .     T
C1008  C1112   1.455   .     S
C1008  N1156   1.157   .     T
C1009  C1113   1.453   .     S
C1009  N1157   1.157   .     T
C1010  N1158   1.157   .     T
C1010  C1114   1.455   .     S
C1011  C1115   1.454   .     S
C1011  N1159   1.157   .     T
C1012  N1161   1.157   .     T
C1012  C1116   1.453   .     S
C1013  C1117   1.453   .     S
C1013  N1162   1.157   .     T
C1014  N1163   1.157   .     T
C1014  C1118   1.455   .     S
C1015  N1164   1.157   .     T
C1015  C1119   1.454   .     S
C1016  C1043   1.452   .     S
C1016  C734    1.400   1_655 A
C1017  C1120   1.453   .     S
C1017  N1165   1.157   .     T
C1018  N1166   1.157   .     T
C1018  C1121   1.453   .     S
C1019  N1167   1.157   .     T
C1019  C1123   1.454   .     S
C1020  N1168   1.157   .     T
C1020  C1124   1.455   .     S
C1021  N1169   1.157   .     T
C1021  C1125   1.453   .     S
C1022  C1126   1.453   .     S
C1022  N1170   1.157   .     T
C1023  C1127   1.454   .     S
C1023  N1172   1.157   .     T
C1024  N1173   1.157   .     T
C1024  C1128   1.455   .     S
C1025  C1129   1.453   .     S
C1025  N1174   1.157   .     T
C1026  N1175   1.158   .     T
C1027  C1071   1.457   .     S
C1028  C1045   1.452   .     S
C1028  N1176   1.158   .     T
C1029  C1056   1.452   .     S
C1029  N1177   1.158   .     T
C1030  N1178   1.158   .     T
C1030  C1067   1.452   .     S
C1031  N1179   1.158   .     T
C1031  C1078   1.452   .     S
C1032  N1180   1.158   .     T
C1032  C1089   1.452   .     S
C1033  N1181   1.158   .     T
C1033  C1100   1.452   .     S
C1034  C1111   1.452   .     S
C1034  N1183   1.158   .     T
C1035  C1122   1.452   .     S
C1035  N1184   1.158   .     T
C1036  N1185   1.158   .     T
C1037  N1186   1.158   .     T
C1038  C1072   1.457   .     S
C1038  C1045   1.400   .     S
C1039  N1187   1.158   .     T
C1040  N1188   1.158   .     T
C1041  N1189   1.158   .     T
C1042  N1190   1.158   .     T
C1043  N1191   1.158   .     T
C1044  C1069   1.457   .     S
C1044  C1100   1.400   .     S
C1046  C1070   1.457   .     S
C1046  C1111   1.400   .     S
C1047  C1075   1.457   .     S
C1047  C1122   1.400   .     S
C1048  C1076   1.457   .     S
C1049  C1073   1.457   .     S
C1050  C1074   1.457   .     S
C1051  I1133   2.152   .     S
C1051  C1130   1.416   .     A
C1052  I1141   2.152   .     S
C1052  C1131   1.416   .     A
C1053  C1132   1.416   .     A
C1053  I1142   2.152   .     S
C1053  C427    1.394   1_565 S
C1054  I1143   2.152   .     S
C1054  C426    1.394   1_565 S
C1055  I1144   2.152   .     S
C1055  C736    1.394   1_655 S
C1056  C412    1.400   1_565 A
C1056  C322    1.413   1_565 S
C1057  I1145   2.152   .     S
C1057  C735    1.394   1_655 S
C1058  I1146   2.152   .     S
C1059  I1147   2.152   .     S
C1060  I1148   2.152   .     S
C1060  C1065   1.394   1_556 S
C1061  I1134   2.152   .     S
C1061  C1064   1.394   1_554 S
C1062  I1135   2.152   .     S
C1062  C1068   1.394   1_556 S
C1063  I1136   2.152   .     S
C1063  C1066   1.394   1_554 S
C1064  I1137   2.152   .     S
C1064  C1061   1.394   1_556 S
C1065  I1138   2.152   .     S
C1065  C1060   1.394   1_554 S
C1066  I1139   2.152   .     S
C1066  C1063   1.394   1_556 S
C1067  C414    1.400   1_565 A
C1067  C323    1.413   1_565 S
C1068  I1140   2.152   .     S
C1068  C1062   1.394   1_554 S
C1069  O1248   1.278   .     S
C1070  O1245   1.278   .     S
C1071  O1246   1.278   .     S
C1072  O1200   1.278   .     S
C1073  O1205   1.278   .     A
C1073  O1201   1.278   .     S
C1074  O1202   1.278   .     A
C1074  O1206   1.278   .     S
C1075  O1203   1.278   .     S
C1075  O1207   1.278   .     S
C1076  O1204   1.278   .     S
C1076  O1209   1.278   .     S
C1077  O1210   1.281   .     A
C1077  O1238   1.281   .     A
C1078  C711    1.400   1_655 A
C1078  C814    1.413   1_655 S
C1079  O1239   1.281   .     A
C1079  O1211   1.281   .     A
C1080  O1212   1.281   .     A
C1080  O1236   1.281   .     A
C1081  O1237   1.281   .     A
C1081  O1213   1.281   .     A
C1082  O1214   1.281   .     A
C1082  O1243   1.281   .     A
C1083  O1215   1.281   .     A
C1083  O1244   1.281   .     A
C1084  O1216   1.281   .     A
C1084  O1240   1.281   .     A
C1085  O1217   1.281   .     A
C1085  O1242   1.281   .     A
C1086  O1218   1.281   .     A
C1086  O1229   1.281   .     A
C1087  O1220   1.281   .     A
C1087  O1231   1.281   .     A
C1088  O1221   1.281   .     A
C1088  O1227   1.281   .     A
C1089  C722    1.400   1_655 A
C1089  C815    1.413   1_655 S
C1090  O1228   1.281   .     A
C1090  O1222   1.281   .     A
C1091  O1234   1.281   .     A
C1091  O1223   1.281   .     A
C1092  O1235   1.281   .     A
C1092  O1224   1.281   .     A
C1093  O1225   1.281   .     A
C1093  O1232   1.281   .     A
C1094  O1233   1.281   .     A
C1094  O1226   1.281   .     A
C1095  C1112   1.397   .     A
C1096  C1110   1.402   .     A
C1097  C1109   1.402   .     A
C1098  C1108   1.397   .     A
C1099  C1107   1.397   .     A
C1101  C1106   1.402   .     A
C1102  C1105   1.402   .     A
C1103  C1104   1.397   .     A
C1113  C1129   1.402   .     A
C1114  C1128   1.397   .     A
C1115  C1127   1.397   .     A
C1116  C1126   1.402   .     A
C1117  C1125   1.402   .     A
C1118  C1124   1.397   .     A
C1119  C1123   1.397   .     A
C1120  C1121   1.402   .     A
C1132  C468    1.413   1_565 S
O1197  Zn1249  1.951   .     S
O1197  Zn1260  1.951   .     S
O1197  Zn1252  1.951   .     S
O1198  C438    1.278   1_565 A
O1198  Zn1251  1.948   .     S
O1199  C755    1.278   1_655 A
O1199  Zn1254  1.948   .     S
O1200  Zn1253  1.948   .     S
O1201  Zn1263  1.948   .     S
O1202  Zn1262  1.948   .     S
O1203  Zn1257  1.948   .     S
O1204  Zn1249  1.948   .     S
O1205  Zn1259  1.948   .     S
O1206  Zn1258  1.948   .     S
O1207  Zn1261  1.948   .     S
O1208  Zn1261  1.951   .     S
O1208  Zn1255  1.951   .     S
O1208  Zn1257  1.951   .     S
O1209  Zn1260  1.948   .     S
O1210  Zn1252  1.941   .     S
O1211  Zn1251  1.941   .     S
O1212  Zn1254  1.942   .     S
O1213  Zn1253  1.942   .     S
O1214  Zn1256  1.941   .     S
O1215  Zn1255  1.941   .     S
O1216  Zn1250  1.942   .     S
O1217  Zn1264  1.942   .     S
O1218  Zn1251  1.942   .     S
O1219  Zn1250  1.951   .     S
O1219  Zn1258  1.951   .     S
O1219  Zn1262  1.951   .     S
O1220  Zn1252  1.942   .     S
O1221  Zn1264  1.941   .     S
O1222  Zn1250  1.941   .     S
O1223  Zn1255  1.942   .     S
O1224  Zn1256  1.942   .     S
O1225  Zn1253  1.941   .     S
O1226  Zn1254  1.941   .     S
O1227  Zn943   1.941   1_655 S
O1228  Zn1258  1.941   .     S
O1229  Zn629   1.942   1_565 S
O1230  Zn1253  1.951   .     S
O1230  Zn1259  1.951   .     S
O1230  Zn1263  1.951   .     S
O1231  Zn1260  1.942   .     S
O1232  Zn1263  1.941   .     S
O1233  Zn946   1.941   1_655 S
O1234  Zn1257  1.942   .     S
O1235  Zn617   1.942   1_565 S
O1236  Zn942   1.942   1_655 S
O1237  Zn1259  1.942   .     S
O1238  Zn1249  1.941   .     S
O1239  Zn625   1.941   1_565 S
O1240  Zn1262  1.942   .     S
O1241  C437    1.278   1_565 A
O1241  Zn1256  1.948   .     S
O1242  Zn947   1.942   1_655 S
O1243  Zn628   1.941   1_565 S
O1244  Zn1261  1.941   .     S
O1245  Zn1255  1.948   .     S
O1246  Zn1250  1.948   .     S
O1247  C756    1.278   1_655 A
O1247  Zn1264  1.948   .     S
O1248  Zn1252  1.948   .     S
Zn1251 O576    1.951   1_565 S
Zn1254 O903    1.951   1_655 S
Zn1256 O565    1.951   1_565 S
Zn1264 O914    1.951   1_655 S
