data_str_m2_o1_o18_pcu_sym.103
_audit_creation_date              2020-01-03
_audit_creation_method            'Materials Studio'
_symmetry_space_group_name_H-M    'P1'
_symmetry_Int_Tables_number       1
_symmetry_cell_setting            triclinic
loop_
_symmetry_equiv_pos_as_xyz
  x,y,z
_cell_length_a                    28.5640
_cell_length_b                    32.4969
_cell_length_c                    30.9989
_cell_angle_alpha                 89.7915
_cell_angle_beta                  73.9287
_cell_angle_gamma                 90.0074
loop_
_atom_site_label
_atom_site_type_symbol
_atom_site_fract_x
_atom_site_fract_y
_atom_site_fract_z
_atom_site_U_iso_or_equiv
_atom_site_adp_type
_atom_site_occupancy
C1     C     0.33331   0.08736   0.25003   0.00000  Uiso   1.00
C2     C     0.00002   0.24597   0.24998   0.00000  Uiso   1.00
C3     C     0.19476   0.17637   0.04662   0.00000  Uiso   1.00
C4     C     0.13993   0.14806   0.45371   0.00000  Uiso   1.00
C5     C     0.23695   0.19794   0.02250   0.00000  Uiso   1.00
C6     C     0.09493   0.13088   0.47838   0.00000  Uiso   1.00
C7     C     0.29073   0.02128   0.25017   0.00000  Uiso   1.00
C8     C     0.04259   0.31206   0.24987   0.00000  Uiso   1.00
C9     C     0.29075   0.31204   0.25013   0.00000  Uiso   1.00
C10    C     0.04257   0.02130   0.24990   0.00000  Uiso   1.00
C11    C     0.00001   0.29059   0.24999   0.00000  Uiso   1.00
C12    C     0.33331   0.04274   0.25004   0.00000  Uiso   1.00
C13    C     0.18470   0.13693   0.27248   0.00000  Uiso   1.00
C14    C     0.14881   0.19608   0.22697   0.00000  Uiso   1.00
C15    C     0.13505   0.13705   0.27267   0.00000  Uiso   1.00
C16    C     0.19838   0.19610   0.22703   0.00000  Uiso   1.00
C17    C     0.30590   0.16757   0.33598   0.00000  Uiso   1.00
C18    C     0.02744   0.16566   0.16401   0.00000  Uiso   1.00
C19    C     0.29031   0.17422   0.38442   0.00000  Uiso   1.00
C20    C     0.04295   0.15832   0.11566   0.00000  Uiso   1.00
C21    C     0.29572   0.21271   0.44926   0.00000  Uiso   1.00
C22    C     0.03317   0.12226   0.05089   0.00000  Uiso   1.00
C23    C     0.31389   0.20341   0.40392   0.00000  Uiso   1.00
C24    C     0.01547   0.13292   0.09584   0.00000  Uiso   1.00
C25    C     0.24734   0.15586   0.40993   0.00000  Uiso   1.00
C26    C     0.08870   0.17216   0.09060   0.00000  Uiso   1.00
C27    C     0.22429   0.17007   0.45354   0.00000  Uiso   1.00
C28    C     0.11012   0.15681   0.04707   0.00000  Uiso   1.00
C29    C     0.25213   0.19443   0.47529   0.00000  Uiso   1.00
C30    C     0.07990   0.13526   0.02541   0.00000  Uiso   1.00
C31    C     0.17498   0.16026   0.47647   0.00000  Uiso   1.00
C32    C     0.15978   0.16452   0.02386   0.00000  Uiso   1.00
Cu33   Cu    0.04689   0.16667   0.25000   0.00000  Uiso   1.00
Cu34   Cu    0.28645   0.16666   0.25000   0.00000  Uiso   1.00
H35    H     0.31348   0.12155   0.11501   0.00000  Uiso   1.00
H36    H     0.01318   0.21876   0.38416   0.00000  Uiso   1.00
H37    H     0.31600   0.23438   0.46347   0.00000  Uiso   1.00
H38    H     0.00939   0.10457   0.03626   0.00000  Uiso   1.00
H39    H     0.25743   0.03728   0.25030   0.00000  Uiso   1.00
H40    H     0.07590   0.29606   0.24974   0.00000  Uiso   1.00
H41    H     0.25746   0.29602   0.25022   0.00000  Uiso   1.00
H42    H     0.07586   0.03732   0.24981   0.00000  Uiso   1.00
H43    H     0.19796   0.11309   0.29049   0.00000  Uiso   1.00
H44    H     0.13577   0.21957   0.20835   0.00000  Uiso   1.00
H45    H     0.11089   0.11341   0.29103   0.00000  Uiso   1.00
H46    H     0.22261   0.21962   0.20849   0.00000  Uiso   1.00
N47    N     0.11736   0.16668   0.24999   0.00000  Uiso   1.00
N48    N     0.21597   0.16666   0.25001   0.00000  Uiso   1.00
O49    O     0.03958   0.10655   0.25000   0.00000  Uiso   1.00
O50    O     0.29375   0.22678   0.25000   0.00000  Uiso   1.00
O51    O     0.29372   0.10654   0.25001   0.00000  Uiso   1.00
O52    O     0.03961   0.22679   0.25000   0.00000  Uiso   1.00
O53    O     0.01852   0.16668   0.31491   0.00000  Uiso   1.00
O54    O     0.31481   0.16666   0.18509   0.00000  Uiso   1.00
O55    O     0.27267   0.16667   0.31492   0.00000  Uiso   1.00
O56    O     0.06067   0.16667   0.18508   0.00000  Uiso   1.00
C57    C     0.26613   0.22179   0.04688   0.00000  Uiso   1.00
O58    O     0.24670   0.24955   0.07190   0.00000  Uiso   1.00
O59    O     0.31514   0.21294   0.04225   0.00000  Uiso   1.00
H60    H     0.32723   0.18871   0.02181   0.00000  Uiso   1.00
C61    C     0.06097   0.11293   0.45487   0.00000  Uiso   1.00
O62    O     0.04232   0.13486   0.43212   0.00000  Uiso   1.00
O63    O     0.05014   0.07093   0.45932   0.00000  Uiso   1.00
H64    H     0.02645   0.06229   0.44199   0.00000  Uiso   1.00
F65    F     0.11042   0.20275   0.10793   0.00000  Uiso   1.00
F66    F     0.23069   0.12199   0.39324   0.00000  Uiso   1.00
C67    C     0.19207   0.15883   0.09208   0.00000  Uiso   1.00
O68    O     0.21048   0.17666   0.11798   0.00000  Uiso   1.00
O69    O     0.16878   0.12104   0.10483   0.00000  Uiso   1.00
H70    H     0.16889   0.11234   0.13625   0.00000  Uiso   1.00
C71    C     0.14609   0.15939   0.40579   0.00000  Uiso   1.00
O72    O     0.15502   0.19505   0.39375   0.00000  Uiso   1.00
O73    O     0.14196   0.13010   0.37415   0.00000  Uiso   1.00
H74    H     0.13972   0.10089   0.38608   0.00000  Uiso   1.00
C75    C     0.66664   0.08736   0.25003   0.00000  Uiso   1.00
C76    C     0.33335   0.24597   0.24998   0.00000  Uiso   1.00
C77    C     0.52809   0.17637   0.04662   0.00000  Uiso   1.00
C78    C     0.47327   0.14806   0.45371   0.00000  Uiso   1.00
C79    C     0.57029   0.19794   0.02250   0.00000  Uiso   1.00
C80    C     0.42826   0.13088   0.47838   0.00000  Uiso   1.00
C81    C     0.62406   0.02128   0.25017   0.00000  Uiso   1.00
C82    C     0.37592   0.31206   0.24987   0.00000  Uiso   1.00
C83    C     0.62408   0.31204   0.25013   0.00000  Uiso   1.00
C84    C     0.37591   0.02130   0.24990   0.00000  Uiso   1.00
C85    C     0.33335   0.29059   0.24999   0.00000  Uiso   1.00
C86    C     0.66665   0.04274   0.25004   0.00000  Uiso   1.00
C87    C     0.51803   0.13693   0.27248   0.00000  Uiso   1.00
C88    C     0.48214   0.19608   0.22697   0.00000  Uiso   1.00
C89    C     0.46838   0.13705   0.27267   0.00000  Uiso   1.00
C90    C     0.53171   0.19610   0.22703   0.00000  Uiso   1.00
C91    C     0.63923   0.16757   0.33598   0.00000  Uiso   1.00
C92    C     0.36077   0.16566   0.16401   0.00000  Uiso   1.00
C93    C     0.62364   0.17422   0.38442   0.00000  Uiso   1.00
C94    C     0.37628   0.15832   0.11566   0.00000  Uiso   1.00
C95    C     0.62905   0.21271   0.44926   0.00000  Uiso   1.00
C96    C     0.36650   0.12226   0.05089   0.00000  Uiso   1.00
C97    C     0.64722   0.20341   0.40392   0.00000  Uiso   1.00
C98    C     0.34880   0.13292   0.09584   0.00000  Uiso   1.00
C99    C     0.58067   0.15586   0.40993   0.00000  Uiso   1.00
C100   C     0.42203   0.17216   0.09060   0.00000  Uiso   1.00
C101   C     0.55762   0.17007   0.45354   0.00000  Uiso   1.00
C102   C     0.44346   0.15681   0.04707   0.00000  Uiso   1.00
C103   C     0.58546   0.19443   0.47529   0.00000  Uiso   1.00
C104   C     0.41324   0.13526   0.02541   0.00000  Uiso   1.00
C105   C     0.50831   0.16026   0.47647   0.00000  Uiso   1.00
C106   C     0.49311   0.16452   0.02386   0.00000  Uiso   1.00
Cu107  Cu    0.38022   0.16667   0.25000   0.00000  Uiso   1.00
Cu108  Cu    0.61978   0.16666   0.25000   0.00000  Uiso   1.00
H109   H     0.64681   0.12155   0.11501   0.00000  Uiso   1.00
H110   H     0.34651   0.21876   0.38416   0.00000  Uiso   1.00
H111   H     0.64934   0.23438   0.46347   0.00000  Uiso   1.00
H112   H     0.34272   0.10457   0.03626   0.00000  Uiso   1.00
H113   H     0.59076   0.03728   0.25030   0.00000  Uiso   1.00
H114   H     0.40923   0.29606   0.24974   0.00000  Uiso   1.00
H115   H     0.59080   0.29602   0.25022   0.00000  Uiso   1.00
H116   H     0.40920   0.03732   0.24981   0.00000  Uiso   1.00
H117   H     0.53129   0.11309   0.29049   0.00000  Uiso   1.00
H118   H     0.46911   0.21957   0.20835   0.00000  Uiso   1.00
H119   H     0.44422   0.11341   0.29103   0.00000  Uiso   1.00
H120   H     0.55594   0.21962   0.20849   0.00000  Uiso   1.00
N121   N     0.45069   0.16668   0.24999   0.00000  Uiso   1.00
N122   N     0.54931   0.16666   0.25001   0.00000  Uiso   1.00
O123   O     0.37291   0.10655   0.25000   0.00000  Uiso   1.00
O124   O     0.62709   0.22678   0.25000   0.00000  Uiso   1.00
O125   O     0.62706   0.10654   0.25001   0.00000  Uiso   1.00
O126   O     0.37294   0.22679   0.25000   0.00000  Uiso   1.00
O127   O     0.35186   0.16668   0.31491   0.00000  Uiso   1.00
O128   O     0.64814   0.16666   0.18509   0.00000  Uiso   1.00
O129   O     0.60600   0.16667   0.31492   0.00000  Uiso   1.00
O130   O     0.39400   0.16667   0.18508   0.00000  Uiso   1.00
C131   C     0.59947   0.22179   0.04688   0.00000  Uiso   1.00
O132   O     0.58003   0.24955   0.07190   0.00000  Uiso   1.00
O133   O     0.64848   0.21294   0.04225   0.00000  Uiso   1.00
H134   H     0.66056   0.18871   0.02181   0.00000  Uiso   1.00
C135   C     0.39431   0.11293   0.45487   0.00000  Uiso   1.00
O136   O     0.37566   0.13486   0.43212   0.00000  Uiso   1.00
O137   O     0.38348   0.07093   0.45932   0.00000  Uiso   1.00
H138   H     0.35978   0.06229   0.44199   0.00000  Uiso   1.00
F139   F     0.44375   0.20275   0.10793   0.00000  Uiso   1.00
F140   F     0.56402   0.12199   0.39324   0.00000  Uiso   1.00
C141   C     0.52541   0.15883   0.09208   0.00000  Uiso   1.00
O142   O     0.54382   0.17666   0.11798   0.00000  Uiso   1.00
O143   O     0.50211   0.12104   0.10483   0.00000  Uiso   1.00
H144   H     0.50222   0.11234   0.13625   0.00000  Uiso   1.00
C145   C     0.47942   0.15939   0.40579   0.00000  Uiso   1.00
O146   O     0.48835   0.19505   0.39375   0.00000  Uiso   1.00
O147   O     0.47530   0.13010   0.37415   0.00000  Uiso   1.00
H148   H     0.47306   0.10089   0.38608   0.00000  Uiso   1.00
C149   C     0.99998   0.08736   0.25003   0.00000  Uiso   1.00
C150   C     0.66669   0.24597   0.24998   0.00000  Uiso   1.00
C151   C     0.86143   0.17637   0.04662   0.00000  Uiso   1.00
C152   C     0.80660   0.14806   0.45371   0.00000  Uiso   1.00
C153   C     0.90362   0.19794   0.02250   0.00000  Uiso   1.00
C154   C     0.76160   0.13088   0.47838   0.00000  Uiso   1.00
C155   C     0.95740   0.02128   0.25017   0.00000  Uiso   1.00
C156   C     0.70926   0.31206   0.24987   0.00000  Uiso   1.00
C157   C     0.95742   0.31204   0.25013   0.00000  Uiso   1.00
C158   C     0.70924   0.02130   0.24990   0.00000  Uiso   1.00
C159   C     0.66668   0.29059   0.24999   0.00000  Uiso   1.00
C160   C     0.99998   0.04274   0.25004   0.00000  Uiso   1.00
C161   C     0.85136   0.13693   0.27248   0.00000  Uiso   1.00
C162   C     0.81548   0.19608   0.22697   0.00000  Uiso   1.00
C163   C     0.80172   0.13705   0.27267   0.00000  Uiso   1.00
C164   C     0.86505   0.19610   0.22703   0.00000  Uiso   1.00
C165   C     0.97256   0.16757   0.33598   0.00000  Uiso   1.00
C166   C     0.69411   0.16566   0.16401   0.00000  Uiso   1.00
C167   C     0.95698   0.17422   0.38442   0.00000  Uiso   1.00
C168   C     0.70962   0.15832   0.11566   0.00000  Uiso   1.00
C169   C     0.96239   0.21271   0.44926   0.00000  Uiso   1.00
C170   C     0.69983   0.12226   0.05089   0.00000  Uiso   1.00
C171   C     0.98055   0.20341   0.40392   0.00000  Uiso   1.00
C172   C     0.68213   0.13292   0.09584   0.00000  Uiso   1.00
C173   C     0.91401   0.15586   0.40993   0.00000  Uiso   1.00
C174   C     0.75536   0.17216   0.09060   0.00000  Uiso   1.00
C175   C     0.89096   0.17007   0.45354   0.00000  Uiso   1.00
C176   C     0.77679   0.15681   0.04707   0.00000  Uiso   1.00
C177   C     0.91879   0.19443   0.47529   0.00000  Uiso   1.00
C178   C     0.74657   0.13526   0.02541   0.00000  Uiso   1.00
C179   C     0.84164   0.16026   0.47647   0.00000  Uiso   1.00
C180   C     0.82644   0.16452   0.02386   0.00000  Uiso   1.00
Cu181  Cu    0.71355   0.16667   0.25000   0.00000  Uiso   1.00
Cu182  Cu    0.95311   0.16666   0.25000   0.00000  Uiso   1.00
H183   H     0.98014   0.12155   0.11501   0.00000  Uiso   1.00
H184   H     0.67985   0.21876   0.38416   0.00000  Uiso   1.00
H185   H     0.98267   0.23438   0.46347   0.00000  Uiso   1.00
H186   H     0.67605   0.10457   0.03626   0.00000  Uiso   1.00
H187   H     0.92409   0.03728   0.25030   0.00000  Uiso   1.00
H188   H     0.74256   0.29606   0.24974   0.00000  Uiso   1.00
H189   H     0.92413   0.29602   0.25022   0.00000  Uiso   1.00
H190   H     0.74253   0.03732   0.24981   0.00000  Uiso   1.00
H191   H     0.86462   0.11309   0.29049   0.00000  Uiso   1.00
H192   H     0.80244   0.21957   0.20835   0.00000  Uiso   1.00
H193   H     0.77755   0.11341   0.29103   0.00000  Uiso   1.00
H194   H     0.88927   0.21962   0.20849   0.00000  Uiso   1.00
N195   N     0.78403   0.16668   0.24999   0.00000  Uiso   1.00
N196   N     0.88264   0.16666   0.25001   0.00000  Uiso   1.00
O197   O     0.70625   0.10655   0.25000   0.00000  Uiso   1.00
O198   O     0.96042   0.22678   0.25000   0.00000  Uiso   1.00
O199   O     0.96039   0.10654   0.25001   0.00000  Uiso   1.00
O200   O     0.70628   0.22679   0.25000   0.00000  Uiso   1.00
O201   O     0.68519   0.16668   0.31491   0.00000  Uiso   1.00
O202   O     0.98148   0.16666   0.18509   0.00000  Uiso   1.00
O203   O     0.93933   0.16667   0.31492   0.00000  Uiso   1.00
O204   O     0.72733   0.16667   0.18508   0.00000  Uiso   1.00
C205   C     0.93280   0.22179   0.04688   0.00000  Uiso   1.00
O206   O     0.91337   0.24955   0.07190   0.00000  Uiso   1.00
O207   O     0.98181   0.21294   0.04225   0.00000  Uiso   1.00
H208   H     0.99390   0.18871   0.02181   0.00000  Uiso   1.00
C209   C     0.72764   0.11293   0.45487   0.00000  Uiso   1.00
O210   O     0.70899   0.13486   0.43212   0.00000  Uiso   1.00
O211   O     0.71681   0.07093   0.45932   0.00000  Uiso   1.00
H212   H     0.69311   0.06229   0.44199   0.00000  Uiso   1.00
F213   F     0.77708   0.20275   0.10793   0.00000  Uiso   1.00
F214   F     0.89735   0.12199   0.39324   0.00000  Uiso   1.00
C215   C     0.85874   0.15883   0.09208   0.00000  Uiso   1.00
O216   O     0.87715   0.17666   0.11798   0.00000  Uiso   1.00
O217   O     0.83544   0.12104   0.10483   0.00000  Uiso   1.00
H218   H     0.83556   0.11234   0.13625   0.00000  Uiso   1.00
C219   C     0.81276   0.15939   0.40579   0.00000  Uiso   1.00
O220   O     0.82168   0.19505   0.39375   0.00000  Uiso   1.00
O221   O     0.80863   0.13010   0.37415   0.00000  Uiso   1.00
H222   H     0.80639   0.10089   0.38608   0.00000  Uiso   1.00
C223   C     0.33331   0.42069   0.25003   0.00000  Uiso   1.00
C224   C     0.00002   0.57931   0.24998   0.00000  Uiso   1.00
C225   C     0.19476   0.50971   0.04662   0.00000  Uiso   1.00
C226   C     0.13993   0.48140   0.45371   0.00000  Uiso   1.00
C227   C     0.23695   0.53127   0.02250   0.00000  Uiso   1.00
C228   C     0.09493   0.46421   0.47838   0.00000  Uiso   1.00
C229   C     0.29073   0.35461   0.25017   0.00000  Uiso   1.00
C230   C     0.04259   0.64539   0.24987   0.00000  Uiso   1.00
C231   C     0.29075   0.64537   0.25013   0.00000  Uiso   1.00
C232   C     0.04257   0.35463   0.24990   0.00000  Uiso   1.00
C233   C     0.00001   0.62393   0.24999   0.00000  Uiso   1.00
C234   C     0.33331   0.37608   0.25004   0.00000  Uiso   1.00
C235   C     0.18470   0.47027   0.27248   0.00000  Uiso   1.00
C236   C     0.14881   0.52941   0.22697   0.00000  Uiso   1.00
C237   C     0.13505   0.47039   0.27267   0.00000  Uiso   1.00
C238   C     0.19838   0.52944   0.22703   0.00000  Uiso   1.00
C239   C     0.30590   0.50091   0.33598   0.00000  Uiso   1.00
C240   C     0.02744   0.49899   0.16401   0.00000  Uiso   1.00
C241   C     0.29031   0.50756   0.38442   0.00000  Uiso   1.00
C242   C     0.04295   0.49165   0.11566   0.00000  Uiso   1.00
C243   C     0.29572   0.54605   0.44926   0.00000  Uiso   1.00
C244   C     0.03317   0.45559   0.05089   0.00000  Uiso   1.00
C245   C     0.31389   0.53674   0.40392   0.00000  Uiso   1.00
C246   C     0.01547   0.46625   0.09584   0.00000  Uiso   1.00
C247   C     0.24734   0.48920   0.40993   0.00000  Uiso   1.00
C248   C     0.08870   0.50549   0.09060   0.00000  Uiso   1.00
C249   C     0.22429   0.50340   0.45354   0.00000  Uiso   1.00
C250   C     0.11012   0.49015   0.04707   0.00000  Uiso   1.00
C251   C     0.25213   0.52776   0.47529   0.00000  Uiso   1.00
C252   C     0.07990   0.46859   0.02541   0.00000  Uiso   1.00
C253   C     0.17498   0.49360   0.47647   0.00000  Uiso   1.00
C254   C     0.15978   0.49786   0.02386   0.00000  Uiso   1.00
Cu255  Cu    0.04689   0.50001   0.25000   0.00000  Uiso   1.00
Cu256  Cu    0.28645   0.49999   0.25000   0.00000  Uiso   1.00
H257   H     0.31348   0.45488   0.11501   0.00000  Uiso   1.00
H258   H     0.01318   0.55209   0.38416   0.00000  Uiso   1.00
H259   H     0.31600   0.56771   0.46347   0.00000  Uiso   1.00
H260   H     0.00939   0.43791   0.03626   0.00000  Uiso   1.00
H261   H     0.25743   0.37061   0.25030   0.00000  Uiso   1.00
H262   H     0.07590   0.62939   0.24974   0.00000  Uiso   1.00
H263   H     0.25746   0.62935   0.25022   0.00000  Uiso   1.00
H264   H     0.07586   0.37065   0.24981   0.00000  Uiso   1.00
H265   H     0.19796   0.44643   0.29049   0.00000  Uiso   1.00
H266   H     0.13577   0.55290   0.20835   0.00000  Uiso   1.00
H267   H     0.11089   0.44674   0.29103   0.00000  Uiso   1.00
H268   H     0.22261   0.55296   0.20849   0.00000  Uiso   1.00
N269   N     0.11736   0.50001   0.24999   0.00000  Uiso   1.00
N270   N     0.21597   0.49999   0.25001   0.00000  Uiso   1.00
O271   O     0.03958   0.43989   0.25000   0.00000  Uiso   1.00
O272   O     0.29375   0.56011   0.25000   0.00000  Uiso   1.00
O273   O     0.29372   0.43988   0.25001   0.00000  Uiso   1.00
O274   O     0.03961   0.56012   0.25000   0.00000  Uiso   1.00
O275   O     0.01852   0.50001   0.31491   0.00000  Uiso   1.00
O276   O     0.31481   0.49999   0.18509   0.00000  Uiso   1.00
O277   O     0.27267   0.50000   0.31492   0.00000  Uiso   1.00
O278   O     0.06067   0.50000   0.18508   0.00000  Uiso   1.00
C279   C     0.26613   0.55513   0.04688   0.00000  Uiso   1.00
O280   O     0.24670   0.58289   0.07190   0.00000  Uiso   1.00
O281   O     0.31514   0.54627   0.04225   0.00000  Uiso   1.00
H282   H     0.32723   0.52204   0.02181   0.00000  Uiso   1.00
C283   C     0.06097   0.44627   0.45487   0.00000  Uiso   1.00
O284   O     0.04232   0.46819   0.43212   0.00000  Uiso   1.00
O285   O     0.05014   0.40426   0.45932   0.00000  Uiso   1.00
H286   H     0.02645   0.39563   0.44199   0.00000  Uiso   1.00
F287   F     0.11042   0.53608   0.10793   0.00000  Uiso   1.00
F288   F     0.23069   0.45532   0.39324   0.00000  Uiso   1.00
C289   C     0.19207   0.49216   0.09208   0.00000  Uiso   1.00
O290   O     0.21048   0.50999   0.11798   0.00000  Uiso   1.00
O291   O     0.16878   0.45437   0.10483   0.00000  Uiso   1.00
H292   H     0.16889   0.44567   0.13625   0.00000  Uiso   1.00
C293   C     0.14609   0.49273   0.40579   0.00000  Uiso   1.00
O294   O     0.15502   0.52838   0.39375   0.00000  Uiso   1.00
O295   O     0.14196   0.46343   0.37415   0.00000  Uiso   1.00
H296   H     0.13972   0.43422   0.38608   0.00000  Uiso   1.00
C297   C     0.66664   0.42069   0.25003   0.00000  Uiso   1.00
C298   C     0.33335   0.57931   0.24998   0.00000  Uiso   1.00
C299   C     0.52809   0.50971   0.04662   0.00000  Uiso   1.00
C300   C     0.47327   0.48140   0.45371   0.00000  Uiso   1.00
C301   C     0.57029   0.53127   0.02250   0.00000  Uiso   1.00
C302   C     0.42826   0.46421   0.47838   0.00000  Uiso   1.00
C303   C     0.62406   0.35461   0.25017   0.00000  Uiso   1.00
C304   C     0.37592   0.64539   0.24987   0.00000  Uiso   1.00
C305   C     0.62408   0.64537   0.25013   0.00000  Uiso   1.00
C306   C     0.37591   0.35463   0.24990   0.00000  Uiso   1.00
C307   C     0.33335   0.62393   0.24999   0.00000  Uiso   1.00
C308   C     0.66665   0.37608   0.25004   0.00000  Uiso   1.00
C309   C     0.51803   0.47027   0.27248   0.00000  Uiso   1.00
C310   C     0.48214   0.52941   0.22697   0.00000  Uiso   1.00
C311   C     0.46838   0.47039   0.27267   0.00000  Uiso   1.00
C312   C     0.53171   0.52944   0.22703   0.00000  Uiso   1.00
C313   C     0.63923   0.50091   0.33598   0.00000  Uiso   1.00
C314   C     0.36077   0.49899   0.16401   0.00000  Uiso   1.00
C315   C     0.62364   0.50756   0.38442   0.00000  Uiso   1.00
C316   C     0.37628   0.49165   0.11566   0.00000  Uiso   1.00
C317   C     0.62905   0.54605   0.44926   0.00000  Uiso   1.00
C318   C     0.36650   0.45559   0.05089   0.00000  Uiso   1.00
C319   C     0.64722   0.53674   0.40392   0.00000  Uiso   1.00
C320   C     0.34880   0.46625   0.09584   0.00000  Uiso   1.00
C321   C     0.58067   0.48920   0.40993   0.00000  Uiso   1.00
C322   C     0.42203   0.50549   0.09060   0.00000  Uiso   1.00
C323   C     0.55762   0.50340   0.45354   0.00000  Uiso   1.00
C324   C     0.44346   0.49015   0.04707   0.00000  Uiso   1.00
C325   C     0.58546   0.52776   0.47529   0.00000  Uiso   1.00
C326   C     0.41324   0.46859   0.02541   0.00000  Uiso   1.00
C327   C     0.50831   0.49360   0.47647   0.00000  Uiso   1.00
C328   C     0.49311   0.49786   0.02386   0.00000  Uiso   1.00
Cu329  Cu    0.38022   0.50001   0.25000   0.00000  Uiso   1.00
Cu330  Cu    0.61978   0.49999   0.25000   0.00000  Uiso   1.00
H331   H     0.64681   0.45488   0.11501   0.00000  Uiso   1.00
H332   H     0.34651   0.55209   0.38416   0.00000  Uiso   1.00
H333   H     0.64934   0.56771   0.46347   0.00000  Uiso   1.00
H334   H     0.34272   0.43791   0.03626   0.00000  Uiso   1.00
H335   H     0.59076   0.37061   0.25030   0.00000  Uiso   1.00
H336   H     0.40923   0.62939   0.24974   0.00000  Uiso   1.00
H337   H     0.59080   0.62935   0.25022   0.00000  Uiso   1.00
H338   H     0.40920   0.37065   0.24981   0.00000  Uiso   1.00
H339   H     0.53129   0.44643   0.29049   0.00000  Uiso   1.00
H340   H     0.46911   0.55290   0.20835   0.00000  Uiso   1.00
H341   H     0.44422   0.44674   0.29103   0.00000  Uiso   1.00
H342   H     0.55594   0.55296   0.20849   0.00000  Uiso   1.00
N343   N     0.45069   0.50001   0.24999   0.00000  Uiso   1.00
N344   N     0.54931   0.49999   0.25001   0.00000  Uiso   1.00
O345   O     0.37291   0.43989   0.25000   0.00000  Uiso   1.00
O346   O     0.62709   0.56011   0.25000   0.00000  Uiso   1.00
O347   O     0.62706   0.43988   0.25001   0.00000  Uiso   1.00
O348   O     0.37294   0.56012   0.25000   0.00000  Uiso   1.00
O349   O     0.35186   0.50001   0.31491   0.00000  Uiso   1.00
O350   O     0.64814   0.49999   0.18509   0.00000  Uiso   1.00
O351   O     0.60600   0.50000   0.31492   0.00000  Uiso   1.00
O352   O     0.39400   0.50000   0.18508   0.00000  Uiso   1.00
C353   C     0.59947   0.55513   0.04688   0.00000  Uiso   1.00
O354   O     0.58003   0.58289   0.07190   0.00000  Uiso   1.00
O355   O     0.64848   0.54627   0.04225   0.00000  Uiso   1.00
H356   H     0.66056   0.52204   0.02181   0.00000  Uiso   1.00
C357   C     0.39431   0.44627   0.45487   0.00000  Uiso   1.00
O358   O     0.37566   0.46819   0.43212   0.00000  Uiso   1.00
O359   O     0.38348   0.40426   0.45932   0.00000  Uiso   1.00
H360   H     0.35978   0.39563   0.44199   0.00000  Uiso   1.00
F361   F     0.44375   0.53608   0.10793   0.00000  Uiso   1.00
F362   F     0.56402   0.45532   0.39324   0.00000  Uiso   1.00
C363   C     0.52541   0.49216   0.09208   0.00000  Uiso   1.00
O364   O     0.54382   0.50999   0.11798   0.00000  Uiso   1.00
O365   O     0.50211   0.45437   0.10483   0.00000  Uiso   1.00
H366   H     0.50222   0.44567   0.13625   0.00000  Uiso   1.00
C367   C     0.47942   0.49273   0.40579   0.00000  Uiso   1.00
O368   O     0.48835   0.52838   0.39375   0.00000  Uiso   1.00
O369   O     0.47530   0.46343   0.37415   0.00000  Uiso   1.00
H370   H     0.47306   0.43422   0.38608   0.00000  Uiso   1.00
C371   C     0.99998   0.42069   0.25003   0.00000  Uiso   1.00
C372   C     0.66669   0.57931   0.24998   0.00000  Uiso   1.00
C373   C     0.86143   0.50971   0.04662   0.00000  Uiso   1.00
C374   C     0.80660   0.48140   0.45371   0.00000  Uiso   1.00
C375   C     0.90362   0.53127   0.02250   0.00000  Uiso   1.00
C376   C     0.76160   0.46421   0.47838   0.00000  Uiso   1.00
C377   C     0.95740   0.35461   0.25017   0.00000  Uiso   1.00
C378   C     0.70926   0.64539   0.24987   0.00000  Uiso   1.00
C379   C     0.95742   0.64537   0.25013   0.00000  Uiso   1.00
C380   C     0.70924   0.35463   0.24990   0.00000  Uiso   1.00
C381   C     0.66668   0.62393   0.24999   0.00000  Uiso   1.00
C382   C     0.99998   0.37608   0.25004   0.00000  Uiso   1.00
C383   C     0.85136   0.47027   0.27248   0.00000  Uiso   1.00
C384   C     0.81548   0.52941   0.22697   0.00000  Uiso   1.00
C385   C     0.80172   0.47039   0.27267   0.00000  Uiso   1.00
C386   C     0.86505   0.52944   0.22703   0.00000  Uiso   1.00
C387   C     0.97256   0.50091   0.33598   0.00000  Uiso   1.00
C388   C     0.69411   0.49899   0.16401   0.00000  Uiso   1.00
C389   C     0.95698   0.50756   0.38442   0.00000  Uiso   1.00
C390   C     0.70962   0.49165   0.11566   0.00000  Uiso   1.00
C391   C     0.96239   0.54605   0.44926   0.00000  Uiso   1.00
C392   C     0.69983   0.45559   0.05089   0.00000  Uiso   1.00
C393   C     0.98055   0.53674   0.40392   0.00000  Uiso   1.00
C394   C     0.68213   0.46625   0.09584   0.00000  Uiso   1.00
C395   C     0.91401   0.48920   0.40993   0.00000  Uiso   1.00
C396   C     0.75536   0.50549   0.09060   0.00000  Uiso   1.00
C397   C     0.89096   0.50340   0.45354   0.00000  Uiso   1.00
C398   C     0.77679   0.49015   0.04707   0.00000  Uiso   1.00
C399   C     0.91879   0.52776   0.47529   0.00000  Uiso   1.00
C400   C     0.74657   0.46859   0.02541   0.00000  Uiso   1.00
C401   C     0.84164   0.49360   0.47647   0.00000  Uiso   1.00
C402   C     0.82644   0.49786   0.02386   0.00000  Uiso   1.00
Cu403  Cu    0.71355   0.50001   0.25000   0.00000  Uiso   1.00
Cu404  Cu    0.95311   0.49999   0.25000   0.00000  Uiso   1.00
H405   H     0.98014   0.45488   0.11501   0.00000  Uiso   1.00
H406   H     0.67985   0.55209   0.38416   0.00000  Uiso   1.00
H407   H     0.98267   0.56771   0.46347   0.00000  Uiso   1.00
H408   H     0.67605   0.43791   0.03626   0.00000  Uiso   1.00
H409   H     0.92409   0.37061   0.25030   0.00000  Uiso   1.00
H410   H     0.74256   0.62939   0.24974   0.00000  Uiso   1.00
H411   H     0.92413   0.62935   0.25022   0.00000  Uiso   1.00
H412   H     0.74253   0.37065   0.24981   0.00000  Uiso   1.00
H413   H     0.86462   0.44643   0.29049   0.00000  Uiso   1.00
H414   H     0.80244   0.55290   0.20835   0.00000  Uiso   1.00
H415   H     0.77755   0.44674   0.29103   0.00000  Uiso   1.00
H416   H     0.88927   0.55296   0.20849   0.00000  Uiso   1.00
N417   N     0.78403   0.50001   0.24999   0.00000  Uiso   1.00
N418   N     0.88264   0.49999   0.25001   0.00000  Uiso   1.00
O419   O     0.70625   0.43989   0.25000   0.00000  Uiso   1.00
O420   O     0.96042   0.56011   0.25000   0.00000  Uiso   1.00
O421   O     0.96039   0.43988   0.25001   0.00000  Uiso   1.00
O422   O     0.70628   0.56012   0.25000   0.00000  Uiso   1.00
O423   O     0.68519   0.50001   0.31491   0.00000  Uiso   1.00
O424   O     0.98148   0.49999   0.18509   0.00000  Uiso   1.00
O425   O     0.93933   0.50000   0.31492   0.00000  Uiso   1.00
O426   O     0.72733   0.50000   0.18508   0.00000  Uiso   1.00
C427   C     0.93280   0.55513   0.04688   0.00000  Uiso   1.00
O428   O     0.91337   0.58289   0.07190   0.00000  Uiso   1.00
O429   O     0.98181   0.54627   0.04225   0.00000  Uiso   1.00
H430   H     0.99390   0.52204   0.02181   0.00000  Uiso   1.00
C431   C     0.72764   0.44627   0.45487   0.00000  Uiso   1.00
O432   O     0.70899   0.46819   0.43212   0.00000  Uiso   1.00
O433   O     0.71681   0.40426   0.45932   0.00000  Uiso   1.00
H434   H     0.69311   0.39563   0.44199   0.00000  Uiso   1.00
F435   F     0.77708   0.53608   0.10793   0.00000  Uiso   1.00
F436   F     0.89735   0.45532   0.39324   0.00000  Uiso   1.00
C437   C     0.85874   0.49216   0.09208   0.00000  Uiso   1.00
O438   O     0.87715   0.50999   0.11798   0.00000  Uiso   1.00
O439   O     0.83544   0.45437   0.10483   0.00000  Uiso   1.00
H440   H     0.83556   0.44567   0.13625   0.00000  Uiso   1.00
C441   C     0.81276   0.49273   0.40579   0.00000  Uiso   1.00
O442   O     0.82168   0.52838   0.39375   0.00000  Uiso   1.00
O443   O     0.80863   0.46343   0.37415   0.00000  Uiso   1.00
H444   H     0.80639   0.43422   0.38608   0.00000  Uiso   1.00
C445   C     0.33331   0.75403   0.25003   0.00000  Uiso   1.00
C446   C     0.00002   0.91264   0.24998   0.00000  Uiso   1.00
C447   C     0.19476   0.84304   0.04662   0.00000  Uiso   1.00
C448   C     0.13993   0.81473   0.45371   0.00000  Uiso   1.00
C449   C     0.23695   0.86460   0.02250   0.00000  Uiso   1.00
C450   C     0.09493   0.79755   0.47838   0.00000  Uiso   1.00
C451   C     0.29073   0.68794   0.25017   0.00000  Uiso   1.00
C452   C     0.04259   0.97873   0.24987   0.00000  Uiso   1.00
C453   C     0.29075   0.97871   0.25013   0.00000  Uiso   1.00
C454   C     0.04257   0.68796   0.24990   0.00000  Uiso   1.00
C455   C     0.00001   0.95726   0.24999   0.00000  Uiso   1.00
C456   C     0.33331   0.70941   0.25004   0.00000  Uiso   1.00
C457   C     0.18470   0.80360   0.27248   0.00000  Uiso   1.00
C458   C     0.14881   0.86275   0.22697   0.00000  Uiso   1.00
C459   C     0.13505   0.80372   0.27267   0.00000  Uiso   1.00
C460   C     0.19838   0.86277   0.22703   0.00000  Uiso   1.00
C461   C     0.30590   0.83424   0.33598   0.00000  Uiso   1.00
C462   C     0.02744   0.83233   0.16401   0.00000  Uiso   1.00
C463   C     0.29031   0.84089   0.38442   0.00000  Uiso   1.00
C464   C     0.04295   0.82498   0.11566   0.00000  Uiso   1.00
C465   C     0.29572   0.87938   0.44926   0.00000  Uiso   1.00
C466   C     0.03317   0.78892   0.05089   0.00000  Uiso   1.00
C467   C     0.31389   0.87008   0.40392   0.00000  Uiso   1.00
C468   C     0.01547   0.79958   0.09584   0.00000  Uiso   1.00
C469   C     0.24734   0.82253   0.40993   0.00000  Uiso   1.00
C470   C     0.08870   0.83883   0.09060   0.00000  Uiso   1.00
C471   C     0.22429   0.83673   0.45354   0.00000  Uiso   1.00
C472   C     0.11012   0.82348   0.04707   0.00000  Uiso   1.00
C473   C     0.25213   0.86109   0.47529   0.00000  Uiso   1.00
C474   C     0.07990   0.80192   0.02541   0.00000  Uiso   1.00
C475   C     0.17498   0.82693   0.47647   0.00000  Uiso   1.00
C476   C     0.15978   0.83119   0.02386   0.00000  Uiso   1.00
Cu477  Cu    0.04689   0.83334   0.25000   0.00000  Uiso   1.00
Cu478  Cu    0.28645   0.83333   0.25000   0.00000  Uiso   1.00
H479   H     0.31348   0.78821   0.11501   0.00000  Uiso   1.00
H480   H     0.01318   0.88542   0.38416   0.00000  Uiso   1.00
H481   H     0.31600   0.90105   0.46347   0.00000  Uiso   1.00
H482   H     0.00939   0.77124   0.03626   0.00000  Uiso   1.00
H483   H     0.25743   0.70395   0.25030   0.00000  Uiso   1.00
H484   H     0.07590   0.96272   0.24974   0.00000  Uiso   1.00
H485   H     0.25746   0.96269   0.25022   0.00000  Uiso   1.00
H486   H     0.07586   0.70398   0.24981   0.00000  Uiso   1.00
H487   H     0.19796   0.77976   0.29049   0.00000  Uiso   1.00
H488   H     0.13577   0.88623   0.20835   0.00000  Uiso   1.00
H489   H     0.11089   0.78008   0.29103   0.00000  Uiso   1.00
H490   H     0.22261   0.88629   0.20849   0.00000  Uiso   1.00
N491   N     0.11736   0.83334   0.24999   0.00000  Uiso   1.00
N492   N     0.21597   0.83332   0.25001   0.00000  Uiso   1.00
O493   O     0.03958   0.77322   0.25000   0.00000  Uiso   1.00
O494   O     0.29375   0.89345   0.25000   0.00000  Uiso   1.00
O495   O     0.29372   0.77321   0.25001   0.00000  Uiso   1.00
O496   O     0.03961   0.89346   0.25000   0.00000  Uiso   1.00
O497   O     0.01852   0.83334   0.31491   0.00000  Uiso   1.00
O498   O     0.31481   0.83332   0.18509   0.00000  Uiso   1.00
O499   O     0.27267   0.83333   0.31492   0.00000  Uiso   1.00
O500   O     0.06067   0.83333   0.18508   0.00000  Uiso   1.00
C501   C     0.26613   0.88846   0.04688   0.00000  Uiso   1.00
O502   O     0.24670   0.91622   0.07190   0.00000  Uiso   1.00
O503   O     0.31514   0.87961   0.04225   0.00000  Uiso   1.00
H504   H     0.32723   0.85538   0.02181   0.00000  Uiso   1.00
C505   C     0.06097   0.77960   0.45487   0.00000  Uiso   1.00
O506   O     0.04232   0.80152   0.43212   0.00000  Uiso   1.00
O507   O     0.05014   0.73760   0.45932   0.00000  Uiso   1.00
H508   H     0.02645   0.72896   0.44199   0.00000  Uiso   1.00
F509   F     0.11042   0.86942   0.10793   0.00000  Uiso   1.00
F510   F     0.23069   0.78866   0.39324   0.00000  Uiso   1.00
C511   C     0.19207   0.82549   0.09208   0.00000  Uiso   1.00
O512   O     0.21048   0.84333   0.11798   0.00000  Uiso   1.00
O513   O     0.16878   0.78770   0.10483   0.00000  Uiso   1.00
H514   H     0.16889   0.77901   0.13625   0.00000  Uiso   1.00
C515   C     0.14609   0.82606   0.40579   0.00000  Uiso   1.00
O516   O     0.15502   0.86171   0.39375   0.00000  Uiso   1.00
O517   O     0.14196   0.79676   0.37415   0.00000  Uiso   1.00
H518   H     0.13972   0.76756   0.38608   0.00000  Uiso   1.00
C519   C     0.66664   0.75403   0.25003   0.00000  Uiso   1.00
C520   C     0.33335   0.91264   0.24998   0.00000  Uiso   1.00
C521   C     0.52809   0.84304   0.04662   0.00000  Uiso   1.00
C522   C     0.47327   0.81473   0.45371   0.00000  Uiso   1.00
C523   C     0.57029   0.86460   0.02250   0.00000  Uiso   1.00
C524   C     0.42826   0.79755   0.47838   0.00000  Uiso   1.00
C525   C     0.62406   0.68794   0.25017   0.00000  Uiso   1.00
C526   C     0.37592   0.97873   0.24987   0.00000  Uiso   1.00
C527   C     0.62408   0.97871   0.25013   0.00000  Uiso   1.00
C528   C     0.37591   0.68796   0.24990   0.00000  Uiso   1.00
C529   C     0.33335   0.95726   0.24999   0.00000  Uiso   1.00
C530   C     0.66665   0.70941   0.25004   0.00000  Uiso   1.00
C531   C     0.51803   0.80360   0.27248   0.00000  Uiso   1.00
C532   C     0.48214   0.86275   0.22697   0.00000  Uiso   1.00
C533   C     0.46838   0.80372   0.27267   0.00000  Uiso   1.00
C534   C     0.53171   0.86277   0.22703   0.00000  Uiso   1.00
C535   C     0.63923   0.83424   0.33598   0.00000  Uiso   1.00
C536   C     0.36077   0.83233   0.16401   0.00000  Uiso   1.00
C537   C     0.62364   0.84089   0.38442   0.00000  Uiso   1.00
C538   C     0.37628   0.82498   0.11566   0.00000  Uiso   1.00
C539   C     0.62905   0.87938   0.44926   0.00000  Uiso   1.00
C540   C     0.36650   0.78892   0.05089   0.00000  Uiso   1.00
C541   C     0.64722   0.87008   0.40392   0.00000  Uiso   1.00
C542   C     0.34880   0.79958   0.09584   0.00000  Uiso   1.00
C543   C     0.58067   0.82253   0.40993   0.00000  Uiso   1.00
C544   C     0.42203   0.83883   0.09060   0.00000  Uiso   1.00
C545   C     0.55762   0.83673   0.45354   0.00000  Uiso   1.00
C546   C     0.44346   0.82348   0.04707   0.00000  Uiso   1.00
C547   C     0.58546   0.86109   0.47529   0.00000  Uiso   1.00
C548   C     0.41324   0.80192   0.02541   0.00000  Uiso   1.00
C549   C     0.50831   0.82693   0.47647   0.00000  Uiso   1.00
C550   C     0.49311   0.83119   0.02386   0.00000  Uiso   1.00
Cu551  Cu    0.38022   0.83334   0.25000   0.00000  Uiso   1.00
Cu552  Cu    0.61978   0.83333   0.25000   0.00000  Uiso   1.00
H553   H     0.64681   0.78821   0.11501   0.00000  Uiso   1.00
H554   H     0.34651   0.88542   0.38416   0.00000  Uiso   1.00
H555   H     0.64934   0.90105   0.46347   0.00000  Uiso   1.00
H556   H     0.34272   0.77124   0.03626   0.00000  Uiso   1.00
H557   H     0.59076   0.70395   0.25030   0.00000  Uiso   1.00
H558   H     0.40923   0.96272   0.24974   0.00000  Uiso   1.00
H559   H     0.59080   0.96269   0.25022   0.00000  Uiso   1.00
H560   H     0.40920   0.70398   0.24981   0.00000  Uiso   1.00
H561   H     0.53129   0.77976   0.29049   0.00000  Uiso   1.00
H562   H     0.46911   0.88623   0.20835   0.00000  Uiso   1.00
H563   H     0.44422   0.78008   0.29103   0.00000  Uiso   1.00
H564   H     0.55594   0.88629   0.20849   0.00000  Uiso   1.00
N565   N     0.45069   0.83334   0.24999   0.00000  Uiso   1.00
N566   N     0.54931   0.83332   0.25001   0.00000  Uiso   1.00
O567   O     0.37291   0.77322   0.25000   0.00000  Uiso   1.00
O568   O     0.62709   0.89345   0.25000   0.00000  Uiso   1.00
O569   O     0.62706   0.77321   0.25001   0.00000  Uiso   1.00
O570   O     0.37294   0.89346   0.25000   0.00000  Uiso   1.00
O571   O     0.35186   0.83334   0.31491   0.00000  Uiso   1.00
O572   O     0.64814   0.83332   0.18509   0.00000  Uiso   1.00
O573   O     0.60600   0.83333   0.31492   0.00000  Uiso   1.00
O574   O     0.39400   0.83333   0.18508   0.00000  Uiso   1.00
C575   C     0.59947   0.88846   0.04688   0.00000  Uiso   1.00
O576   O     0.58003   0.91622   0.07190   0.00000  Uiso   1.00
O577   O     0.64848   0.87961   0.04225   0.00000  Uiso   1.00
H578   H     0.66056   0.85538   0.02181   0.00000  Uiso   1.00
C579   C     0.39431   0.77960   0.45487   0.00000  Uiso   1.00
O580   O     0.37566   0.80152   0.43212   0.00000  Uiso   1.00
O581   O     0.38348   0.73760   0.45932   0.00000  Uiso   1.00
H582   H     0.35978   0.72896   0.44199   0.00000  Uiso   1.00
F583   F     0.44375   0.86942   0.10793   0.00000  Uiso   1.00
F584   F     0.56402   0.78866   0.39324   0.00000  Uiso   1.00
C585   C     0.52541   0.82549   0.09208   0.00000  Uiso   1.00
O586   O     0.54382   0.84333   0.11798   0.00000  Uiso   1.00
O587   O     0.50211   0.78770   0.10483   0.00000  Uiso   1.00
H588   H     0.50222   0.77901   0.13625   0.00000  Uiso   1.00
C589   C     0.47942   0.82606   0.40579   0.00000  Uiso   1.00
O590   O     0.48835   0.86171   0.39375   0.00000  Uiso   1.00
O591   O     0.47530   0.79676   0.37415   0.00000  Uiso   1.00
H592   H     0.47306   0.76756   0.38608   0.00000  Uiso   1.00
C593   C     0.99998   0.75403   0.25003   0.00000  Uiso   1.00
C594   C     0.66669   0.91264   0.24998   0.00000  Uiso   1.00
C595   C     0.86143   0.84304   0.04662   0.00000  Uiso   1.00
C596   C     0.80660   0.81473   0.45371   0.00000  Uiso   1.00
C597   C     0.90362   0.86460   0.02250   0.00000  Uiso   1.00
C598   C     0.76160   0.79755   0.47838   0.00000  Uiso   1.00
C599   C     0.95740   0.68794   0.25017   0.00000  Uiso   1.00
C600   C     0.70926   0.97873   0.24987   0.00000  Uiso   1.00
C601   C     0.95742   0.97871   0.25013   0.00000  Uiso   1.00
C602   C     0.70924   0.68796   0.24990   0.00000  Uiso   1.00
C603   C     0.66668   0.95726   0.24999   0.00000  Uiso   1.00
C604   C     0.99998   0.70941   0.25004   0.00000  Uiso   1.00
C605   C     0.85136   0.80360   0.27248   0.00000  Uiso   1.00
C606   C     0.81548   0.86275   0.22697   0.00000  Uiso   1.00
C607   C     0.80172   0.80372   0.27267   0.00000  Uiso   1.00
C608   C     0.86505   0.86277   0.22703   0.00000  Uiso   1.00
C609   C     0.97256   0.83424   0.33598   0.00000  Uiso   1.00
C610   C     0.69411   0.83233   0.16401   0.00000  Uiso   1.00
C611   C     0.95698   0.84089   0.38442   0.00000  Uiso   1.00
C612   C     0.70962   0.82498   0.11566   0.00000  Uiso   1.00
C613   C     0.96239   0.87938   0.44926   0.00000  Uiso   1.00
C614   C     0.69983   0.78892   0.05089   0.00000  Uiso   1.00
C615   C     0.98055   0.87008   0.40392   0.00000  Uiso   1.00
C616   C     0.68213   0.79958   0.09584   0.00000  Uiso   1.00
C617   C     0.91401   0.82253   0.40993   0.00000  Uiso   1.00
C618   C     0.75536   0.83883   0.09060   0.00000  Uiso   1.00
C619   C     0.89096   0.83673   0.45354   0.00000  Uiso   1.00
C620   C     0.77679   0.82348   0.04707   0.00000  Uiso   1.00
C621   C     0.91879   0.86109   0.47529   0.00000  Uiso   1.00
C622   C     0.74657   0.80192   0.02541   0.00000  Uiso   1.00
C623   C     0.84164   0.82693   0.47647   0.00000  Uiso   1.00
C624   C     0.82644   0.83119   0.02386   0.00000  Uiso   1.00
Cu625  Cu    0.71355   0.83334   0.25000   0.00000  Uiso   1.00
Cu626  Cu    0.95311   0.83333   0.25000   0.00000  Uiso   1.00
H627   H     0.98014   0.78821   0.11501   0.00000  Uiso   1.00
H628   H     0.67985   0.88542   0.38416   0.00000  Uiso   1.00
H629   H     0.98267   0.90105   0.46347   0.00000  Uiso   1.00
H630   H     0.67605   0.77124   0.03626   0.00000  Uiso   1.00
H631   H     0.92409   0.70395   0.25030   0.00000  Uiso   1.00
H632   H     0.74256   0.96272   0.24974   0.00000  Uiso   1.00
H633   H     0.92413   0.96269   0.25022   0.00000  Uiso   1.00
H634   H     0.74253   0.70398   0.24981   0.00000  Uiso   1.00
H635   H     0.86462   0.77976   0.29049   0.00000  Uiso   1.00
H636   H     0.80244   0.88623   0.20835   0.00000  Uiso   1.00
H637   H     0.77755   0.78008   0.29103   0.00000  Uiso   1.00
H638   H     0.88927   0.88629   0.20849   0.00000  Uiso   1.00
N639   N     0.78403   0.83334   0.24999   0.00000  Uiso   1.00
N640   N     0.88264   0.83332   0.25001   0.00000  Uiso   1.00
O641   O     0.70625   0.77322   0.25000   0.00000  Uiso   1.00
O642   O     0.96042   0.89345   0.25000   0.00000  Uiso   1.00
O643   O     0.96039   0.77321   0.25001   0.00000  Uiso   1.00
O644   O     0.70628   0.89346   0.25000   0.00000  Uiso   1.00
O645   O     0.68519   0.83334   0.31491   0.00000  Uiso   1.00
O646   O     0.98148   0.83332   0.18509   0.00000  Uiso   1.00
O647   O     0.93933   0.83333   0.31492   0.00000  Uiso   1.00
O648   O     0.72733   0.83333   0.18508   0.00000  Uiso   1.00
C649   C     0.93280   0.88846   0.04688   0.00000  Uiso   1.00
O650   O     0.91337   0.91622   0.07190   0.00000  Uiso   1.00
O651   O     0.98181   0.87961   0.04225   0.00000  Uiso   1.00
H652   H     0.99390   0.85538   0.02181   0.00000  Uiso   1.00
C653   C     0.72764   0.77960   0.45487   0.00000  Uiso   1.00
O654   O     0.70899   0.80152   0.43212   0.00000  Uiso   1.00
O655   O     0.71681   0.73760   0.45932   0.00000  Uiso   1.00
H656   H     0.69311   0.72896   0.44199   0.00000  Uiso   1.00
F657   F     0.77708   0.86942   0.10793   0.00000  Uiso   1.00
F658   F     0.89735   0.78866   0.39324   0.00000  Uiso   1.00
C659   C     0.85874   0.82549   0.09208   0.00000  Uiso   1.00
O660   O     0.87715   0.84333   0.11798   0.00000  Uiso   1.00
O661   O     0.83544   0.78770   0.10483   0.00000  Uiso   1.00
H662   H     0.83556   0.77901   0.13625   0.00000  Uiso   1.00
C663   C     0.81276   0.82606   0.40579   0.00000  Uiso   1.00
O664   O     0.82168   0.86171   0.39375   0.00000  Uiso   1.00
O665   O     0.80863   0.79676   0.37415   0.00000  Uiso   1.00
H666   H     0.80639   0.76756   0.38608   0.00000  Uiso   1.00
C667   C     0.33331   0.08736   0.75003   0.00000  Uiso   1.00
C668   C     0.00002   0.24597   0.74998   0.00000  Uiso   1.00
C669   C     0.19476   0.17637   0.54662   0.00000  Uiso   1.00
C670   C     0.13993   0.14806   0.95371   0.00000  Uiso   1.00
C671   C     0.23695   0.19794   0.52250   0.00000  Uiso   1.00
C672   C     0.09493   0.13088   0.97838   0.00000  Uiso   1.00
C673   C     0.29073   0.02128   0.75017   0.00000  Uiso   1.00
C674   C     0.04259   0.31206   0.74987   0.00000  Uiso   1.00
C675   C     0.29075   0.31204   0.75013   0.00000  Uiso   1.00
C676   C     0.04257   0.02130   0.74990   0.00000  Uiso   1.00
C677   C     0.00001   0.29059   0.74999   0.00000  Uiso   1.00
C678   C     0.33331   0.04274   0.75004   0.00000  Uiso   1.00
C679   C     0.18470   0.13693   0.77248   0.00000  Uiso   1.00
C680   C     0.14881   0.19608   0.72697   0.00000  Uiso   1.00
C681   C     0.13505   0.13705   0.77267   0.00000  Uiso   1.00
C682   C     0.19838   0.19610   0.72703   0.00000  Uiso   1.00
C683   C     0.30590   0.16757   0.83598   0.00000  Uiso   1.00
C684   C     0.02744   0.16566   0.66401   0.00000  Uiso   1.00
C685   C     0.29031   0.17422   0.88442   0.00000  Uiso   1.00
C686   C     0.04295   0.15832   0.61566   0.00000  Uiso   1.00
C687   C     0.29572   0.21271   0.94926   0.00000  Uiso   1.00
C688   C     0.03317   0.12226   0.55089   0.00000  Uiso   1.00
C689   C     0.31389   0.20341   0.90392   0.00000  Uiso   1.00
C690   C     0.01547   0.13292   0.59584   0.00000  Uiso   1.00
C691   C     0.24734   0.15586   0.90993   0.00000  Uiso   1.00
C692   C     0.08870   0.17216   0.59060   0.00000  Uiso   1.00
C693   C     0.22429   0.17007   0.95354   0.00000  Uiso   1.00
C694   C     0.11012   0.15681   0.54707   0.00000  Uiso   1.00
C695   C     0.25213   0.19443   0.97529   0.00000  Uiso   1.00
C696   C     0.07990   0.13526   0.52541   0.00000  Uiso   1.00
C697   C     0.17498   0.16026   0.97647   0.00000  Uiso   1.00
C698   C     0.15978   0.16452   0.52386   0.00000  Uiso   1.00
Cu699  Cu    0.04689   0.16667   0.75000   0.00000  Uiso   1.00
Cu700  Cu    0.28645   0.16666   0.75000   0.00000  Uiso   1.00
H701   H     0.31348   0.12155   0.61501   0.00000  Uiso   1.00
H702   H     0.01318   0.21876   0.88416   0.00000  Uiso   1.00
H703   H     0.31600   0.23438   0.96347   0.00000  Uiso   1.00
H704   H     0.00939   0.10457   0.53626   0.00000  Uiso   1.00
H705   H     0.25743   0.03728   0.75030   0.00000  Uiso   1.00
H706   H     0.07590   0.29606   0.74974   0.00000  Uiso   1.00
H707   H     0.25746   0.29602   0.75022   0.00000  Uiso   1.00
H708   H     0.07586   0.03732   0.74981   0.00000  Uiso   1.00
H709   H     0.19796   0.11309   0.79049   0.00000  Uiso   1.00
H710   H     0.13577   0.21957   0.70835   0.00000  Uiso   1.00
H711   H     0.11089   0.11341   0.79103   0.00000  Uiso   1.00
H712   H     0.22261   0.21962   0.70849   0.00000  Uiso   1.00
N713   N     0.11736   0.16668   0.74999   0.00000  Uiso   1.00
N714   N     0.21597   0.16666   0.75001   0.00000  Uiso   1.00
O715   O     0.03958   0.10655   0.75000   0.00000  Uiso   1.00
O716   O     0.29375   0.22678   0.75000   0.00000  Uiso   1.00
O717   O     0.29372   0.10654   0.75001   0.00000  Uiso   1.00
O718   O     0.03961   0.22679   0.75000   0.00000  Uiso   1.00
O719   O     0.01852   0.16668   0.81491   0.00000  Uiso   1.00
O720   O     0.31481   0.16666   0.68509   0.00000  Uiso   1.00
O721   O     0.27267   0.16667   0.81492   0.00000  Uiso   1.00
O722   O     0.06067   0.16667   0.68508   0.00000  Uiso   1.00
C723   C     0.26613   0.22179   0.54688   0.00000  Uiso   1.00
O724   O     0.24670   0.24955   0.57190   0.00000  Uiso   1.00
O725   O     0.31514   0.21294   0.54225   0.00000  Uiso   1.00
H726   H     0.32723   0.18871   0.52181   0.00000  Uiso   1.00
C727   C     0.06097   0.11293   0.95487   0.00000  Uiso   1.00
O728   O     0.04232   0.13486   0.93212   0.00000  Uiso   1.00
O729   O     0.05014   0.07093   0.95932   0.00000  Uiso   1.00
H730   H     0.02645   0.06229   0.94199   0.00000  Uiso   1.00
F731   F     0.11042   0.20275   0.60793   0.00000  Uiso   1.00
F732   F     0.23069   0.12199   0.89324   0.00000  Uiso   1.00
C733   C     0.19207   0.15883   0.59208   0.00000  Uiso   1.00
O734   O     0.21048   0.17666   0.61798   0.00000  Uiso   1.00
O735   O     0.16878   0.12104   0.60483   0.00000  Uiso   1.00
H736   H     0.16889   0.11234   0.63625   0.00000  Uiso   1.00
C737   C     0.14609   0.15939   0.90579   0.00000  Uiso   1.00
O738   O     0.15502   0.19505   0.89375   0.00000  Uiso   1.00
O739   O     0.14196   0.13010   0.87415   0.00000  Uiso   1.00
H740   H     0.13972   0.10089   0.88608   0.00000  Uiso   1.00
C741   C     0.66664   0.08736   0.75003   0.00000  Uiso   1.00
C742   C     0.33335   0.24597   0.74998   0.00000  Uiso   1.00
C743   C     0.52809   0.17637   0.54662   0.00000  Uiso   1.00
C744   C     0.47327   0.14806   0.95371   0.00000  Uiso   1.00
C745   C     0.57029   0.19794   0.52250   0.00000  Uiso   1.00
C746   C     0.42826   0.13088   0.97838   0.00000  Uiso   1.00
C747   C     0.62406   0.02128   0.75017   0.00000  Uiso   1.00
C748   C     0.37592   0.31206   0.74987   0.00000  Uiso   1.00
C749   C     0.62408   0.31204   0.75013   0.00000  Uiso   1.00
C750   C     0.37591   0.02130   0.74990   0.00000  Uiso   1.00
C751   C     0.33335   0.29059   0.74999   0.00000  Uiso   1.00
C752   C     0.66665   0.04274   0.75004   0.00000  Uiso   1.00
C753   C     0.51803   0.13693   0.77248   0.00000  Uiso   1.00
C754   C     0.48214   0.19608   0.72697   0.00000  Uiso   1.00
C755   C     0.46838   0.13705   0.77267   0.00000  Uiso   1.00
C756   C     0.53171   0.19610   0.72703   0.00000  Uiso   1.00
C757   C     0.63923   0.16757   0.83598   0.00000  Uiso   1.00
C758   C     0.36077   0.16566   0.66401   0.00000  Uiso   1.00
C759   C     0.62364   0.17422   0.88442   0.00000  Uiso   1.00
C760   C     0.37628   0.15832   0.61566   0.00000  Uiso   1.00
C761   C     0.62905   0.21271   0.94926   0.00000  Uiso   1.00
C762   C     0.36650   0.12226   0.55089   0.00000  Uiso   1.00
C763   C     0.64722   0.20341   0.90392   0.00000  Uiso   1.00
C764   C     0.34880   0.13292   0.59584   0.00000  Uiso   1.00
C765   C     0.58067   0.15586   0.90993   0.00000  Uiso   1.00
C766   C     0.42203   0.17216   0.59060   0.00000  Uiso   1.00
C767   C     0.55762   0.17007   0.95354   0.00000  Uiso   1.00
C768   C     0.44346   0.15681   0.54707   0.00000  Uiso   1.00
C769   C     0.58546   0.19443   0.97529   0.00000  Uiso   1.00
C770   C     0.41324   0.13526   0.52541   0.00000  Uiso   1.00
C771   C     0.50831   0.16026   0.97647   0.00000  Uiso   1.00
C772   C     0.49311   0.16452   0.52386   0.00000  Uiso   1.00
Cu773  Cu    0.38022   0.16667   0.75000   0.00000  Uiso   1.00
Cu774  Cu    0.61978   0.16666   0.75000   0.00000  Uiso   1.00
H775   H     0.64681   0.12155   0.61501   0.00000  Uiso   1.00
H776   H     0.34651   0.21876   0.88416   0.00000  Uiso   1.00
H777   H     0.64934   0.23438   0.96347   0.00000  Uiso   1.00
H778   H     0.34272   0.10457   0.53626   0.00000  Uiso   1.00
H779   H     0.59076   0.03728   0.75030   0.00000  Uiso   1.00
H780   H     0.40923   0.29606   0.74974   0.00000  Uiso   1.00
H781   H     0.59080   0.29602   0.75022   0.00000  Uiso   1.00
H782   H     0.40920   0.03732   0.74981   0.00000  Uiso   1.00
H783   H     0.53129   0.11309   0.79049   0.00000  Uiso   1.00
H784   H     0.46911   0.21957   0.70835   0.00000  Uiso   1.00
H785   H     0.44422   0.11341   0.79103   0.00000  Uiso   1.00
H786   H     0.55594   0.21962   0.70849   0.00000  Uiso   1.00
N787   N     0.45069   0.16668   0.74999   0.00000  Uiso   1.00
N788   N     0.54931   0.16666   0.75001   0.00000  Uiso   1.00
O789   O     0.37291   0.10655   0.75000   0.00000  Uiso   1.00
O790   O     0.62709   0.22678   0.75000   0.00000  Uiso   1.00
O791   O     0.62706   0.10654   0.75001   0.00000  Uiso   1.00
O792   O     0.37294   0.22679   0.75000   0.00000  Uiso   1.00
O793   O     0.35186   0.16668   0.81491   0.00000  Uiso   1.00
O794   O     0.64814   0.16666   0.68509   0.00000  Uiso   1.00
O795   O     0.60600   0.16667   0.81492   0.00000  Uiso   1.00
O796   O     0.39400   0.16667   0.68508   0.00000  Uiso   1.00
C797   C     0.59947   0.22179   0.54688   0.00000  Uiso   1.00
O798   O     0.58003   0.24955   0.57190   0.00000  Uiso   1.00
O799   O     0.64848   0.21294   0.54225   0.00000  Uiso   1.00
H800   H     0.66056   0.18871   0.52181   0.00000  Uiso   1.00
C801   C     0.39431   0.11293   0.95487   0.00000  Uiso   1.00
O802   O     0.37566   0.13486   0.93212   0.00000  Uiso   1.00
O803   O     0.38348   0.07093   0.95932   0.00000  Uiso   1.00
H804   H     0.35978   0.06229   0.94199   0.00000  Uiso   1.00
F805   F     0.44375   0.20275   0.60793   0.00000  Uiso   1.00
F806   F     0.56402   0.12199   0.89324   0.00000  Uiso   1.00
C807   C     0.52541   0.15883   0.59208   0.00000  Uiso   1.00
O808   O     0.54382   0.17666   0.61798   0.00000  Uiso   1.00
O809   O     0.50211   0.12104   0.60483   0.00000  Uiso   1.00
H810   H     0.50222   0.11234   0.63625   0.00000  Uiso   1.00
C811   C     0.47942   0.15939   0.90579   0.00000  Uiso   1.00
O812   O     0.48835   0.19505   0.89375   0.00000  Uiso   1.00
O813   O     0.47530   0.13010   0.87415   0.00000  Uiso   1.00
H814   H     0.47306   0.10089   0.88608   0.00000  Uiso   1.00
C815   C     0.99998   0.08736   0.75003   0.00000  Uiso   1.00
C816   C     0.66669   0.24597   0.74998   0.00000  Uiso   1.00
C817   C     0.86143   0.17637   0.54662   0.00000  Uiso   1.00
C818   C     0.80660   0.14806   0.95371   0.00000  Uiso   1.00
C819   C     0.90362   0.19794   0.52250   0.00000  Uiso   1.00
C820   C     0.76160   0.13088   0.97838   0.00000  Uiso   1.00
C821   C     0.95740   0.02128   0.75017   0.00000  Uiso   1.00
C822   C     0.70926   0.31206   0.74987   0.00000  Uiso   1.00
C823   C     0.95742   0.31204   0.75013   0.00000  Uiso   1.00
C824   C     0.70924   0.02130   0.74990   0.00000  Uiso   1.00
C825   C     0.66668   0.29059   0.74999   0.00000  Uiso   1.00
C826   C     0.99998   0.04274   0.75004   0.00000  Uiso   1.00
C827   C     0.85136   0.13693   0.77248   0.00000  Uiso   1.00
C828   C     0.81548   0.19608   0.72697   0.00000  Uiso   1.00
C829   C     0.80172   0.13705   0.77267   0.00000  Uiso   1.00
C830   C     0.86505   0.19610   0.72703   0.00000  Uiso   1.00
C831   C     0.97256   0.16757   0.83598   0.00000  Uiso   1.00
C832   C     0.69411   0.16566   0.66401   0.00000  Uiso   1.00
C833   C     0.95698   0.17422   0.88442   0.00000  Uiso   1.00
C834   C     0.70962   0.15832   0.61566   0.00000  Uiso   1.00
C835   C     0.96239   0.21271   0.94926   0.00000  Uiso   1.00
C836   C     0.69983   0.12226   0.55089   0.00000  Uiso   1.00
C837   C     0.98055   0.20341   0.90392   0.00000  Uiso   1.00
C838   C     0.68213   0.13292   0.59584   0.00000  Uiso   1.00
C839   C     0.91401   0.15586   0.90993   0.00000  Uiso   1.00
C840   C     0.75536   0.17216   0.59060   0.00000  Uiso   1.00
C841   C     0.89096   0.17007   0.95354   0.00000  Uiso   1.00
C842   C     0.77679   0.15681   0.54707   0.00000  Uiso   1.00
C843   C     0.91879   0.19443   0.97529   0.00000  Uiso   1.00
C844   C     0.74657   0.13526   0.52541   0.00000  Uiso   1.00
C845   C     0.84164   0.16026   0.97647   0.00000  Uiso   1.00
C846   C     0.82644   0.16452   0.52386   0.00000  Uiso   1.00
Cu847  Cu    0.71355   0.16667   0.75000   0.00000  Uiso   1.00
Cu848  Cu    0.95311   0.16666   0.75000   0.00000  Uiso   1.00
H849   H     0.98014   0.12155   0.61501   0.00000  Uiso   1.00
H850   H     0.67985   0.21876   0.88416   0.00000  Uiso   1.00
H851   H     0.98267   0.23438   0.96347   0.00000  Uiso   1.00
H852   H     0.67605   0.10457   0.53626   0.00000  Uiso   1.00
H853   H     0.92409   0.03728   0.75030   0.00000  Uiso   1.00
H854   H     0.74256   0.29606   0.74974   0.00000  Uiso   1.00
H855   H     0.92413   0.29602   0.75022   0.00000  Uiso   1.00
H856   H     0.74253   0.03732   0.74981   0.00000  Uiso   1.00
H857   H     0.86462   0.11309   0.79049   0.00000  Uiso   1.00
H858   H     0.80244   0.21957   0.70835   0.00000  Uiso   1.00
H859   H     0.77755   0.11341   0.79103   0.00000  Uiso   1.00
H860   H     0.88927   0.21962   0.70849   0.00000  Uiso   1.00
N861   N     0.78403   0.16668   0.74999   0.00000  Uiso   1.00
N862   N     0.88264   0.16666   0.75001   0.00000  Uiso   1.00
O863   O     0.70625   0.10655   0.75000   0.00000  Uiso   1.00
O864   O     0.96042   0.22678   0.75000   0.00000  Uiso   1.00
O865   O     0.96039   0.10654   0.75001   0.00000  Uiso   1.00
O866   O     0.70628   0.22679   0.75000   0.00000  Uiso   1.00
O867   O     0.68519   0.16668   0.81491   0.00000  Uiso   1.00
O868   O     0.98148   0.16666   0.68509   0.00000  Uiso   1.00
O869   O     0.93933   0.16667   0.81492   0.00000  Uiso   1.00
O870   O     0.72733   0.16667   0.68508   0.00000  Uiso   1.00
C871   C     0.93280   0.22179   0.54688   0.00000  Uiso   1.00
O872   O     0.91337   0.24955   0.57190   0.00000  Uiso   1.00
O873   O     0.98181   0.21294   0.54225   0.00000  Uiso   1.00
H874   H     0.99390   0.18871   0.52181   0.00000  Uiso   1.00
C875   C     0.72764   0.11293   0.95487   0.00000  Uiso   1.00
O876   O     0.70899   0.13486   0.93212   0.00000  Uiso   1.00
O877   O     0.71681   0.07093   0.95932   0.00000  Uiso   1.00
H878   H     0.69311   0.06229   0.94199   0.00000  Uiso   1.00
F879   F     0.77708   0.20275   0.60793   0.00000  Uiso   1.00
F880   F     0.89735   0.12199   0.89324   0.00000  Uiso   1.00
C881   C     0.85874   0.15883   0.59208   0.00000  Uiso   1.00
O882   O     0.87715   0.17666   0.61798   0.00000  Uiso   1.00
O883   O     0.83544   0.12104   0.60483   0.00000  Uiso   1.00
H884   H     0.83556   0.11234   0.63625   0.00000  Uiso   1.00
C885   C     0.81276   0.15939   0.90579   0.00000  Uiso   1.00
O886   O     0.82168   0.19505   0.89375   0.00000  Uiso   1.00
O887   O     0.80863   0.13010   0.87415   0.00000  Uiso   1.00
H888   H     0.80639   0.10089   0.88608   0.00000  Uiso   1.00
C889   C     0.33331   0.42069   0.75003   0.00000  Uiso   1.00
C890   C     0.00002   0.57931   0.74998   0.00000  Uiso   1.00
C891   C     0.19476   0.50971   0.54662   0.00000  Uiso   1.00
C892   C     0.13993   0.48140   0.95371   0.00000  Uiso   1.00
C893   C     0.23695   0.53127   0.52250   0.00000  Uiso   1.00
C894   C     0.09493   0.46421   0.97838   0.00000  Uiso   1.00
C895   C     0.29073   0.35461   0.75017   0.00000  Uiso   1.00
C896   C     0.04259   0.64539   0.74987   0.00000  Uiso   1.00
C897   C     0.29075   0.64537   0.75013   0.00000  Uiso   1.00
C898   C     0.04257   0.35463   0.74990   0.00000  Uiso   1.00
C899   C     0.00001   0.62393   0.74999   0.00000  Uiso   1.00
C900   C     0.33331   0.37608   0.75004   0.00000  Uiso   1.00
C901   C     0.18470   0.47027   0.77248   0.00000  Uiso   1.00
C902   C     0.14881   0.52941   0.72697   0.00000  Uiso   1.00
C903   C     0.13505   0.47039   0.77267   0.00000  Uiso   1.00
C904   C     0.19838   0.52944   0.72703   0.00000  Uiso   1.00
C905   C     0.30590   0.50091   0.83598   0.00000  Uiso   1.00
C906   C     0.02744   0.49899   0.66401   0.00000  Uiso   1.00
C907   C     0.29031   0.50756   0.88442   0.00000  Uiso   1.00
C908   C     0.04295   0.49165   0.61566   0.00000  Uiso   1.00
C909   C     0.29572   0.54605   0.94926   0.00000  Uiso   1.00
C910   C     0.03317   0.45559   0.55089   0.00000  Uiso   1.00
C911   C     0.31389   0.53674   0.90392   0.00000  Uiso   1.00
C912   C     0.01547   0.46625   0.59584   0.00000  Uiso   1.00
C913   C     0.24734   0.48920   0.90993   0.00000  Uiso   1.00
C914   C     0.08870   0.50549   0.59060   0.00000  Uiso   1.00
C915   C     0.22429   0.50340   0.95354   0.00000  Uiso   1.00
C916   C     0.11012   0.49015   0.54707   0.00000  Uiso   1.00
C917   C     0.25213   0.52776   0.97529   0.00000  Uiso   1.00
C918   C     0.07990   0.46859   0.52541   0.00000  Uiso   1.00
C919   C     0.17498   0.49360   0.97647   0.00000  Uiso   1.00
C920   C     0.15978   0.49786   0.52386   0.00000  Uiso   1.00
Cu921  Cu    0.04689   0.50001   0.75000   0.00000  Uiso   1.00
Cu922  Cu    0.28645   0.49999   0.75000   0.00000  Uiso   1.00
H923   H     0.31348   0.45488   0.61501   0.00000  Uiso   1.00
H924   H     0.01318   0.55209   0.88416   0.00000  Uiso   1.00
H925   H     0.31600   0.56771   0.96347   0.00000  Uiso   1.00
H926   H     0.00939   0.43791   0.53626   0.00000  Uiso   1.00
H927   H     0.25743   0.37061   0.75030   0.00000  Uiso   1.00
H928   H     0.07590   0.62939   0.74974   0.00000  Uiso   1.00
H929   H     0.25746   0.62935   0.75022   0.00000  Uiso   1.00
H930   H     0.07586   0.37065   0.74981   0.00000  Uiso   1.00
H931   H     0.19796   0.44643   0.79049   0.00000  Uiso   1.00
H932   H     0.13577   0.55290   0.70835   0.00000  Uiso   1.00
H933   H     0.11089   0.44674   0.79103   0.00000  Uiso   1.00
H934   H     0.22261   0.55296   0.70849   0.00000  Uiso   1.00
N935   N     0.11736   0.50001   0.74999   0.00000  Uiso   1.00
N936   N     0.21597   0.49999   0.75001   0.00000  Uiso   1.00
O937   O     0.03958   0.43989   0.75000   0.00000  Uiso   1.00
O938   O     0.29375   0.56011   0.75000   0.00000  Uiso   1.00
O939   O     0.29372   0.43988   0.75001   0.00000  Uiso   1.00
O940   O     0.03961   0.56012   0.75000   0.00000  Uiso   1.00
O941   O     0.01852   0.50001   0.81491   0.00000  Uiso   1.00
O942   O     0.31481   0.49999   0.68509   0.00000  Uiso   1.00
O943   O     0.27267   0.50000   0.81492   0.00000  Uiso   1.00
O944   O     0.06067   0.50000   0.68508   0.00000  Uiso   1.00
C945   C     0.26613   0.55513   0.54688   0.00000  Uiso   1.00
O946   O     0.24670   0.58289   0.57190   0.00000  Uiso   1.00
O947   O     0.31514   0.54627   0.54225   0.00000  Uiso   1.00
H948   H     0.32723   0.52204   0.52181   0.00000  Uiso   1.00
C949   C     0.06097   0.44627   0.95487   0.00000  Uiso   1.00
O950   O     0.04232   0.46819   0.93212   0.00000  Uiso   1.00
O951   O     0.05014   0.40426   0.95932   0.00000  Uiso   1.00
H952   H     0.02645   0.39563   0.94199   0.00000  Uiso   1.00
F953   F     0.11042   0.53608   0.60793   0.00000  Uiso   1.00
F954   F     0.23069   0.45532   0.89324   0.00000  Uiso   1.00
C955   C     0.19207   0.49216   0.59208   0.00000  Uiso   1.00
O956   O     0.21048   0.50999   0.61798   0.00000  Uiso   1.00
O957   O     0.16878   0.45437   0.60483   0.00000  Uiso   1.00
H958   H     0.16889   0.44567   0.63625   0.00000  Uiso   1.00
C959   C     0.14609   0.49273   0.90579   0.00000  Uiso   1.00
O960   O     0.15502   0.52838   0.89375   0.00000  Uiso   1.00
O961   O     0.14196   0.46343   0.87415   0.00000  Uiso   1.00
H962   H     0.13972   0.43422   0.88608   0.00000  Uiso   1.00
C963   C     0.66664   0.42069   0.75003   0.00000  Uiso   1.00
C964   C     0.33335   0.57931   0.74998   0.00000  Uiso   1.00
C965   C     0.52809   0.50971   0.54662   0.00000  Uiso   1.00
C966   C     0.47327   0.48140   0.95371   0.00000  Uiso   1.00
C967   C     0.57029   0.53127   0.52250   0.00000  Uiso   1.00
C968   C     0.42826   0.46421   0.97838   0.00000  Uiso   1.00
C969   C     0.62406   0.35461   0.75017   0.00000  Uiso   1.00
C970   C     0.37592   0.64539   0.74987   0.00000  Uiso   1.00
C971   C     0.62408   0.64537   0.75013   0.00000  Uiso   1.00
C972   C     0.37591   0.35463   0.74990   0.00000  Uiso   1.00
C973   C     0.33335   0.62393   0.74999   0.00000  Uiso   1.00
C974   C     0.66665   0.37608   0.75004   0.00000  Uiso   1.00
C975   C     0.51803   0.47027   0.77248   0.00000  Uiso   1.00
C976   C     0.48214   0.52941   0.72697   0.00000  Uiso   1.00
C977   C     0.46838   0.47039   0.77267   0.00000  Uiso   1.00
C978   C     0.53171   0.52944   0.72703   0.00000  Uiso   1.00
C979   C     0.63923   0.50091   0.83598   0.00000  Uiso   1.00
C980   C     0.36077   0.49899   0.66401   0.00000  Uiso   1.00
C981   C     0.62364   0.50756   0.88442   0.00000  Uiso   1.00
C982   C     0.37628   0.49165   0.61566   0.00000  Uiso   1.00
C983   C     0.62905   0.54605   0.94926   0.00000  Uiso   1.00
C984   C     0.36650   0.45559   0.55089   0.00000  Uiso   1.00
C985   C     0.64722   0.53674   0.90392   0.00000  Uiso   1.00
C986   C     0.34880   0.46625   0.59584   0.00000  Uiso   1.00
C987   C     0.58067   0.48920   0.90993   0.00000  Uiso   1.00
C988   C     0.42203   0.50549   0.59060   0.00000  Uiso   1.00
C989   C     0.55762   0.50340   0.95354   0.00000  Uiso   1.00
C990   C     0.44346   0.49015   0.54707   0.00000  Uiso   1.00
C991   C     0.58546   0.52776   0.97529   0.00000  Uiso   1.00
C992   C     0.41324   0.46859   0.52541   0.00000  Uiso   1.00
C993   C     0.50831   0.49360   0.97647   0.00000  Uiso   1.00
C994   C     0.49311   0.49786   0.52386   0.00000  Uiso   1.00
Cu995  Cu    0.38022   0.50001   0.75000   0.00000  Uiso   1.00
Cu996  Cu    0.61978   0.49999   0.75000   0.00000  Uiso   1.00
H997   H     0.64681   0.45488   0.61501   0.00000  Uiso   1.00
H998   H     0.34651   0.55209   0.88416   0.00000  Uiso   1.00
H999   H     0.64934   0.56771   0.96347   0.00000  Uiso   1.00
H1000  H     0.34272   0.43791   0.53626   0.00000  Uiso   1.00
H1001  H     0.59076   0.37061   0.75030   0.00000  Uiso   1.00
H1002  H     0.40923   0.62939   0.74974   0.00000  Uiso   1.00
H1003  H     0.59080   0.62935   0.75022   0.00000  Uiso   1.00
H1004  H     0.40920   0.37065   0.74981   0.00000  Uiso   1.00
H1005  H     0.53129   0.44643   0.79049   0.00000  Uiso   1.00
H1006  H     0.46911   0.55290   0.70835   0.00000  Uiso   1.00
H1007  H     0.44422   0.44674   0.79103   0.00000  Uiso   1.00
H1008  H     0.55594   0.55296   0.70849   0.00000  Uiso   1.00
N1009  N     0.45069   0.50001   0.74999   0.00000  Uiso   1.00
N1010  N     0.54931   0.49999   0.75001   0.00000  Uiso   1.00
O1011  O     0.37291   0.43989   0.75000   0.00000  Uiso   1.00
O1012  O     0.62709   0.56011   0.75000   0.00000  Uiso   1.00
O1013  O     0.62706   0.43988   0.75001   0.00000  Uiso   1.00
O1014  O     0.37294   0.56012   0.75000   0.00000  Uiso   1.00
O1015  O     0.35186   0.50001   0.81491   0.00000  Uiso   1.00
O1016  O     0.64814   0.49999   0.68509   0.00000  Uiso   1.00
O1017  O     0.60600   0.50000   0.81492   0.00000  Uiso   1.00
O1018  O     0.39400   0.50000   0.68508   0.00000  Uiso   1.00
C1019  C     0.59947   0.55513   0.54688   0.00000  Uiso   1.00
O1020  O     0.58003   0.58289   0.57190   0.00000  Uiso   1.00
O1021  O     0.64848   0.54627   0.54225   0.00000  Uiso   1.00
H1022  H     0.66056   0.52204   0.52181   0.00000  Uiso   1.00
C1023  C     0.39431   0.44627   0.95487   0.00000  Uiso   1.00
O1024  O     0.37566   0.46819   0.93212   0.00000  Uiso   1.00
O1025  O     0.38348   0.40426   0.95932   0.00000  Uiso   1.00
H1026  H     0.35978   0.39563   0.94199   0.00000  Uiso   1.00
F1027  F     0.44375   0.53608   0.60793   0.00000  Uiso   1.00
F1028  F     0.56402   0.45532   0.89324   0.00000  Uiso   1.00
C1029  C     0.52541   0.49216   0.59208   0.00000  Uiso   1.00
O1030  O     0.54382   0.50999   0.61798   0.00000  Uiso   1.00
O1031  O     0.50211   0.45437   0.60483   0.00000  Uiso   1.00
H1032  H     0.50222   0.44567   0.63625   0.00000  Uiso   1.00
C1033  C     0.47942   0.49273   0.90579   0.00000  Uiso   1.00
O1034  O     0.48835   0.52838   0.89375   0.00000  Uiso   1.00
O1035  O     0.47530   0.46343   0.87415   0.00000  Uiso   1.00
H1036  H     0.47306   0.43422   0.88608   0.00000  Uiso   1.00
C1037  C     0.99998   0.42069   0.75003   0.00000  Uiso   1.00
C1038  C     0.66669   0.57931   0.74998   0.00000  Uiso   1.00
C1039  C     0.86143   0.50971   0.54662   0.00000  Uiso   1.00
C1040  C     0.80660   0.48140   0.95371   0.00000  Uiso   1.00
C1041  C     0.90362   0.53127   0.52250   0.00000  Uiso   1.00
C1042  C     0.76160   0.46421   0.97838   0.00000  Uiso   1.00
C1043  C     0.95740   0.35461   0.75017   0.00000  Uiso   1.00
C1044  C     0.70926   0.64539   0.74987   0.00000  Uiso   1.00
C1045  C     0.95742   0.64537   0.75013   0.00000  Uiso   1.00
C1046  C     0.70924   0.35463   0.74990   0.00000  Uiso   1.00
C1047  C     0.66668   0.62393   0.74999   0.00000  Uiso   1.00
C1048  C     0.99998   0.37608   0.75004   0.00000  Uiso   1.00
C1049  C     0.85136   0.47027   0.77248   0.00000  Uiso   1.00
C1050  C     0.81548   0.52941   0.72697   0.00000  Uiso   1.00
C1051  C     0.80172   0.47039   0.77267   0.00000  Uiso   1.00
C1052  C     0.86505   0.52944   0.72703   0.00000  Uiso   1.00
C1053  C     0.97256   0.50091   0.83598   0.00000  Uiso   1.00
C1054  C     0.69411   0.49899   0.66401   0.00000  Uiso   1.00
C1055  C     0.95698   0.50756   0.88442   0.00000  Uiso   1.00
C1056  C     0.70962   0.49165   0.61566   0.00000  Uiso   1.00
C1057  C     0.96239   0.54605   0.94926   0.00000  Uiso   1.00
C1058  C     0.69983   0.45559   0.55089   0.00000  Uiso   1.00
C1059  C     0.98055   0.53674   0.90392   0.00000  Uiso   1.00
C1060  C     0.68213   0.46625   0.59584   0.00000  Uiso   1.00
C1061  C     0.91401   0.48920   0.90993   0.00000  Uiso   1.00
C1062  C     0.75536   0.50549   0.59060   0.00000  Uiso   1.00
C1063  C     0.89096   0.50340   0.95354   0.00000  Uiso   1.00
C1064  C     0.77679   0.49015   0.54707   0.00000  Uiso   1.00
C1065  C     0.91879   0.52776   0.97529   0.00000  Uiso   1.00
C1066  C     0.74657   0.46859   0.52541   0.00000  Uiso   1.00
C1067  C     0.84164   0.49360   0.97647   0.00000  Uiso   1.00
C1068  C     0.82644   0.49786   0.52386   0.00000  Uiso   1.00
Cu1069 Cu    0.71355   0.50001   0.75000   0.00000  Uiso   1.00
Cu1070 Cu    0.95311   0.49999   0.75000   0.00000  Uiso   1.00
H1071  H     0.98014   0.45488   0.61501   0.00000  Uiso   1.00
H1072  H     0.67985   0.55209   0.88416   0.00000  Uiso   1.00
H1073  H     0.98267   0.56771   0.96347   0.00000  Uiso   1.00
H1074  H     0.67605   0.43791   0.53626   0.00000  Uiso   1.00
H1075  H     0.92409   0.37061   0.75030   0.00000  Uiso   1.00
H1076  H     0.74256   0.62939   0.74974   0.00000  Uiso   1.00
H1077  H     0.92413   0.62935   0.75022   0.00000  Uiso   1.00
H1078  H     0.74253   0.37065   0.74981   0.00000  Uiso   1.00
H1079  H     0.86462   0.44643   0.79049   0.00000  Uiso   1.00
H1080  H     0.80244   0.55290   0.70835   0.00000  Uiso   1.00
H1081  H     0.77755   0.44674   0.79103   0.00000  Uiso   1.00
H1082  H     0.88927   0.55296   0.70849   0.00000  Uiso   1.00
N1083  N     0.78403   0.50001   0.74999   0.00000  Uiso   1.00
N1084  N     0.88264   0.49999   0.75001   0.00000  Uiso   1.00
O1085  O     0.70625   0.43989   0.75000   0.00000  Uiso   1.00
O1086  O     0.96042   0.56011   0.75000   0.00000  Uiso   1.00
O1087  O     0.96039   0.43988   0.75001   0.00000  Uiso   1.00
O1088  O     0.70628   0.56012   0.75000   0.00000  Uiso   1.00
O1089  O     0.68519   0.50001   0.81491   0.00000  Uiso   1.00
O1090  O     0.98148   0.49999   0.68509   0.00000  Uiso   1.00
O1091  O     0.93933   0.50000   0.81492   0.00000  Uiso   1.00
O1092  O     0.72733   0.50000   0.68508   0.00000  Uiso   1.00
C1093  C     0.93280   0.55513   0.54688   0.00000  Uiso   1.00
O1094  O     0.91337   0.58289   0.57190   0.00000  Uiso   1.00
O1095  O     0.98181   0.54627   0.54225   0.00000  Uiso   1.00
H1096  H     0.99390   0.52204   0.52181   0.00000  Uiso   1.00
C1097  C     0.72764   0.44627   0.95487   0.00000  Uiso   1.00
O1098  O     0.70899   0.46819   0.93212   0.00000  Uiso   1.00
O1099  O     0.71681   0.40426   0.95932   0.00000  Uiso   1.00
H1100  H     0.69311   0.39563   0.94199   0.00000  Uiso   1.00
F1101  F     0.77708   0.53608   0.60793   0.00000  Uiso   1.00
F1102  F     0.89735   0.45532   0.89324   0.00000  Uiso   1.00
C1103  C     0.85874   0.49216   0.59208   0.00000  Uiso   1.00
O1104  O     0.87715   0.50999   0.61798   0.00000  Uiso   1.00
O1105  O     0.83544   0.45437   0.60483   0.00000  Uiso   1.00
H1106  H     0.83556   0.44567   0.63625   0.00000  Uiso   1.00
C1107  C     0.81276   0.49273   0.90579   0.00000  Uiso   1.00
O1108  O     0.82168   0.52838   0.89375   0.00000  Uiso   1.00
O1109  O     0.80863   0.46343   0.87415   0.00000  Uiso   1.00
H1110  H     0.80639   0.43422   0.88608   0.00000  Uiso   1.00
C1111  C     0.33331   0.75403   0.75003   0.00000  Uiso   1.00
C1112  C     0.00002   0.91264   0.74998   0.00000  Uiso   1.00
C1113  C     0.19476   0.84304   0.54662   0.00000  Uiso   1.00
C1114  C     0.13993   0.81473   0.95371   0.00000  Uiso   1.00
C1115  C     0.23695   0.86460   0.52250   0.00000  Uiso   1.00
C1116  C     0.09493   0.79755   0.97838   0.00000  Uiso   1.00
C1117  C     0.29073   0.68794   0.75017   0.00000  Uiso   1.00
C1118  C     0.04259   0.97873   0.74987   0.00000  Uiso   1.00
C1119  C     0.29075   0.97871   0.75013   0.00000  Uiso   1.00
C1120  C     0.04257   0.68796   0.74990   0.00000  Uiso   1.00
C1121  C     0.00001   0.95726   0.74999   0.00000  Uiso   1.00
C1122  C     0.33331   0.70941   0.75004   0.00000  Uiso   1.00
C1123  C     0.18470   0.80360   0.77248   0.00000  Uiso   1.00
C1124  C     0.14881   0.86275   0.72697   0.00000  Uiso   1.00
C1125  C     0.13505   0.80372   0.77267   0.00000  Uiso   1.00
C1126  C     0.19838   0.86277   0.72703   0.00000  Uiso   1.00
C1127  C     0.30590   0.83424   0.83598   0.00000  Uiso   1.00
C1128  C     0.02744   0.83233   0.66401   0.00000  Uiso   1.00
C1129  C     0.29031   0.84089   0.88442   0.00000  Uiso   1.00
C1130  C     0.04295   0.82498   0.61566   0.00000  Uiso   1.00
C1131  C     0.29572   0.87938   0.94926   0.00000  Uiso   1.00
C1132  C     0.03317   0.78892   0.55089   0.00000  Uiso   1.00
C1133  C     0.31389   0.87008   0.90392   0.00000  Uiso   1.00
C1134  C     0.01547   0.79958   0.59584   0.00000  Uiso   1.00
C1135  C     0.24734   0.82253   0.90993   0.00000  Uiso   1.00
C1136  C     0.08870   0.83883   0.59060   0.00000  Uiso   1.00
C1137  C     0.22429   0.83673   0.95354   0.00000  Uiso   1.00
C1138  C     0.11012   0.82348   0.54707   0.00000  Uiso   1.00
C1139  C     0.25213   0.86109   0.97529   0.00000  Uiso   1.00
C1140  C     0.07990   0.80192   0.52541   0.00000  Uiso   1.00
C1141  C     0.17498   0.82693   0.97647   0.00000  Uiso   1.00
C1142  C     0.15978   0.83119   0.52386   0.00000  Uiso   1.00
Cu1143 Cu    0.04689   0.83334   0.75000   0.00000  Uiso   1.00
Cu1144 Cu    0.28645   0.83333   0.75000   0.00000  Uiso   1.00
H1145  H     0.31348   0.78821   0.61501   0.00000  Uiso   1.00
H1146  H     0.01318   0.88542   0.88416   0.00000  Uiso   1.00
H1147  H     0.31600   0.90105   0.96347   0.00000  Uiso   1.00
H1148  H     0.00939   0.77124   0.53626   0.00000  Uiso   1.00
H1149  H     0.25743   0.70395   0.75030   0.00000  Uiso   1.00
H1150  H     0.07590   0.96272   0.74974   0.00000  Uiso   1.00
H1151  H     0.25746   0.96269   0.75022   0.00000  Uiso   1.00
H1152  H     0.07586   0.70398   0.74981   0.00000  Uiso   1.00
H1153  H     0.19796   0.77976   0.79049   0.00000  Uiso   1.00
H1154  H     0.13577   0.88623   0.70835   0.00000  Uiso   1.00
H1155  H     0.11089   0.78008   0.79103   0.00000  Uiso   1.00
H1156  H     0.22261   0.88629   0.70849   0.00000  Uiso   1.00
N1157  N     0.11736   0.83334   0.74999   0.00000  Uiso   1.00
N1158  N     0.21597   0.83332   0.75001   0.00000  Uiso   1.00
O1159  O     0.03958   0.77322   0.75000   0.00000  Uiso   1.00
O1160  O     0.29375   0.89345   0.75000   0.00000  Uiso   1.00
O1161  O     0.29372   0.77321   0.75001   0.00000  Uiso   1.00
O1162  O     0.03961   0.89346   0.75000   0.00000  Uiso   1.00
O1163  O     0.01852   0.83334   0.81491   0.00000  Uiso   1.00
O1164  O     0.31481   0.83332   0.68509   0.00000  Uiso   1.00
O1165  O     0.27267   0.83333   0.81492   0.00000  Uiso   1.00
O1166  O     0.06067   0.83333   0.68508   0.00000  Uiso   1.00
C1167  C     0.26613   0.88846   0.54688   0.00000  Uiso   1.00
O1168  O     0.24670   0.91622   0.57190   0.00000  Uiso   1.00
O1169  O     0.31514   0.87961   0.54225   0.00000  Uiso   1.00
H1170  H     0.32723   0.85538   0.52181   0.00000  Uiso   1.00
C1171  C     0.06097   0.77960   0.95487   0.00000  Uiso   1.00
O1172  O     0.04232   0.80152   0.93212   0.00000  Uiso   1.00
O1173  O     0.05014   0.73760   0.95932   0.00000  Uiso   1.00
H1174  H     0.02645   0.72896   0.94199   0.00000  Uiso   1.00
F1175  F     0.11042   0.86942   0.60793   0.00000  Uiso   1.00
F1176  F     0.23069   0.78866   0.89324   0.00000  Uiso   1.00
C1177  C     0.19207   0.82549   0.59208   0.00000  Uiso   1.00
O1178  O     0.21048   0.84333   0.61798   0.00000  Uiso   1.00
O1179  O     0.16878   0.78770   0.60483   0.00000  Uiso   1.00
H1180  H     0.16889   0.77901   0.63625   0.00000  Uiso   1.00
C1181  C     0.14609   0.82606   0.90579   0.00000  Uiso   1.00
O1182  O     0.15502   0.86171   0.89375   0.00000  Uiso   1.00
O1183  O     0.14196   0.79676   0.87415   0.00000  Uiso   1.00
H1184  H     0.13972   0.76756   0.88608   0.00000  Uiso   1.00
C1185  C     0.66664   0.75403   0.75003   0.00000  Uiso   1.00
C1186  C     0.33335   0.91264   0.74998   0.00000  Uiso   1.00
C1187  C     0.52809   0.84304   0.54662   0.00000  Uiso   1.00
C1188  C     0.47327   0.81473   0.95371   0.00000  Uiso   1.00
C1189  C     0.57029   0.86460   0.52250   0.00000  Uiso   1.00
C1190  C     0.42826   0.79755   0.97838   0.00000  Uiso   1.00
C1191  C     0.62406   0.68794   0.75017   0.00000  Uiso   1.00
C1192  C     0.37592   0.97873   0.74987   0.00000  Uiso   1.00
C1193  C     0.62408   0.97871   0.75013   0.00000  Uiso   1.00
C1194  C     0.37591   0.68796   0.74990   0.00000  Uiso   1.00
C1195  C     0.33335   0.95726   0.74999   0.00000  Uiso   1.00
C1196  C     0.66665   0.70941   0.75004   0.00000  Uiso   1.00
C1197  C     0.51803   0.80360   0.77248   0.00000  Uiso   1.00
C1198  C     0.48214   0.86275   0.72697   0.00000  Uiso   1.00
C1199  C     0.46838   0.80372   0.77267   0.00000  Uiso   1.00
C1200  C     0.53171   0.86277   0.72703   0.00000  Uiso   1.00
C1201  C     0.63923   0.83424   0.83598   0.00000  Uiso   1.00
C1202  C     0.36077   0.83233   0.66401   0.00000  Uiso   1.00
C1203  C     0.62364   0.84089   0.88442   0.00000  Uiso   1.00
C1204  C     0.37628   0.82498   0.61566   0.00000  Uiso   1.00
C1205  C     0.62905   0.87938   0.94926   0.00000  Uiso   1.00
C1206  C     0.36650   0.78892   0.55089   0.00000  Uiso   1.00
C1207  C     0.64722   0.87008   0.90392   0.00000  Uiso   1.00
C1208  C     0.34880   0.79958   0.59584   0.00000  Uiso   1.00
C1209  C     0.58067   0.82253   0.90993   0.00000  Uiso   1.00
C1210  C     0.42203   0.83883   0.59060   0.00000  Uiso   1.00
C1211  C     0.55762   0.83673   0.95354   0.00000  Uiso   1.00
C1212  C     0.44346   0.82348   0.54707   0.00000  Uiso   1.00
C1213  C     0.58546   0.86109   0.97529   0.00000  Uiso   1.00
C1214  C     0.41324   0.80192   0.52541   0.00000  Uiso   1.00
C1215  C     0.50831   0.82693   0.97647   0.00000  Uiso   1.00
C1216  C     0.49311   0.83119   0.52386   0.00000  Uiso   1.00
Cu1217 Cu    0.38022   0.83334   0.75000   0.00000  Uiso   1.00
Cu1218 Cu    0.61978   0.83333   0.75000   0.00000  Uiso   1.00
H1219  H     0.64681   0.78821   0.61501   0.00000  Uiso   1.00
H1220  H     0.34651   0.88542   0.88416   0.00000  Uiso   1.00
H1221  H     0.64934   0.90105   0.96347   0.00000  Uiso   1.00
H1222  H     0.34272   0.77124   0.53626   0.00000  Uiso   1.00
H1223  H     0.59076   0.70395   0.75030   0.00000  Uiso   1.00
H1224  H     0.40923   0.96272   0.74974   0.00000  Uiso   1.00
H1225  H     0.59080   0.96269   0.75022   0.00000  Uiso   1.00
H1226  H     0.40920   0.70398   0.74981   0.00000  Uiso   1.00
H1227  H     0.53129   0.77976   0.79049   0.00000  Uiso   1.00
H1228  H     0.46911   0.88623   0.70835   0.00000  Uiso   1.00
H1229  H     0.44422   0.78008   0.79103   0.00000  Uiso   1.00
H1230  H     0.55594   0.88629   0.70849   0.00000  Uiso   1.00
N1231  N     0.45069   0.83334   0.74999   0.00000  Uiso   1.00
N1232  N     0.54931   0.83332   0.75001   0.00000  Uiso   1.00
O1233  O     0.37291   0.77322   0.75000   0.00000  Uiso   1.00
O1234  O     0.62709   0.89345   0.75000   0.00000  Uiso   1.00
O1235  O     0.62706   0.77321   0.75001   0.00000  Uiso   1.00
O1236  O     0.37294   0.89346   0.75000   0.00000  Uiso   1.00
O1237  O     0.35186   0.83334   0.81491   0.00000  Uiso   1.00
O1238  O     0.64814   0.83332   0.68509   0.00000  Uiso   1.00
O1239  O     0.60600   0.83333   0.81492   0.00000  Uiso   1.00
O1240  O     0.39400   0.83333   0.68508   0.00000  Uiso   1.00
C1241  C     0.59947   0.88846   0.54688   0.00000  Uiso   1.00
O1242  O     0.58003   0.91622   0.57190   0.00000  Uiso   1.00
O1243  O     0.64848   0.87961   0.54225   0.00000  Uiso   1.00
H1244  H     0.66056   0.85538   0.52181   0.00000  Uiso   1.00
C1245  C     0.39431   0.77960   0.95487   0.00000  Uiso   1.00
O1246  O     0.37566   0.80152   0.93212   0.00000  Uiso   1.00
O1247  O     0.38348   0.73760   0.95932   0.00000  Uiso   1.00
H1248  H     0.35978   0.72896   0.94199   0.00000  Uiso   1.00
F1249  F     0.44375   0.86942   0.60793   0.00000  Uiso   1.00
F1250  F     0.56402   0.78866   0.89324   0.00000  Uiso   1.00
C1251  C     0.52541   0.82549   0.59208   0.00000  Uiso   1.00
O1252  O     0.54382   0.84333   0.61798   0.00000  Uiso   1.00
O1253  O     0.50211   0.78770   0.60483   0.00000  Uiso   1.00
H1254  H     0.50222   0.77901   0.63625   0.00000  Uiso   1.00
C1255  C     0.47942   0.82606   0.90579   0.00000  Uiso   1.00
O1256  O     0.48835   0.86171   0.89375   0.00000  Uiso   1.00
O1257  O     0.47530   0.79676   0.87415   0.00000  Uiso   1.00
H1258  H     0.47306   0.76756   0.88608   0.00000  Uiso   1.00
C1259  C     0.99998   0.75403   0.75003   0.00000  Uiso   1.00
C1260  C     0.66669   0.91264   0.74998   0.00000  Uiso   1.00
C1261  C     0.86143   0.84304   0.54662   0.00000  Uiso   1.00
C1262  C     0.80660   0.81473   0.95371   0.00000  Uiso   1.00
C1263  C     0.90362   0.86460   0.52250   0.00000  Uiso   1.00
C1264  C     0.76160   0.79755   0.97838   0.00000  Uiso   1.00
C1265  C     0.95740   0.68794   0.75017   0.00000  Uiso   1.00
C1266  C     0.70926   0.97873   0.74987   0.00000  Uiso   1.00
C1267  C     0.95742   0.97871   0.75013   0.00000  Uiso   1.00
C1268  C     0.70924   0.68796   0.74990   0.00000  Uiso   1.00
C1269  C     0.66668   0.95726   0.74999   0.00000  Uiso   1.00
C1270  C     0.99998   0.70941   0.75004   0.00000  Uiso   1.00
C1271  C     0.85136   0.80360   0.77248   0.00000  Uiso   1.00
C1272  C     0.81548   0.86275   0.72697   0.00000  Uiso   1.00
C1273  C     0.80172   0.80372   0.77267   0.00000  Uiso   1.00
C1274  C     0.86505   0.86277   0.72703   0.00000  Uiso   1.00
C1275  C     0.97256   0.83424   0.83598   0.00000  Uiso   1.00
C1276  C     0.69411   0.83233   0.66401   0.00000  Uiso   1.00
C1277  C     0.95698   0.84089   0.88442   0.00000  Uiso   1.00
C1278  C     0.70962   0.82498   0.61566   0.00000  Uiso   1.00
C1279  C     0.96239   0.87938   0.94926   0.00000  Uiso   1.00
C1280  C     0.69983   0.78892   0.55089   0.00000  Uiso   1.00
C1281  C     0.98055   0.87008   0.90392   0.00000  Uiso   1.00
C1282  C     0.68213   0.79958   0.59584   0.00000  Uiso   1.00
C1283  C     0.91401   0.82253   0.90993   0.00000  Uiso   1.00
C1284  C     0.75536   0.83883   0.59060   0.00000  Uiso   1.00
C1285  C     0.89096   0.83673   0.95354   0.00000  Uiso   1.00
C1286  C     0.77679   0.82348   0.54707   0.00000  Uiso   1.00
C1287  C     0.91879   0.86109   0.97529   0.00000  Uiso   1.00
C1288  C     0.74657   0.80192   0.52541   0.00000  Uiso   1.00
C1289  C     0.84164   0.82693   0.97647   0.00000  Uiso   1.00
C1290  C     0.82644   0.83119   0.52386   0.00000  Uiso   1.00
Cu1291 Cu    0.71355   0.83334   0.75000   0.00000  Uiso   1.00
Cu1292 Cu    0.95311   0.83333   0.75000   0.00000  Uiso   1.00
H1293  H     0.98014   0.78821   0.61501   0.00000  Uiso   1.00
H1294  H     0.67985   0.88542   0.88416   0.00000  Uiso   1.00
H1295  H     0.98267   0.90105   0.96347   0.00000  Uiso   1.00
H1296  H     0.67605   0.77124   0.53626   0.00000  Uiso   1.00
H1297  H     0.92409   0.70395   0.75030   0.00000  Uiso   1.00
H1298  H     0.74256   0.96272   0.74974   0.00000  Uiso   1.00
H1299  H     0.92413   0.96269   0.75022   0.00000  Uiso   1.00
H1300  H     0.74253   0.70398   0.74981   0.00000  Uiso   1.00
H1301  H     0.86462   0.77976   0.79049   0.00000  Uiso   1.00
H1302  H     0.80244   0.88623   0.70835   0.00000  Uiso   1.00
H1303  H     0.77755   0.78008   0.79103   0.00000  Uiso   1.00
H1304  H     0.88927   0.88629   0.70849   0.00000  Uiso   1.00
N1305  N     0.78403   0.83334   0.74999   0.00000  Uiso   1.00
N1306  N     0.88264   0.83332   0.75001   0.00000  Uiso   1.00
O1307  O     0.70625   0.77322   0.75000   0.00000  Uiso   1.00
O1308  O     0.96042   0.89345   0.75000   0.00000  Uiso   1.00
O1309  O     0.96039   0.77321   0.75001   0.00000  Uiso   1.00
O1310  O     0.70628   0.89346   0.75000   0.00000  Uiso   1.00
O1311  O     0.68519   0.83334   0.81491   0.00000  Uiso   1.00
O1312  O     0.98148   0.83332   0.68509   0.00000  Uiso   1.00
O1313  O     0.93933   0.83333   0.81492   0.00000  Uiso   1.00
O1314  O     0.72733   0.83333   0.68508   0.00000  Uiso   1.00
C1315  C     0.93280   0.88846   0.54688   0.00000  Uiso   1.00
O1316  O     0.91337   0.91622   0.57190   0.00000  Uiso   1.00
O1317  O     0.98181   0.87961   0.54225   0.00000  Uiso   1.00
H1318  H     0.99390   0.85538   0.52181   0.00000  Uiso   1.00
C1319  C     0.72764   0.77960   0.95487   0.00000  Uiso   1.00
O1320  O     0.70899   0.80152   0.93212   0.00000  Uiso   1.00
O1321  O     0.71681   0.73760   0.95932   0.00000  Uiso   1.00
H1322  H     0.69311   0.72896   0.94199   0.00000  Uiso   1.00
F1323  F     0.77708   0.86942   0.60793   0.00000  Uiso   1.00
F1324  F     0.89735   0.78866   0.89324   0.00000  Uiso   1.00
C1325  C     0.85874   0.82549   0.59208   0.00000  Uiso   1.00
O1326  O     0.87715   0.84333   0.61798   0.00000  Uiso   1.00
O1327  O     0.83544   0.78770   0.60483   0.00000  Uiso   1.00
H1328  H     0.83556   0.77901   0.63625   0.00000  Uiso   1.00
C1329  C     0.81276   0.82606   0.90579   0.00000  Uiso   1.00
O1330  O     0.82168   0.86171   0.89375   0.00000  Uiso   1.00
O1331  O     0.80863   0.79676   0.87415   0.00000  Uiso   1.00
H1332  H     0.80639   0.76756   0.88608   0.00000  Uiso   1.00
loop_
_geom_bond_atom_site_label_1
_geom_bond_atom_site_label_2
_geom_bond_distance
_geom_bond_site_symmetry_2
_ccdc_geom_bond_type
C1     C12     1.450   .     S
C1     O51     1.291   .     A
C1     O123    1.291   .     S
C2     C11     1.450   .     S
C2     O52     1.291   .     A
C2     O198    1.291   1_455 S
C3     C32     1.427   .     A
C3     C67     1.500   .     S
C3     C5      1.414   .     A
C4     C6      1.415   .     A
C4     C31     1.432   .     A
C4     C71     1.491   .     S
C5     C57     1.490   .     S
C5     C695    1.411   1_554 S
C6     C61     1.485   .     S
C6     C696    1.409   .     S
C7     C12     1.401   .     A
C7     H39     1.083   .     S
C7     C453    1.383   1_545 S
C8     C11     1.401   .     A
C8     H40     1.083   .     S
C8     C232    1.383   .     S
C9     H41     1.083   .     S
C9     C229    1.383   .     S
C9     C85     1.401   .     S
C10    H42     1.083   .     S
C10    C452    1.383   1_545 S
C10    C160    1.401   1_455 S
C11    C157    1.401   1_455 S
C12    C84     1.401   .     S
C13    C15     1.417   .     A
C13    H43     1.081   .     S
C13    N48     1.366   .     A
C14    C16     1.417   .     A
C14    H44     1.082   .     S
C14    N47     1.367   .     A
C15    N47     1.367   .     A
C15    H45     1.082   .     S
C16    N48     1.367   .     A
C16    H46     1.082   .     S
C17    O55     1.293   .     A
C17    C19     1.460   .     S
C17    O127    1.295   .     S
C18    O56     1.293   .     A
C18    C20     1.461   .     S
C18    O202    1.295   1_455 S
C19    C23     1.396   .     A
C19    C25     1.395   .     A
C20    C24     1.395   .     A
C20    C26     1.396   .     A
C21    C29     1.412   .     A
C21    C23     1.391   .     A
C21    H37     1.081   .     S
C22    H38     1.081   .     S
C22    C24     1.390   .     A
C22    C30     1.414   .     A
C23    H110    1.084   .     S
C24    H183    1.084   1_455 S
C25    F66     1.359   .     S
C25    C27     1.409   .     A
C26    F65     1.360   .     S
C26    C28     1.411   .     A
C27    C29     1.419   .     A
C27    C31     1.426   .     A
C28    C32     1.423   .     A
C28    C30     1.418   .     A
C29    C671    1.411   .     S
C30    C672    1.409   1_554 S
C31    C698    1.419   .     S
C32    C697    1.419   1_554 S
Cu33   O52     1.965   .     S
Cu33   O49     1.965   .     S
Cu33   O56     1.941   .     S
Cu33   O53     1.950   .     S
Cu33   N47     2.013   .     S
Cu33   Cu182   2.679   1_455 S
Cu34   O51     1.965   .     S
Cu34   O50     1.965   .     S
Cu34   O54     1.950   .     S
Cu34   N48     2.013   .     S
Cu34   O55     1.941   .     S
Cu34   Cu107   2.679   .     S
H35    C98     1.084   .     S
H36    C171    1.084   1_455 S
O49    C149    1.291   1_455 S
O50    C76     1.291   .     S
O53    C165    1.295   1_455 S
O54    C92     1.295   .     S
C57    O59     1.397   .     S
C57    O58     1.221   .     D
O59    H60     1.012   .     S
C61    O63     1.397   .     S
C61    O62     1.222   .     D
O63    H64     1.014   .     S
C67    O68     1.222   .     D
C67    O69     1.399   .     S
O69    H70     1.014   .     S
C71    O73     1.398   .     S
C71    O72     1.221   .     D
O73    H74     1.013   .     S
C75    C86     1.450   .     S
C75    O125    1.291   .     A
C75    O197    1.291   .     S
C76    C85     1.450   .     S
C76    O126    1.291   .     A
C77    C106    1.427   .     A
C77    C141    1.500   .     S
C77    C79     1.414   .     A
C78    C80     1.415   .     A
C78    C105    1.432   .     A
C78    C145    1.491   .     S
C79    C131    1.490   .     S
C79    C769    1.411   1_554 S
C80    C135    1.485   .     S
C80    C770    1.409   .     S
C81    C86     1.401   .     A
C81    H113    1.083   .     S
C81    C527    1.383   1_545 S
C82    C85     1.401   .     A
C82    H114    1.083   .     S
C82    C306    1.383   .     S
C83    H115    1.083   .     S
C83    C303    1.383   .     S
C83    C159    1.401   .     S
C84    H116    1.083   .     S
C84    C526    1.383   1_545 S
C86    C158    1.401   .     S
C87    C89     1.417   .     A
C87    H117    1.081   .     S
C87    N122    1.366   .     A
C88    C90     1.417   .     A
C88    H118    1.082   .     S
C88    N121    1.367   .     A
C89    N121    1.367   .     A
C89    H119    1.082   .     S
C90    N122    1.367   .     A
C90    H120    1.082   .     S
C91    O129    1.293   .     A
C91    C93     1.460   .     S
C91    O201    1.295   .     S
C92    O130    1.293   .     A
C92    C94     1.461   .     S
C93    C97     1.396   .     A
C93    C99     1.395   .     A
C94    C98     1.395   .     A
C94    C100    1.396   .     A
C95    C103    1.412   .     A
C95    C97     1.391   .     A
C95    H111    1.081   .     S
C96    H112    1.081   .     S
C96    C98     1.390   .     A
C96    C104    1.414   .     A
C97    H184    1.084   .     S
C99    F140    1.359   .     S
C99    C101    1.409   .     A
C100   F139    1.360   .     S
C100   C102    1.411   .     A
C101   C103    1.419   .     A
C101   C105    1.426   .     A
C102   C106    1.423   .     A
C102   C104    1.418   .     A
C103   C745    1.411   .     S
C104   C746    1.409   1_554 S
C105   C772    1.419   .     S
C106   C771    1.419   1_554 S
Cu107  O126    1.965   .     S
Cu107  O123    1.965   .     S
Cu107  O130    1.941   .     S
Cu107  O127    1.950   .     S
Cu107  N121    2.013   .     S
Cu108  O125    1.965   .     S
Cu108  O124    1.965   .     S
Cu108  O128    1.950   .     S
Cu108  N122    2.013   .     S
Cu108  O129    1.941   .     S
Cu108  Cu181   2.679   .     S
H109   C172    1.084   .     S
O124   C150    1.291   .     S
O128   C166    1.295   .     S
C131   O133    1.397   .     S
C131   O132    1.221   .     D
O133   H134    1.012   .     S
C135   O137    1.397   .     S
C135   O136    1.222   .     D
O137   H138    1.014   .     S
C141   O142    1.222   .     D
C141   O143    1.399   .     S
O143   H144    1.014   .     S
C145   O147    1.398   .     S
C145   O146    1.221   .     D
O147   H148    1.013   .     S
C149   C160    1.450   .     S
C149   O199    1.291   .     A
C149   O49     1.291   1_655 S
C150   C159    1.450   .     S
C150   O200    1.291   .     A
C151   C180    1.427   .     A
C151   C215    1.500   .     S
C151   C153    1.414   .     A
C152   C154    1.415   .     A
C152   C179    1.432   .     A
C152   C219    1.491   .     S
C153   C205    1.490   .     S
C153   C843    1.411   1_554 S
C154   C209    1.485   .     S
C154   C844    1.409   .     S
C155   C160    1.401   .     A
C155   H187    1.083   .     S
C155   C601    1.383   1_545 S
C156   C159    1.401   .     A
C156   H188    1.083   .     S
C156   C380    1.383   .     S
C157   H189    1.083   .     S
C157   C377    1.383   .     S
C157   C11     1.401   1_655 S
C158   H190    1.083   .     S
C158   C600    1.383   1_545 S
C160   C10     1.401   1_655 S
C161   C163    1.417   .     A
C161   H191    1.081   .     S
C161   N196    1.366   .     A
C162   C164    1.417   .     A
C162   H192    1.082   .     S
C162   N195    1.367   .     A
C163   N195    1.367   .     A
C163   H193    1.082   .     S
C164   N196    1.367   .     A
C164   H194    1.082   .     S
C165   O203    1.293   .     A
C165   C167    1.460   .     S
C165   O53     1.295   1_655 S
C166   O204    1.293   .     A
C166   C168    1.461   .     S
C167   C171    1.396   .     A
C167   C173    1.395   .     A
C168   C172    1.395   .     A
C168   C174    1.396   .     A
C169   C177    1.412   .     A
C169   C171    1.391   .     A
C169   H185    1.081   .     S
C170   H186    1.081   .     S
C170   C172    1.390   .     A
C170   C178    1.414   .     A
C171   H36     1.084   1_655 S
C173   F214    1.359   .     S
C173   C175    1.409   .     A
C174   F213    1.360   .     S
C174   C176    1.411   .     A
C175   C177    1.419   .     A
C175   C179    1.426   .     A
C176   C180    1.423   .     A
C176   C178    1.418   .     A
C177   C819    1.411   .     S
C178   C820    1.409   1_554 S
C179   C846    1.419   .     S
C180   C845    1.419   1_554 S
Cu181  O200    1.965   .     S
Cu181  O197    1.965   .     S
Cu181  O204    1.941   .     S
Cu181  O201    1.950   .     S
Cu181  N195    2.013   .     S
Cu182  O199    1.965   .     S
Cu182  O198    1.965   .     S
Cu182  O202    1.950   .     S
Cu182  N196    2.013   .     S
Cu182  O203    1.941   .     S
Cu182  Cu33    2.679   1_655 S
H183   C24     1.084   1_655 S
O198   C2      1.291   1_655 S
O202   C18     1.295   1_655 S
C205   O207    1.397   .     S
C205   O206    1.221   .     D
O207   H208    1.012   .     S
C209   O211    1.397   .     S
C209   O210    1.222   .     D
O211   H212    1.014   .     S
C215   O216    1.222   .     D
C215   O217    1.399   .     S
O217   H218    1.014   .     S
C219   O221    1.398   .     S
C219   O220    1.221   .     D
O221   H222    1.013   .     S
C223   C234    1.450   .     S
C223   O273    1.291   .     A
C223   O345    1.291   .     S
C224   C233    1.450   .     S
C224   O274    1.291   .     A
C224   O420    1.291   1_455 S
C225   C254    1.427   .     A
C225   C289    1.500   .     S
C225   C227    1.414   .     A
C226   C228    1.415   .     A
C226   C253    1.432   .     A
C226   C293    1.491   .     S
C227   C279    1.490   .     S
C227   C917    1.411   1_554 S
C228   C283    1.485   .     S
C228   C918    1.409   .     S
C229   C234    1.401   .     A
C229   H261    1.083   .     S
C230   C233    1.401   .     A
C230   H262    1.083   .     S
C230   C454    1.383   .     S
C231   H263    1.083   .     S
C231   C451    1.383   .     S
C231   C307    1.401   .     S
C232   H264    1.083   .     S
C232   C382    1.401   1_455 S
C233   C379    1.401   1_455 S
C234   C306    1.401   .     S
C235   C237    1.417   .     A
C235   H265    1.081   .     S
C235   N270    1.366   .     A
C236   C238    1.417   .     A
C236   H266    1.082   .     S
C236   N269    1.367   .     A
C237   N269    1.367   .     A
C237   H267    1.082   .     S
C238   N270    1.367   .     A
C238   H268    1.082   .     S
C239   O277    1.293   .     A
C239   C241    1.460   .     S
C239   O349    1.295   .     S
C240   O278    1.293   .     A
C240   C242    1.461   .     S
C240   O424    1.295   1_455 S
C241   C245    1.396   .     A
C241   C247    1.395   .     A
C242   C246    1.395   .     A
C242   C248    1.396   .     A
C243   C251    1.412   .     A
C243   C245    1.391   .     A
C243   H259    1.081   .     S
C244   H260    1.081   .     S
C244   C246    1.390   .     A
C244   C252    1.414   .     A
C245   H332    1.084   .     S
C246   H405    1.084   1_455 S
C247   F288    1.359   .     S
C247   C249    1.409   .     A
C248   F287    1.360   .     S
C248   C250    1.411   .     A
C249   C251    1.419   .     A
C249   C253    1.426   .     A
C250   C254    1.423   .     A
C250   C252    1.418   .     A
C251   C893    1.411   .     S
C252   C894    1.409   1_554 S
C253   C920    1.419   .     S
C254   C919    1.419   1_554 S
Cu255  O274    1.965   .     S
Cu255  O271    1.965   .     S
Cu255  O278    1.941   .     S
Cu255  O275    1.950   .     S
Cu255  N269    2.013   .     S
Cu255  Cu404   2.679   1_455 S
Cu256  O273    1.965   .     S
Cu256  O272    1.965   .     S
Cu256  O276    1.950   .     S
Cu256  N270    2.013   .     S
Cu256  O277    1.941   .     S
Cu256  Cu329   2.679   .     S
H257   C320    1.084   .     S
H258   C393    1.084   1_455 S
O271   C371    1.291   1_455 S
O272   C298    1.291   .     S
O275   C387    1.295   1_455 S
O276   C314    1.295   .     S
C279   O281    1.397   .     S
C279   O280    1.221   .     D
O281   H282    1.012   .     S
C283   O285    1.397   .     S
C283   O284    1.222   .     D
O285   H286    1.014   .     S
C289   O290    1.222   .     D
C289   O291    1.399   .     S
O291   H292    1.014   .     S
C293   O295    1.398   .     S
C293   O294    1.221   .     D
O295   H296    1.013   .     S
C297   C308    1.450   .     S
C297   O347    1.291   .     A
C297   O419    1.291   .     S
C298   C307    1.450   .     S
C298   O348    1.291   .     A
C299   C328    1.427   .     A
C299   C363    1.500   .     S
C299   C301    1.414   .     A
C300   C302    1.415   .     A
C300   C327    1.432   .     A
C300   C367    1.491   .     S
C301   C353    1.490   .     S
C301   C991    1.411   1_554 S
C302   C357    1.485   .     S
C302   C992    1.409   .     S
C303   C308    1.401   .     A
C303   H335    1.083   .     S
C304   C307    1.401   .     A
C304   H336    1.083   .     S
C304   C528    1.383   .     S
C305   H337    1.083   .     S
C305   C525    1.383   .     S
C305   C381    1.401   .     S
C306   H338    1.083   .     S
C308   C380    1.401   .     S
C309   C311    1.417   .     A
C309   H339    1.081   .     S
C309   N344    1.366   .     A
C310   C312    1.417   .     A
C310   H340    1.082   .     S
C310   N343    1.367   .     A
C311   N343    1.367   .     A
C311   H341    1.082   .     S
C312   N344    1.367   .     A
C312   H342    1.082   .     S
C313   O351    1.293   .     A
C313   C315    1.460   .     S
C313   O423    1.295   .     S
C314   O352    1.293   .     A
C314   C316    1.461   .     S
C315   C319    1.396   .     A
C315   C321    1.395   .     A
C316   C320    1.395   .     A
C316   C322    1.396   .     A
C317   C325    1.412   .     A
C317   C319    1.391   .     A
C317   H333    1.081   .     S
C318   H334    1.081   .     S
C318   C320    1.390   .     A
C318   C326    1.414   .     A
C319   H406    1.084   .     S
C321   F362    1.359   .     S
C321   C323    1.409   .     A
C322   F361    1.360   .     S
C322   C324    1.411   .     A
C323   C325    1.419   .     A
C323   C327    1.426   .     A
C324   C328    1.423   .     A
C324   C326    1.418   .     A
C325   C967    1.411   .     S
C326   C968    1.409   1_554 S
C327   C994    1.419   .     S
C328   C993    1.419   1_554 S
Cu329  O348    1.965   .     S
Cu329  O345    1.965   .     S
Cu329  O352    1.941   .     S
Cu329  O349    1.950   .     S
Cu329  N343    2.013   .     S
Cu330  O347    1.965   .     S
Cu330  O346    1.965   .     S
Cu330  O350    1.950   .     S
Cu330  N344    2.013   .     S
Cu330  O351    1.941   .     S
Cu330  Cu403   2.679   .     S
H331   C394    1.084   .     S
O346   C372    1.291   .     S
O350   C388    1.295   .     S
C353   O355    1.397   .     S
C353   O354    1.221   .     D
O355   H356    1.012   .     S
C357   O359    1.397   .     S
C357   O358    1.222   .     D
O359   H360    1.014   .     S
C363   O364    1.222   .     D
C363   O365    1.399   .     S
O365   H366    1.014   .     S
C367   O369    1.398   .     S
C367   O368    1.221   .     D
O369   H370    1.013   .     S
C371   C382    1.450   .     S
C371   O421    1.291   .     A
C371   O271    1.291   1_655 S
C372   C381    1.450   .     S
C372   O422    1.291   .     A
C373   C402    1.427   .     A
C373   C437    1.500   .     S
C373   C375    1.414   .     A
C374   C376    1.415   .     A
C374   C401    1.432   .     A
C374   C441    1.491   .     S
C375   C427    1.490   .     S
C375   C1065   1.411   1_554 S
C376   C431    1.485   .     S
C376   C1066   1.409   .     S
C377   C382    1.401   .     A
C377   H409    1.083   .     S
C378   C381    1.401   .     A
C378   H410    1.083   .     S
C378   C602    1.383   .     S
C379   H411    1.083   .     S
C379   C599    1.383   .     S
C379   C233    1.401   1_655 S
C380   H412    1.083   .     S
C382   C232    1.401   1_655 S
C383   C385    1.417   .     A
C383   H413    1.081   .     S
C383   N418    1.366   .     A
C384   C386    1.417   .     A
C384   H414    1.082   .     S
C384   N417    1.367   .     A
C385   N417    1.367   .     A
C385   H415    1.082   .     S
C386   N418    1.367   .     A
C386   H416    1.082   .     S
C387   O425    1.293   .     A
C387   C389    1.460   .     S
C387   O275    1.295   1_655 S
C388   O426    1.293   .     A
C388   C390    1.461   .     S
C389   C393    1.396   .     A
C389   C395    1.395   .     A
C390   C394    1.395   .     A
C390   C396    1.396   .     A
C391   C399    1.412   .     A
C391   C393    1.391   .     A
C391   H407    1.081   .     S
C392   H408    1.081   .     S
C392   C394    1.390   .     A
C392   C400    1.414   .     A
C393   H258    1.084   1_655 S
C395   F436    1.359   .     S
C395   C397    1.409   .     A
C396   F435    1.360   .     S
C396   C398    1.411   .     A
C397   C399    1.419   .     A
C397   C401    1.426   .     A
C398   C402    1.423   .     A
C398   C400    1.418   .     A
C399   C1041   1.411   .     S
C400   C1042   1.409   1_554 S
C401   C1068   1.419   .     S
C402   C1067   1.419   1_554 S
Cu403  O422    1.965   .     S
Cu403  O419    1.965   .     S
Cu403  O426    1.941   .     S
Cu403  O423    1.950   .     S
Cu403  N417    2.013   .     S
Cu404  O421    1.965   .     S
Cu404  O420    1.965   .     S
Cu404  O424    1.950   .     S
Cu404  N418    2.013   .     S
Cu404  O425    1.941   .     S
Cu404  Cu255   2.679   1_655 S
H405   C246    1.084   1_655 S
O420   C224    1.291   1_655 S
O424   C240    1.295   1_655 S
C427   O429    1.397   .     S
C427   O428    1.221   .     D
O429   H430    1.012   .     S
C431   O433    1.397   .     S
C431   O432    1.222   .     D
O433   H434    1.014   .     S
C437   O438    1.222   .     D
C437   O439    1.399   .     S
O439   H440    1.014   .     S
C441   O443    1.398   .     S
C441   O442    1.221   .     D
O443   H444    1.013   .     S
C445   C456    1.450   .     S
C445   O495    1.291   .     A
C445   O567    1.291   .     S
C446   C455    1.450   .     S
C446   O496    1.291   .     A
C446   O642    1.291   1_455 S
C447   C476    1.427   .     A
C447   C511    1.500   .     S
C447   C449    1.414   .     A
C448   C450    1.415   .     A
C448   C475    1.432   .     A
C448   C515    1.491   .     S
C449   C501    1.490   .     S
C449   C1139   1.411   1_554 S
C450   C505    1.485   .     S
C450   C1140   1.409   .     S
C451   C456    1.401   .     A
C451   H483    1.083   .     S
C452   C455    1.401   .     A
C452   H484    1.083   .     S
C452   C10     1.383   1_565 S
C453   H485    1.083   .     S
C453   C7      1.383   1_565 S
C453   C529    1.401   .     S
C454   H486    1.083   .     S
C454   C604    1.401   1_455 S
C455   C601    1.401   1_455 S
C456   C528    1.401   .     S
C457   C459    1.417   .     A
C457   H487    1.081   .     S
C457   N492    1.366   .     A
C458   C460    1.417   .     A
C458   H488    1.082   .     S
C458   N491    1.367   .     A
C459   N491    1.367   .     A
C459   H489    1.082   .     S
C460   N492    1.367   .     A
C460   H490    1.082   .     S
C461   O499    1.293   .     A
C461   C463    1.460   .     S
C461   O571    1.295   .     S
C462   O500    1.293   .     A
C462   C464    1.461   .     S
C462   O646    1.295   1_455 S
C463   C467    1.396   .     A
C463   C469    1.395   .     A
C464   C468    1.395   .     A
C464   C470    1.396   .     A
C465   C473    1.412   .     A
C465   C467    1.391   .     A
C465   H481    1.081   .     S
C466   H482    1.081   .     S
C466   C468    1.390   .     A
C466   C474    1.414   .     A
C467   H554    1.084   .     S
C468   H627    1.084   1_455 S
C469   F510    1.359   .     S
C469   C471    1.409   .     A
C470   F509    1.360   .     S
C470   C472    1.411   .     A
C471   C473    1.419   .     A
C471   C475    1.426   .     A
C472   C476    1.423   .     A
C472   C474    1.418   .     A
C473   C1115   1.411   .     S
C474   C1116   1.409   1_554 S
C475   C1142   1.419   .     S
C476   C1141   1.419   1_554 S
Cu477  O496    1.965   .     S
Cu477  O493    1.965   .     S
Cu477  O500    1.941   .     S
Cu477  O497    1.950   .     S
Cu477  N491    2.013   .     S
Cu477  Cu626   2.679   1_455 S
Cu478  O495    1.965   .     S
Cu478  O494    1.965   .     S
Cu478  O498    1.950   .     S
Cu478  N492    2.013   .     S
Cu478  O499    1.941   .     S
Cu478  Cu551   2.679   .     S
H479   C542    1.084   .     S
H480   C615    1.084   1_455 S
O493   C593    1.291   1_455 S
O494   C520    1.291   .     S
O497   C609    1.295   1_455 S
O498   C536    1.295   .     S
C501   O503    1.397   .     S
C501   O502    1.221   .     D
O503   H504    1.012   .     S
C505   O507    1.397   .     S
C505   O506    1.222   .     D
O507   H508    1.014   .     S
C511   O512    1.222   .     D
C511   O513    1.399   .     S
O513   H514    1.014   .     S
C515   O517    1.398   .     S
C515   O516    1.221   .     D
O517   H518    1.013   .     S
C519   C530    1.450   .     S
C519   O569    1.291   .     A
C519   O641    1.291   .     S
C520   C529    1.450   .     S
C520   O570    1.291   .     A
C521   C550    1.427   .     A
C521   C585    1.500   .     S
C521   C523    1.414   .     A
C522   C524    1.415   .     A
C522   C549    1.432   .     A
C522   C589    1.491   .     S
C523   C575    1.490   .     S
C523   C1213   1.411   1_554 S
C524   C579    1.485   .     S
C524   C1214   1.409   .     S
C525   C530    1.401   .     A
C525   H557    1.083   .     S
C526   C529    1.401   .     A
C526   H558    1.083   .     S
C526   C84     1.383   1_565 S
C527   H559    1.083   .     S
C527   C81     1.383   1_565 S
C527   C603    1.401   .     S
C528   H560    1.083   .     S
C530   C602    1.401   .     S
C531   C533    1.417   .     A
C531   H561    1.081   .     S
C531   N566    1.366   .     A
C532   C534    1.417   .     A
C532   H562    1.082   .     S
C532   N565    1.367   .     A
C533   N565    1.367   .     A
C533   H563    1.082   .     S
C534   N566    1.367   .     A
C534   H564    1.082   .     S
C535   O573    1.293   .     A
C535   C537    1.460   .     S
C535   O645    1.295   .     S
C536   O574    1.293   .     A
C536   C538    1.461   .     S
C537   C541    1.396   .     A
C537   C543    1.395   .     A
C538   C542    1.395   .     A
C538   C544    1.396   .     A
C539   C547    1.412   .     A
C539   C541    1.391   .     A
C539   H555    1.081   .     S
C540   H556    1.081   .     S
C540   C542    1.390   .     A
C540   C548    1.414   .     A
C541   H628    1.084   .     S
C543   F584    1.359   .     S
C543   C545    1.409   .     A
C544   F583    1.360   .     S
C544   C546    1.411   .     A
C545   C547    1.419   .     A
C545   C549    1.426   .     A
C546   C550    1.423   .     A
C546   C548    1.418   .     A
C547   C1189   1.411   .     S
C548   C1190   1.409   1_554 S
C549   C1216   1.419   .     S
C550   C1215   1.419   1_554 S
Cu551  O570    1.965   .     S
Cu551  O567    1.965   .     S
Cu551  O574    1.941   .     S
Cu551  O571    1.950   .     S
Cu551  N565    2.013   .     S
Cu552  O569    1.965   .     S
Cu552  O568    1.965   .     S
Cu552  O572    1.950   .     S
Cu552  N566    2.013   .     S
Cu552  O573    1.941   .     S
Cu552  Cu625   2.679   .     S
H553   C616    1.084   .     S
O568   C594    1.291   .     S
O572   C610    1.295   .     S
C575   O577    1.397   .     S
C575   O576    1.221   .     D
O577   H578    1.012   .     S
C579   O581    1.397   .     S
C579   O580    1.222   .     D
O581   H582    1.014   .     S
C585   O586    1.222   .     D
C585   O587    1.399   .     S
O587   H588    1.014   .     S
C589   O591    1.398   .     S
C589   O590    1.221   .     D
O591   H592    1.013   .     S
C593   C604    1.450   .     S
C593   O643    1.291   .     A
C593   O493    1.291   1_655 S
C594   C603    1.450   .     S
C594   O644    1.291   .     A
C595   C624    1.427   .     A
C595   C659    1.500   .     S
C595   C597    1.414   .     A
C596   C598    1.415   .     A
C596   C623    1.432   .     A
C596   C663    1.491   .     S
C597   C649    1.490   .     S
C597   C1287   1.411   1_554 S
C598   C653    1.485   .     S
C598   C1288   1.409   .     S
C599   C604    1.401   .     A
C599   H631    1.083   .     S
C600   C603    1.401   .     A
C600   H632    1.083   .     S
C600   C158    1.383   1_565 S
C601   H633    1.083   .     S
C601   C155    1.383   1_565 S
C601   C455    1.401   1_655 S
C602   H634    1.083   .     S
C604   C454    1.401   1_655 S
C605   C607    1.417   .     A
C605   H635    1.081   .     S
C605   N640    1.366   .     A
C606   C608    1.417   .     A
C606   H636    1.082   .     S
C606   N639    1.367   .     A
C607   N639    1.367   .     A
C607   H637    1.082   .     S
C608   N640    1.367   .     A
C608   H638    1.082   .     S
C609   O647    1.293   .     A
C609   C611    1.460   .     S
C609   O497    1.295   1_655 S
C610   O648    1.293   .     A
C610   C612    1.461   .     S
C611   C615    1.396   .     A
C611   C617    1.395   .     A
C612   C616    1.395   .     A
C612   C618    1.396   .     A
C613   C621    1.412   .     A
C613   C615    1.391   .     A
C613   H629    1.081   .     S
C614   H630    1.081   .     S
C614   C616    1.390   .     A
C614   C622    1.414   .     A
C615   H480    1.084   1_655 S
C617   F658    1.359   .     S
C617   C619    1.409   .     A
C618   F657    1.360   .     S
C618   C620    1.411   .     A
C619   C621    1.419   .     A
C619   C623    1.426   .     A
C620   C624    1.423   .     A
C620   C622    1.418   .     A
C621   C1263   1.411   .     S
C622   C1264   1.409   1_554 S
C623   C1290   1.419   .     S
C624   C1289   1.419   1_554 S
Cu625  O644    1.965   .     S
Cu625  O641    1.965   .     S
Cu625  O648    1.941   .     S
Cu625  O645    1.950   .     S
Cu625  N639    2.013   .     S
Cu626  O643    1.965   .     S
Cu626  O642    1.965   .     S
Cu626  O646    1.950   .     S
Cu626  N640    2.013   .     S
Cu626  O647    1.941   .     S
Cu626  Cu477   2.679   1_655 S
H627   C468    1.084   1_655 S
O642   C446    1.291   1_655 S
O646   C462    1.295   1_655 S
C649   O651    1.397   .     S
C649   O650    1.221   .     D
O651   H652    1.012   .     S
C653   O655    1.397   .     S
C653   O654    1.222   .     D
O655   H656    1.014   .     S
C659   O660    1.222   .     D
C659   O661    1.399   .     S
O661   H662    1.014   .     S
C663   O665    1.398   .     S
C663   O664    1.221   .     D
O665   H666    1.013   .     S
C667   C678    1.450   .     S
C667   O717    1.291   .     A
C667   O789    1.291   .     S
C668   C677    1.450   .     S
C668   O718    1.291   .     A
C668   O864    1.291   1_455 S
C669   C698    1.427   .     A
C669   C733    1.500   .     S
C669   C671    1.414   .     A
C670   C672    1.415   .     A
C670   C697    1.432   .     A
C670   C737    1.491   .     S
C671   C723    1.490   .     S
C672   C727    1.485   .     S
C672   C30     1.409   1_556 S
C673   C678    1.401   .     A
C673   H705    1.083   .     S
C673   C1119   1.383   1_545 S
C674   C677    1.401   .     A
C674   H706    1.083   .     S
C674   C898    1.383   .     S
C675   H707    1.083   .     S
C675   C895    1.383   .     S
C675   C751    1.401   .     S
C676   H708    1.083   .     S
C676   C1118   1.383   1_545 S
C676   C826    1.401   1_455 S
C677   C823    1.401   1_455 S
C678   C750    1.401   .     S
C679   C681    1.417   .     A
C679   H709    1.081   .     S
C679   N714    1.366   .     A
C680   C682    1.417   .     A
C680   H710    1.082   .     S
C680   N713    1.367   .     A
C681   N713    1.367   .     A
C681   H711    1.082   .     S
C682   N714    1.367   .     A
C682   H712    1.082   .     S
C683   O721    1.293   .     A
C683   C685    1.460   .     S
C683   O793    1.295   .     S
C684   O722    1.293   .     A
C684   C686    1.461   .     S
C684   O868    1.295   1_455 S
C685   C689    1.396   .     A
C685   C691    1.395   .     A
C686   C690    1.395   .     A
C686   C692    1.396   .     A
C687   C695    1.412   .     A
C687   C689    1.391   .     A
C687   H703    1.081   .     S
C688   H704    1.081   .     S
C688   C690    1.390   .     A
C688   C696    1.414   .     A
C689   H776    1.084   .     S
C690   H849    1.084   1_455 S
C691   F732    1.359   .     S
C691   C693    1.409   .     A
C692   F731    1.360   .     S
C692   C694    1.411   .     A
C693   C695    1.419   .     A
C693   C697    1.426   .     A
C694   C698    1.423   .     A
C694   C696    1.418   .     A
C695   C5      1.411   1_556 S
C697   C32     1.419   1_556 S
Cu699  O718    1.965   .     S
Cu699  O715    1.965   .     S
Cu699  O722    1.941   .     S
Cu699  O719    1.950   .     S
Cu699  N713    2.013   .     S
Cu699  Cu848   2.679   1_455 S
Cu700  O717    1.965   .     S
Cu700  O716    1.965   .     S
Cu700  O720    1.950   .     S
Cu700  N714    2.013   .     S
Cu700  O721    1.941   .     S
Cu700  Cu773   2.679   .     S
H701   C764    1.084   .     S
H702   C837    1.084   1_455 S
O715   C815    1.291   1_455 S
O716   C742    1.291   .     S
O719   C831    1.295   1_455 S
O720   C758    1.295   .     S
C723   O725    1.397   .     S
C723   O724    1.221   .     D
O725   H726    1.012   .     S
C727   O729    1.397   .     S
C727   O728    1.222   .     D
O729   H730    1.014   .     S
C733   O734    1.222   .     D
C733   O735    1.399   .     S
O735   H736    1.014   .     S
C737   O739    1.398   .     S
C737   O738    1.221   .     D
O739   H740    1.013   .     S
C741   C752    1.450   .     S
C741   O791    1.291   .     A
C741   O863    1.291   .     S
C742   C751    1.450   .     S
C742   O792    1.291   .     A
C743   C772    1.427   .     A
C743   C807    1.500   .     S
C743   C745    1.414   .     A
C744   C746    1.415   .     A
C744   C771    1.432   .     A
C744   C811    1.491   .     S
C745   C797    1.490   .     S
C746   C801    1.485   .     S
C746   C104    1.409   1_556 S
C747   C752    1.401   .     A
C747   H779    1.083   .     S
C747   C1193   1.383   1_545 S
C748   C751    1.401   .     A
C748   H780    1.083   .     S
C748   C972    1.383   .     S
C749   H781    1.083   .     S
C749   C969    1.383   .     S
C749   C825    1.401   .     S
C750   H782    1.083   .     S
C750   C1192   1.383   1_545 S
C752   C824    1.401   .     S
C753   C755    1.417   .     A
C753   H783    1.081   .     S
C753   N788    1.366   .     A
C754   C756    1.417   .     A
C754   H784    1.082   .     S
C754   N787    1.367   .     A
C755   N787    1.367   .     A
C755   H785    1.082   .     S
C756   N788    1.367   .     A
C756   H786    1.082   .     S
C757   O795    1.293   .     A
C757   C759    1.460   .     S
C757   O867    1.295   .     S
C758   O796    1.293   .     A
C758   C760    1.461   .     S
C759   C763    1.396   .     A
C759   C765    1.395   .     A
C760   C764    1.395   .     A
C760   C766    1.396   .     A
C761   C769    1.412   .     A
C761   C763    1.391   .     A
C761   H777    1.081   .     S
C762   H778    1.081   .     S
C762   C764    1.390   .     A
C762   C770    1.414   .     A
C763   H850    1.084   .     S
C765   F806    1.359   .     S
C765   C767    1.409   .     A
C766   F805    1.360   .     S
C766   C768    1.411   .     A
C767   C769    1.419   .     A
C767   C771    1.426   .     A
C768   C772    1.423   .     A
C768   C770    1.418   .     A
C769   C79     1.411   1_556 S
C771   C106    1.419   1_556 S
Cu773  O792    1.965   .     S
Cu773  O789    1.965   .     S
Cu773  O796    1.941   .     S
Cu773  O793    1.950   .     S
Cu773  N787    2.013   .     S
Cu774  O791    1.965   .     S
Cu774  O790    1.965   .     S
Cu774  O794    1.950   .     S
Cu774  N788    2.013   .     S
Cu774  O795    1.941   .     S
Cu774  Cu847   2.679   .     S
H775   C838    1.084   .     S
O790   C816    1.291   .     S
O794   C832    1.295   .     S
C797   O799    1.397   .     S
C797   O798    1.221   .     D
O799   H800    1.012   .     S
C801   O803    1.397   .     S
C801   O802    1.222   .     D
O803   H804    1.014   .     S
C807   O808    1.222   .     D
C807   O809    1.399   .     S
O809   H810    1.014   .     S
C811   O813    1.398   .     S
C811   O812    1.221   .     D
O813   H814    1.013   .     S
C815   C826    1.450   .     S
C815   O865    1.291   .     A
C815   O715    1.291   1_655 S
C816   C825    1.450   .     S
C816   O866    1.291   .     A
C817   C846    1.427   .     A
C817   C881    1.500   .     S
C817   C819    1.414   .     A
C818   C820    1.415   .     A
C818   C845    1.432   .     A
C818   C885    1.491   .     S
C819   C871    1.490   .     S
C820   C875    1.485   .     S
C820   C178    1.409   1_556 S
C821   C826    1.401   .     A
C821   H853    1.083   .     S
C821   C1267   1.383   1_545 S
C822   C825    1.401   .     A
C822   H854    1.083   .     S
C822   C1046   1.383   .     S
C823   H855    1.083   .     S
C823   C1043   1.383   .     S
C823   C677    1.401   1_655 S
C824   H856    1.083   .     S
C824   C1266   1.383   1_545 S
C826   C676    1.401   1_655 S
C827   C829    1.417   .     A
C827   H857    1.081   .     S
C827   N862    1.366   .     A
C828   C830    1.417   .     A
C828   H858    1.082   .     S
C828   N861    1.367   .     A
C829   N861    1.367   .     A
C829   H859    1.082   .     S
C830   N862    1.367   .     A
C830   H860    1.082   .     S
C831   O869    1.293   .     A
C831   C833    1.460   .     S
C831   O719    1.295   1_655 S
C832   O870    1.293   .     A
C832   C834    1.461   .     S
C833   C837    1.396   .     A
C833   C839    1.395   .     A
C834   C838    1.395   .     A
C834   C840    1.396   .     A
C835   C843    1.412   .     A
C835   C837    1.391   .     A
C835   H851    1.081   .     S
C836   H852    1.081   .     S
C836   C838    1.390   .     A
C836   C844    1.414   .     A
C837   H702    1.084   1_655 S
C839   F880    1.359   .     S
C839   C841    1.409   .     A
C840   F879    1.360   .     S
C840   C842    1.411   .     A
C841   C843    1.419   .     A
C841   C845    1.426   .     A
C842   C846    1.423   .     A
C842   C844    1.418   .     A
C843   C153    1.411   1_556 S
C845   C180    1.419   1_556 S
Cu847  O866    1.965   .     S
Cu847  O863    1.965   .     S
Cu847  O870    1.941   .     S
Cu847  O867    1.950   .     S
Cu847  N861    2.013   .     S
Cu848  O865    1.965   .     S
Cu848  O864    1.965   .     S
Cu848  O868    1.950   .     S
Cu848  N862    2.013   .     S
Cu848  O869    1.941   .     S
Cu848  Cu699   2.679   1_655 S
H849   C690    1.084   1_655 S
O864   C668    1.291   1_655 S
O868   C684    1.295   1_655 S
C871   O873    1.397   .     S
C871   O872    1.221   .     D
O873   H874    1.012   .     S
C875   O877    1.397   .     S
C875   O876    1.222   .     D
O877   H878    1.014   .     S
C881   O882    1.222   .     D
C881   O883    1.399   .     S
O883   H884    1.014   .     S
C885   O887    1.398   .     S
C885   O886    1.221   .     D
O887   H888    1.013   .     S
C889   C900    1.450   .     S
C889   O939    1.291   .     A
C889   O1011   1.291   .     S
C890   C899    1.450   .     S
C890   O940    1.291   .     A
C890   O1086   1.291   1_455 S
C891   C920    1.427   .     A
C891   C955    1.500   .     S
C891   C893    1.414   .     A
C892   C894    1.415   .     A
C892   C919    1.432   .     A
C892   C959    1.491   .     S
C893   C945    1.490   .     S
C894   C949    1.485   .     S
C894   C252    1.409   1_556 S
C895   C900    1.401   .     A
C895   H927    1.083   .     S
C896   C899    1.401   .     A
C896   H928    1.083   .     S
C896   C1120   1.383   .     S
C897   H929    1.083   .     S
C897   C1117   1.383   .     S
C897   C973    1.401   .     S
C898   H930    1.083   .     S
C898   C1048   1.401   1_455 S
C899   C1045   1.401   1_455 S
C900   C972    1.401   .     S
C901   C903    1.417   .     A
C901   H931    1.081   .     S
C901   N936    1.366   .     A
C902   C904    1.417   .     A
C902   H932    1.082   .     S
C902   N935    1.367   .     A
C903   N935    1.367   .     A
C903   H933    1.082   .     S
C904   N936    1.367   .     A
C904   H934    1.082   .     S
C905   O943    1.293   .     A
C905   C907    1.460   .     S
C905   O1015   1.295   .     S
C906   O944    1.293   .     A
C906   C908    1.461   .     S
C906   O1090   1.295   1_455 S
C907   C911    1.396   .     A
C907   C913    1.395   .     A
C908   C912    1.395   .     A
C908   C914    1.396   .     A
C909   C917    1.412   .     A
C909   C911    1.391   .     A
C909   H925    1.081   .     S
C910   H926    1.081   .     S
C910   C912    1.390   .     A
C910   C918    1.414   .     A
C911   H998    1.084   .     S
C912   H1071   1.084   1_455 S
C913   F954    1.359   .     S
C913   C915    1.409   .     A
C914   F953    1.360   .     S
C914   C916    1.411   .     A
C915   C917    1.419   .     A
C915   C919    1.426   .     A
C916   C920    1.423   .     A
C916   C918    1.418   .     A
C917   C227    1.411   1_556 S
C919   C254    1.419   1_556 S
Cu921  O940    1.965   .     S
Cu921  O937    1.965   .     S
Cu921  O944    1.941   .     S
Cu921  O941    1.950   .     S
Cu921  N935    2.013   .     S
Cu921  Cu1070  2.679   1_455 S
Cu922  O939    1.965   .     S
Cu922  O938    1.965   .     S
Cu922  O942    1.950   .     S
Cu922  N936    2.013   .     S
Cu922  O943    1.941   .     S
Cu922  Cu995   2.679   .     S
H923   C986    1.084   .     S
H924   C1059   1.084   1_455 S
O937   C1037   1.291   1_455 S
O938   C964    1.291   .     S
O941   C1053   1.295   1_455 S
O942   C980    1.295   .     S
C945   O947    1.397   .     S
C945   O946    1.221   .     D
O947   H948    1.012   .     S
C949   O951    1.397   .     S
C949   O950    1.222   .     D
O951   H952    1.014   .     S
C955   O956    1.222   .     D
C955   O957    1.399   .     S
O957   H958    1.014   .     S
C959   O961    1.398   .     S
C959   O960    1.221   .     D
O961   H962    1.013   .     S
C963   C974    1.450   .     S
C963   O1013   1.291   .     A
C963   O1085   1.291   .     S
C964   C973    1.450   .     S
C964   O1014   1.291   .     A
C965   C994    1.427   .     A
C965   C1029   1.500   .     S
C965   C967    1.414   .     A
C966   C968    1.415   .     A
C966   C993    1.432   .     A
C966   C1033   1.491   .     S
C967   C1019   1.490   .     S
C968   C1023   1.485   .     S
C968   C326    1.409   1_556 S
C969   C974    1.401   .     A
C969   H1001   1.083   .     S
C970   C973    1.401   .     A
C970   H1002   1.083   .     S
C970   C1194   1.383   .     S
C971   H1003   1.083   .     S
C971   C1191   1.383   .     S
C971   C1047   1.401   .     S
C972   H1004   1.083   .     S
C974   C1046   1.401   .     S
C975   C977    1.417   .     A
C975   H1005   1.081   .     S
C975   N1010   1.366   .     A
C976   C978    1.417   .     A
C976   H1006   1.082   .     S
C976   N1009   1.367   .     A
C977   N1009   1.367   .     A
C977   H1007   1.082   .     S
C978   N1010   1.367   .     A
C978   H1008   1.082   .     S
C979   O1017   1.293   .     A
C979   C981    1.460   .     S
C979   O1089   1.295   .     S
C980   O1018   1.293   .     A
C980   C982    1.461   .     S
C981   C985    1.396   .     A
C981   C987    1.395   .     A
C982   C986    1.395   .     A
C982   C988    1.396   .     A
C983   C991    1.412   .     A
C983   C985    1.391   .     A
C983   H999    1.081   .     S
C984   H1000   1.081   .     S
C984   C986    1.390   .     A
C984   C992    1.414   .     A
C985   H1072   1.084   .     S
C987   F1028   1.359   .     S
C987   C989    1.409   .     A
C988   F1027   1.360   .     S
C988   C990    1.411   .     A
C989   C991    1.419   .     A
C989   C993    1.426   .     A
C990   C994    1.423   .     A
C990   C992    1.418   .     A
C991   C301    1.411   1_556 S
C993   C328    1.419   1_556 S
Cu995  O1014   1.965   .     S
Cu995  O1011   1.965   .     S
Cu995  O1018   1.941   .     S
Cu995  O1015   1.950   .     S
Cu995  N1009   2.013   .     S
Cu996  O1013   1.965   .     S
Cu996  O1012   1.965   .     S
Cu996  O1016   1.950   .     S
Cu996  N1010   2.013   .     S
Cu996  O1017   1.941   .     S
Cu996  Cu1069  2.679   .     S
H997   C1060   1.084   .     S
O1012  C1038   1.291   .     S
O1016  C1054   1.295   .     S
C1019  O1021   1.397   .     S
C1019  O1020   1.221   .     D
O1021  H1022   1.012   .     S
C1023  O1025   1.397   .     S
C1023  O1024   1.222   .     D
O1025  H1026   1.014   .     S
C1029  O1030   1.222   .     D
C1029  O1031   1.399   .     S
O1031  H1032   1.014   .     S
C1033  O1035   1.398   .     S
C1033  O1034   1.221   .     D
O1035  H1036   1.013   .     S
C1037  C1048   1.450   .     S
C1037  O1087   1.291   .     A
C1037  O937    1.291   1_655 S
C1038  C1047   1.450   .     S
C1038  O1088   1.291   .     A
C1039  C1068   1.427   .     A
C1039  C1103   1.500   .     S
C1039  C1041   1.414   .     A
C1040  C1042   1.415   .     A
C1040  C1067   1.432   .     A
C1040  C1107   1.491   .     S
C1041  C1093   1.490   .     S
C1042  C1097   1.485   .     S
C1042  C400    1.409   1_556 S
C1043  C1048   1.401   .     A
C1043  H1075   1.083   .     S
C1044  C1047   1.401   .     A
C1044  H1076   1.083   .     S
C1044  C1268   1.383   .     S
C1045  H1077   1.083   .     S
C1045  C1265   1.383   .     S
C1045  C899    1.401   1_655 S
C1046  H1078   1.083   .     S
C1048  C898    1.401   1_655 S
C1049  C1051   1.417   .     A
C1049  H1079   1.081   .     S
C1049  N1084   1.366   .     A
C1050  C1052   1.417   .     A
C1050  H1080   1.082   .     S
C1050  N1083   1.367   .     A
C1051  N1083   1.367   .     A
C1051  H1081   1.082   .     S
C1052  N1084   1.367   .     A
C1052  H1082   1.082   .     S
C1053  O1091   1.293   .     A
C1053  C1055   1.460   .     S
C1053  O941    1.295   1_655 S
C1054  O1092   1.293   .     A
C1054  C1056   1.461   .     S
C1055  C1059   1.396   .     A
C1055  C1061   1.395   .     A
C1056  C1060   1.395   .     A
C1056  C1062   1.396   .     A
C1057  C1065   1.412   .     A
C1057  C1059   1.391   .     A
C1057  H1073   1.081   .     S
C1058  H1074   1.081   .     S
C1058  C1060   1.390   .     A
C1058  C1066   1.414   .     A
C1059  H924    1.084   1_655 S
C1061  F1102   1.359   .     S
C1061  C1063   1.409   .     A
C1062  F1101   1.360   .     S
C1062  C1064   1.411   .     A
C1063  C1065   1.419   .     A
C1063  C1067   1.426   .     A
C1064  C1068   1.423   .     A
C1064  C1066   1.418   .     A
C1065  C375    1.411   1_556 S
C1067  C402    1.419   1_556 S
Cu1069 O1088   1.965   .     S
Cu1069 O1085   1.965   .     S
Cu1069 O1092   1.941   .     S
Cu1069 O1089   1.950   .     S
Cu1069 N1083   2.013   .     S
Cu1070 O1087   1.965   .     S
Cu1070 O1086   1.965   .     S
Cu1070 O1090   1.950   .     S
Cu1070 N1084   2.013   .     S
Cu1070 O1091   1.941   .     S
Cu1070 Cu921   2.679   1_655 S
H1071  C912    1.084   1_655 S
O1086  C890    1.291   1_655 S
O1090  C906    1.295   1_655 S
C1093  O1095   1.397   .     S
C1093  O1094   1.221   .     D
O1095  H1096   1.012   .     S
C1097  O1099   1.397   .     S
C1097  O1098   1.222   .     D
O1099  H1100   1.014   .     S
C1103  O1104   1.222   .     D
C1103  O1105   1.399   .     S
O1105  H1106   1.014   .     S
C1107  O1109   1.398   .     S
C1107  O1108   1.221   .     D
O1109  H1110   1.013   .     S
C1111  C1122   1.450   .     S
C1111  O1161   1.291   .     A
C1111  O1233   1.291   .     S
C1112  C1121   1.450   .     S
C1112  O1162   1.291   .     A
C1112  O1308   1.291   1_455 S
C1113  C1142   1.427   .     A
C1113  C1177   1.500   .     S
C1113  C1115   1.414   .     A
C1114  C1116   1.415   .     A
C1114  C1141   1.432   .     A
C1114  C1181   1.491   .     S
C1115  C1167   1.490   .     S
C1116  C1171   1.485   .     S
C1116  C474    1.409   1_556 S
C1117  C1122   1.401   .     A
C1117  H1149   1.083   .     S
C1118  C1121   1.401   .     A
C1118  H1150   1.083   .     S
C1118  C676    1.383   1_565 S
C1119  H1151   1.083   .     S
C1119  C673    1.383   1_565 S
C1119  C1195   1.401   .     S
C1120  H1152   1.083   .     S
C1120  C1270   1.401   1_455 S
C1121  C1267   1.401   1_455 S
C1122  C1194   1.401   .     S
C1123  C1125   1.417   .     A
C1123  H1153   1.081   .     S
C1123  N1158   1.366   .     A
C1124  C1126   1.417   .     A
C1124  H1154   1.082   .     S
C1124  N1157   1.367   .     A
C1125  N1157   1.367   .     A
C1125  H1155   1.082   .     S
C1126  N1158   1.367   .     A
C1126  H1156   1.082   .     S
C1127  O1165   1.293   .     A
C1127  C1129   1.460   .     S
C1127  O1237   1.295   .     S
C1128  O1166   1.293   .     A
C1128  C1130   1.461   .     S
C1128  O1312   1.295   1_455 S
C1129  C1133   1.396   .     A
C1129  C1135   1.395   .     A
C1130  C1134   1.395   .     A
C1130  C1136   1.396   .     A
C1131  C1139   1.412   .     A
C1131  C1133   1.391   .     A
C1131  H1147   1.081   .     S
C1132  H1148   1.081   .     S
C1132  C1134   1.390   .     A
C1132  C1140   1.414   .     A
C1133  H1220   1.084   .     S
C1134  H1293   1.084   1_455 S
C1135  F1176   1.359   .     S
C1135  C1137   1.409   .     A
C1136  F1175   1.360   .     S
C1136  C1138   1.411   .     A
C1137  C1139   1.419   .     A
C1137  C1141   1.426   .     A
C1138  C1142   1.423   .     A
C1138  C1140   1.418   .     A
C1139  C449    1.411   1_556 S
C1141  C476    1.419   1_556 S
Cu1143 O1162   1.965   .     S
Cu1143 O1159   1.965   .     S
Cu1143 O1166   1.941   .     S
Cu1143 O1163   1.950   .     S
Cu1143 N1157   2.013   .     S
Cu1143 Cu1292  2.679   1_455 S
Cu1144 O1161   1.965   .     S
Cu1144 O1160   1.965   .     S
Cu1144 O1164   1.950   .     S
Cu1144 N1158   2.013   .     S
Cu1144 O1165   1.941   .     S
Cu1144 Cu1217  2.679   .     S
H1145  C1208   1.084   .     S
H1146  C1281   1.084   1_455 S
O1159  C1259   1.291   1_455 S
O1160  C1186   1.291   .     S
O1163  C1275   1.295   1_455 S
O1164  C1202   1.295   .     S
C1167  O1169   1.397   .     S
C1167  O1168   1.221   .     D
O1169  H1170   1.012   .     S
C1171  O1173   1.397   .     S
C1171  O1172   1.222   .     D
O1173  H1174   1.014   .     S
C1177  O1178   1.222   .     D
C1177  O1179   1.399   .     S
O1179  H1180   1.014   .     S
C1181  O1183   1.398   .     S
C1181  O1182   1.221   .     D
O1183  H1184   1.013   .     S
C1185  C1196   1.450   .     S
C1185  O1235   1.291   .     A
C1185  O1307   1.291   .     S
C1186  C1195   1.450   .     S
C1186  O1236   1.291   .     A
C1187  C1216   1.427   .     A
C1187  C1251   1.500   .     S
C1187  C1189   1.414   .     A
C1188  C1190   1.415   .     A
C1188  C1215   1.432   .     A
C1188  C1255   1.491   .     S
C1189  C1241   1.490   .     S
C1190  C1245   1.485   .     S
C1190  C548    1.409   1_556 S
C1191  C1196   1.401   .     A
C1191  H1223   1.083   .     S
C1192  C1195   1.401   .     A
C1192  H1224   1.083   .     S
C1192  C750    1.383   1_565 S
C1193  H1225   1.083   .     S
C1193  C747    1.383   1_565 S
C1193  C1269   1.401   .     S
C1194  H1226   1.083   .     S
C1196  C1268   1.401   .     S
C1197  C1199   1.417   .     A
C1197  H1227   1.081   .     S
C1197  N1232   1.366   .     A
C1198  C1200   1.417   .     A
C1198  H1228   1.082   .     S
C1198  N1231   1.367   .     A
C1199  N1231   1.367   .     A
C1199  H1229   1.082   .     S
C1200  N1232   1.367   .     A
C1200  H1230   1.082   .     S
C1201  O1239   1.293   .     A
C1201  C1203   1.460   .     S
C1201  O1311   1.295   .     S
C1202  O1240   1.293   .     A
C1202  C1204   1.461   .     S
C1203  C1207   1.396   .     A
C1203  C1209   1.395   .     A
C1204  C1208   1.395   .     A
C1204  C1210   1.396   .     A
C1205  C1213   1.412   .     A
C1205  C1207   1.391   .     A
C1205  H1221   1.081   .     S
C1206  H1222   1.081   .     S
C1206  C1208   1.390   .     A
C1206  C1214   1.414   .     A
C1207  H1294   1.084   .     S
C1209  F1250   1.359   .     S
C1209  C1211   1.409   .     A
C1210  F1249   1.360   .     S
C1210  C1212   1.411   .     A
C1211  C1213   1.419   .     A
C1211  C1215   1.426   .     A
C1212  C1216   1.423   .     A
C1212  C1214   1.418   .     A
C1213  C523    1.411   1_556 S
C1215  C550    1.419   1_556 S
Cu1217 O1236   1.965   .     S
Cu1217 O1233   1.965   .     S
Cu1217 O1240   1.941   .     S
Cu1217 O1237   1.950   .     S
Cu1217 N1231   2.013   .     S
Cu1218 O1235   1.965   .     S
Cu1218 O1234   1.965   .     S
Cu1218 O1238   1.950   .     S
Cu1218 N1232   2.013   .     S
Cu1218 O1239   1.941   .     S
Cu1218 Cu1291  2.679   .     S
H1219  C1282   1.084   .     S
O1234  C1260   1.291   .     S
O1238  C1276   1.295   .     S
C1241  O1243   1.397   .     S
C1241  O1242   1.221   .     D
O1243  H1244   1.012   .     S
C1245  O1247   1.397   .     S
C1245  O1246   1.222   .     D
O1247  H1248   1.014   .     S
C1251  O1252   1.222   .     D
C1251  O1253   1.399   .     S
O1253  H1254   1.014   .     S
C1255  O1257   1.398   .     S
C1255  O1256   1.221   .     D
O1257  H1258   1.013   .     S
C1259  C1270   1.450   .     S
C1259  O1309   1.291   .     A
C1259  O1159   1.291   1_655 S
C1260  C1269   1.450   .     S
C1260  O1310   1.291   .     A
C1261  C1290   1.427   .     A
C1261  C1325   1.500   .     S
C1261  C1263   1.414   .     A
C1262  C1264   1.415   .     A
C1262  C1289   1.432   .     A
C1262  C1329   1.491   .     S
C1263  C1315   1.490   .     S
C1264  C1319   1.485   .     S
C1264  C622    1.409   1_556 S
C1265  C1270   1.401   .     A
C1265  H1297   1.083   .     S
C1266  C1269   1.401   .     A
C1266  H1298   1.083   .     S
C1266  C824    1.383   1_565 S
C1267  H1299   1.083   .     S
C1267  C821    1.383   1_565 S
C1267  C1121   1.401   1_655 S
C1268  H1300   1.083   .     S
C1270  C1120   1.401   1_655 S
C1271  C1273   1.417   .     A
C1271  H1301   1.081   .     S
C1271  N1306   1.366   .     A
C1272  C1274   1.417   .     A
C1272  H1302   1.082   .     S
C1272  N1305   1.367   .     A
C1273  N1305   1.367   .     A
C1273  H1303   1.082   .     S
C1274  N1306   1.367   .     A
C1274  H1304   1.082   .     S
C1275  O1313   1.293   .     A
C1275  C1277   1.460   .     S
C1275  O1163   1.295   1_655 S
C1276  O1314   1.293   .     A
C1276  C1278   1.461   .     S
C1277  C1281   1.396   .     A
C1277  C1283   1.395   .     A
C1278  C1282   1.395   .     A
C1278  C1284   1.396   .     A
C1279  C1287   1.412   .     A
C1279  C1281   1.391   .     A
C1279  H1295   1.081   .     S
C1280  H1296   1.081   .     S
C1280  C1282   1.390   .     A
C1280  C1288   1.414   .     A
C1281  H1146   1.084   1_655 S
C1283  F1324   1.359   .     S
C1283  C1285   1.409   .     A
C1284  F1323   1.360   .     S
C1284  C1286   1.411   .     A
C1285  C1287   1.419   .     A
C1285  C1289   1.426   .     A
C1286  C1290   1.423   .     A
C1286  C1288   1.418   .     A
C1287  C597    1.411   1_556 S
C1289  C624    1.419   1_556 S
Cu1291 O1310   1.965   .     S
Cu1291 O1307   1.965   .     S
Cu1291 O1314   1.941   .     S
Cu1291 O1311   1.950   .     S
Cu1291 N1305   2.013   .     S
Cu1292 O1309   1.965   .     S
Cu1292 O1308   1.965   .     S
Cu1292 O1312   1.950   .     S
Cu1292 N1306   2.013   .     S
Cu1292 O1313   1.941   .     S
Cu1292 Cu1143  2.679   1_655 S
H1293  C1134   1.084   1_655 S
O1308  C1112   1.291   1_655 S
O1312  C1128   1.295   1_655 S
C1315  O1317   1.397   .     S
C1315  O1316   1.221   .     D
O1317  H1318   1.012   .     S
C1319  O1321   1.397   .     S
C1319  O1320   1.222   .     D
O1321  H1322   1.014   .     S
C1325  O1326   1.222   .     D
C1325  O1327   1.399   .     S
O1327  H1328   1.014   .     S
C1329  O1331   1.398   .     S
C1329  O1330   1.221   .     D
O1331  H1332   1.013   .     S
