data_str_m3_o2_o10_pcu_sym.199
_audit_creation_date              2020-01-03
_audit_creation_method            'Materials Studio'
_symmetry_space_group_name_H-M    'P1'
_symmetry_Int_Tables_number       1
_symmetry_cell_setting            triclinic
loop_
_symmetry_equiv_pos_as_xyz
  x,y,z
_cell_length_a                    25.7762
_cell_length_b                    29.9543
_cell_length_c                    28.4210
_cell_angle_alpha                 89.8600
_cell_angle_beta                  97.3986
_cell_angle_gamma                 89.9364
loop_
_atom_site_label
_atom_site_type_symbol
_atom_site_fract_x
_atom_site_fract_y
_atom_site_fract_z
_atom_site_U_iso_or_equiv
_atom_site_adp_type
_atom_site_occupancy
C1     C     0.16675   0.16403   0.25002   0.00000  Uiso   1.00
C2     C     0.16694   0.33613   0.25005   0.00000  Uiso   1.00
C3     C     0.11760   0.24102   0.04783   0.00000  Uiso   1.00
C4     C     0.17979   0.29135   0.44780   0.00000  Uiso   1.00
C5     C     0.12173   0.23855   0.09807   0.00000  Uiso   1.00
C6     C     0.18234   0.28773   0.39838   0.00000  Uiso   1.00
C7     C     0.20924   0.26373   0.10577   0.00000  Uiso   1.00
C8     C     0.14837   0.21434   0.39698   0.00000  Uiso   1.00
C9     C     0.20796   0.26423   0.05608   0.00000  Uiso   1.00
C10    C     0.14808   0.21549   0.44659   0.00000  Uiso   1.00
C11    C     0.16211   0.25357   0.02609   0.00000  Uiso   1.00
C12    C     0.16283   0.25408   0.47283   0.00000  Uiso   1.00
C13    C     0.06734   0.24894   0.23817   0.00000  Uiso   1.00
C14    C     0.26594   0.25126   0.26187   0.00000  Uiso   1.00
C15    C     0.01373   0.23965   0.23460   0.00000  Uiso   1.00
C16    C     0.31970   0.26018   0.26586   0.00000  Uiso   1.00
C17    C     0.20614   0.04747   0.28169   0.00000  Uiso   1.00
C18    C     0.20111   0.45304   0.22147   0.00000  Uiso   1.00
C19    C     0.20449   0.09365   0.28256   0.00000  Uiso   1.00
C20    C     0.19984   0.40682   0.22097   0.00000  Uiso   1.00
C21    C     0.16797   0.11616   0.24990   0.00000  Uiso   1.00
C22    C     0.16866   0.38429   0.25057   0.00000  Uiso   1.00
C23    C     0.13352   0.09284   0.21622   0.00000  Uiso   1.00
C24    C     0.14007   0.40801   0.28150   0.00000  Uiso   1.00
C25    C     0.13545   0.04641   0.21555   0.00000  Uiso   1.00
C26    C     0.14182   0.45444   0.28185   0.00000  Uiso   1.00
C27    C     0.17173   0.02425   0.24875   0.00000  Uiso   1.00
C28    C     0.17198   0.47642   0.25121   0.00000  Uiso   1.00
H29    H     0.23380   0.02962   0.30698   0.00000  Uiso   1.00
H30    H     0.22451   0.47079   0.19843   0.00000  Uiso   1.00
H31    H     0.08817   0.22866   0.11480   0.00000  Uiso   1.00
H32    H     0.19553   0.31581   0.37914   0.00000  Uiso   1.00
H33    H     0.24285   0.27373   0.04095   0.00000  Uiso   1.00
H34    H     0.13528   0.18642   0.46469   0.00000  Uiso   1.00
N35    N     0.16667   0.24999   0.12623   0.00000  Uiso   1.00
N36    N     0.16667   0.25001   0.37376   0.00000  Uiso   1.00
O37    O     0.16667   0.18454   0.28974   0.00000  Uiso   1.00
O38    O     0.16666   0.31547   0.21026   0.00000  Uiso   1.00
O39    O     0.16667   0.18453   0.21026   0.00000  Uiso   1.00
O40    O     0.16666   0.31547   0.28974   0.00000  Uiso   1.00
O41    O     0.09058   0.25000   0.28044   0.00000  Uiso   1.00
O42    O     0.24275   0.25000   0.21955   0.00000  Uiso   1.00
O43    O     0.09058   0.25000   0.20096   0.00000  Uiso   1.00
O44    O     0.24275   0.25001   0.29903   0.00000  Uiso   1.00
Zn45   Zn    0.16667   0.25001   0.30307   0.00000  Uiso   1.00
Zn46   Zn    0.16667   0.25000   0.19693   0.00000  Uiso   1.00
C47    C     0.32928   0.20018   0.20452   0.00000  Uiso   1.00
H48    H     0.01391   0.19333   0.17278   0.00000  Uiso   1.00
O49    O     0.29721   0.17373   0.21621   0.00000  Uiso   1.00
C50    C     0.00565   0.29967   0.29548   0.00000  Uiso   1.00
H51    H     0.04060   0.31736   0.28889   0.00000  Uiso   1.00
O52    O     0.31511   0.31352   0.32692   0.00000  Uiso   1.00
N53    N     0.24049   0.11774   0.31586   0.00000  Uiso   1.00
H54    H     0.27849   0.10901   0.31023   0.00000  Uiso   1.00
H55    H     0.23507   0.10734   0.35003   0.00000  Uiso   1.00
N56    N     0.23112   0.38280   0.19128   0.00000  Uiso   1.00
H57    H     0.22006   0.39292   0.15618   0.00000  Uiso   1.00
H58    H     0.27023   0.39182   0.20083   0.00000  Uiso   1.00
N59    N     0.09579   0.11653   0.18383   0.00000  Uiso   1.00
H60    H     0.10188   0.10836   0.14922   0.00000  Uiso   1.00
H61    H     0.05842   0.10568   0.18909   0.00000  Uiso   1.00
N62    N     0.10834   0.38489   0.31162   0.00000  Uiso   1.00
H63    H     0.12166   0.39306   0.34686   0.00000  Uiso   1.00
H64    H     0.06981   0.39624   0.30380   0.00000  Uiso   1.00
N65    N     0.09999   0.02231   0.18170   0.00000  Uiso   1.00
H66    H     0.12187   0.00276   0.16102   0.00000  Uiso   1.00
H67    H     0.07738   0.00111   0.20005   0.00000  Uiso   1.00
N68    N     0.11221   0.47873   0.31282   0.00000  Uiso   1.00
H69    H     0.13794   0.49841   0.33541   0.00000  Uiso   1.00
H70    H     0.08591   0.49979   0.29230   0.00000  Uiso   1.00
C71    C     0.06616   0.23267   0.01922   0.00000  Uiso   1.00
H72    H     0.06014   0.24010   0.48157   0.00000  Uiso   1.00
O73    O     0.02940   0.21787   0.03753   0.00000  Uiso   1.00
C74    C     0.19239   0.33470   0.47178   0.00000  Uiso   1.00
H75    H     0.18380   0.34032   0.00763   0.00000  Uiso   1.00
O76    O     0.21206   0.36508   0.45149   0.00000  Uiso   1.00
N77    N     0.25522   0.27884   0.13470   0.00000  Uiso   1.00
H78    H     0.28679   0.25962   0.12669   0.00000  Uiso   1.00
H79    H     0.26207   0.31188   0.12533   0.00000  Uiso   1.00
N80    N     0.12819   0.17608   0.37059   0.00000  Uiso   1.00
H81    H     0.09311   0.18578   0.35055   0.00000  Uiso   1.00
H82    H     0.11884   0.15068   0.39335   0.00000  Uiso   1.00
C83    C     0.50008   0.16403   0.25002   0.00000  Uiso   1.00
C84    C     0.50028   0.33613   0.25005   0.00000  Uiso   1.00
C85    C     0.45093   0.24102   0.04783   0.00000  Uiso   1.00
C86    C     0.51312   0.29135   0.44780   0.00000  Uiso   1.00
C87    C     0.45506   0.23855   0.09807   0.00000  Uiso   1.00
C88    C     0.51568   0.28773   0.39838   0.00000  Uiso   1.00
C89    C     0.54258   0.26373   0.10577   0.00000  Uiso   1.00
C90    C     0.48170   0.21434   0.39698   0.00000  Uiso   1.00
C91    C     0.54129   0.26423   0.05608   0.00000  Uiso   1.00
C92    C     0.48141   0.21549   0.44659   0.00000  Uiso   1.00
C93    C     0.49544   0.25357   0.02609   0.00000  Uiso   1.00
C94    C     0.49616   0.25408   0.47283   0.00000  Uiso   1.00
C95    C     0.40067   0.24894   0.23817   0.00000  Uiso   1.00
C96    C     0.59928   0.25126   0.26187   0.00000  Uiso   1.00
C97    C     0.34706   0.23965   0.23460   0.00000  Uiso   1.00
C98    C     0.65303   0.26018   0.26586   0.00000  Uiso   1.00
C99    C     0.53947   0.04747   0.28169   0.00000  Uiso   1.00
C100   C     0.53445   0.45304   0.22147   0.00000  Uiso   1.00
C101   C     0.53783   0.09365   0.28256   0.00000  Uiso   1.00
C102   C     0.53317   0.40682   0.22097   0.00000  Uiso   1.00
C103   C     0.50131   0.11616   0.24990   0.00000  Uiso   1.00
C104   C     0.50200   0.38429   0.25057   0.00000  Uiso   1.00
C105   C     0.46686   0.09284   0.21622   0.00000  Uiso   1.00
C106   C     0.47340   0.40801   0.28150   0.00000  Uiso   1.00
C107   C     0.46879   0.04641   0.21555   0.00000  Uiso   1.00
C108   C     0.47515   0.45444   0.28185   0.00000  Uiso   1.00
C109   C     0.50506   0.02425   0.24875   0.00000  Uiso   1.00
C110   C     0.50531   0.47642   0.25121   0.00000  Uiso   1.00
H111   H     0.56713   0.02962   0.30698   0.00000  Uiso   1.00
H112   H     0.55785   0.47079   0.19843   0.00000  Uiso   1.00
H113   H     0.42150   0.22866   0.11480   0.00000  Uiso   1.00
H114   H     0.52886   0.31581   0.37914   0.00000  Uiso   1.00
H115   H     0.57619   0.27373   0.04095   0.00000  Uiso   1.00
H116   H     0.46862   0.18642   0.46469   0.00000  Uiso   1.00
N117   N     0.50000   0.24999   0.12623   0.00000  Uiso   1.00
N118   N     0.50000   0.25001   0.37376   0.00000  Uiso   1.00
O119   O     0.50000   0.18454   0.28974   0.00000  Uiso   1.00
O120   O     0.50000   0.31547   0.21026   0.00000  Uiso   1.00
O121   O     0.50000   0.18453   0.21026   0.00000  Uiso   1.00
O122   O     0.50000   0.31547   0.28974   0.00000  Uiso   1.00
O123   O     0.42392   0.25000   0.28044   0.00000  Uiso   1.00
O124   O     0.57608   0.25000   0.21955   0.00000  Uiso   1.00
O125   O     0.42392   0.25000   0.20096   0.00000  Uiso   1.00
O126   O     0.57608   0.25001   0.29903   0.00000  Uiso   1.00
Zn127  Zn    0.50000   0.25001   0.30307   0.00000  Uiso   1.00
Zn128  Zn    0.50000   0.25000   0.19693   0.00000  Uiso   1.00
C129   C     0.66261   0.20018   0.20452   0.00000  Uiso   1.00
H130   H     0.34724   0.19333   0.17278   0.00000  Uiso   1.00
O131   O     0.63054   0.17373   0.21621   0.00000  Uiso   1.00
C132   C     0.33898   0.29967   0.29548   0.00000  Uiso   1.00
H133   H     0.37393   0.31736   0.28889   0.00000  Uiso   1.00
O134   O     0.64844   0.31352   0.32692   0.00000  Uiso   1.00
N135   N     0.57382   0.11774   0.31586   0.00000  Uiso   1.00
H136   H     0.61182   0.10901   0.31023   0.00000  Uiso   1.00
H137   H     0.56840   0.10734   0.35003   0.00000  Uiso   1.00
N138   N     0.56445   0.38280   0.19128   0.00000  Uiso   1.00
H139   H     0.55339   0.39292   0.15618   0.00000  Uiso   1.00
H140   H     0.60356   0.39182   0.20083   0.00000  Uiso   1.00
N141   N     0.42912   0.11653   0.18383   0.00000  Uiso   1.00
H142   H     0.43521   0.10836   0.14922   0.00000  Uiso   1.00
H143   H     0.39175   0.10568   0.18909   0.00000  Uiso   1.00
N144   N     0.44167   0.38489   0.31162   0.00000  Uiso   1.00
H145   H     0.45499   0.39306   0.34686   0.00000  Uiso   1.00
H146   H     0.40314   0.39624   0.30380   0.00000  Uiso   1.00
N147   N     0.43332   0.02231   0.18170   0.00000  Uiso   1.00
H148   H     0.45520   0.00276   0.16102   0.00000  Uiso   1.00
H149   H     0.41071   0.00111   0.20005   0.00000  Uiso   1.00
N150   N     0.44554   0.47873   0.31282   0.00000  Uiso   1.00
H151   H     0.47128   0.49841   0.33541   0.00000  Uiso   1.00
H152   H     0.41925   0.49979   0.29230   0.00000  Uiso   1.00
C153   C     0.39949   0.23267   0.01922   0.00000  Uiso   1.00
H154   H     0.39347   0.24010   0.48157   0.00000  Uiso   1.00
O155   O     0.36274   0.21787   0.03753   0.00000  Uiso   1.00
C156   C     0.52573   0.33470   0.47178   0.00000  Uiso   1.00
H157   H     0.51713   0.34032   0.00763   0.00000  Uiso   1.00
O158   O     0.54539   0.36508   0.45149   0.00000  Uiso   1.00
N159   N     0.58855   0.27884   0.13470   0.00000  Uiso   1.00
H160   H     0.62013   0.25962   0.12669   0.00000  Uiso   1.00
H161   H     0.59540   0.31188   0.12533   0.00000  Uiso   1.00
N162   N     0.46152   0.17608   0.37059   0.00000  Uiso   1.00
H163   H     0.42644   0.18578   0.35055   0.00000  Uiso   1.00
H164   H     0.45218   0.15068   0.39335   0.00000  Uiso   1.00
C165   C     0.83342   0.16403   0.25002   0.00000  Uiso   1.00
C166   C     0.83361   0.33613   0.25005   0.00000  Uiso   1.00
C167   C     0.78427   0.24102   0.04783   0.00000  Uiso   1.00
C168   C     0.84645   0.29135   0.44780   0.00000  Uiso   1.00
C169   C     0.78839   0.23855   0.09807   0.00000  Uiso   1.00
C170   C     0.84901   0.28773   0.39838   0.00000  Uiso   1.00
C171   C     0.87591   0.26373   0.10577   0.00000  Uiso   1.00
C172   C     0.81504   0.21434   0.39698   0.00000  Uiso   1.00
C173   C     0.87462   0.26423   0.05608   0.00000  Uiso   1.00
C174   C     0.81474   0.21549   0.44659   0.00000  Uiso   1.00
C175   C     0.82878   0.25357   0.02609   0.00000  Uiso   1.00
C176   C     0.82950   0.25408   0.47283   0.00000  Uiso   1.00
C177   C     0.73401   0.24894   0.23817   0.00000  Uiso   1.00
C178   C     0.93261   0.25126   0.26187   0.00000  Uiso   1.00
C179   C     0.68040   0.23965   0.23460   0.00000  Uiso   1.00
C180   C     0.98636   0.26018   0.26586   0.00000  Uiso   1.00
C181   C     0.87280   0.04747   0.28169   0.00000  Uiso   1.00
C182   C     0.86778   0.45304   0.22147   0.00000  Uiso   1.00
C183   C     0.87116   0.09365   0.28256   0.00000  Uiso   1.00
C184   C     0.86651   0.40682   0.22097   0.00000  Uiso   1.00
C185   C     0.83464   0.11616   0.24990   0.00000  Uiso   1.00
C186   C     0.83533   0.38429   0.25057   0.00000  Uiso   1.00
C187   C     0.80019   0.09284   0.21622   0.00000  Uiso   1.00
C188   C     0.80673   0.40801   0.28150   0.00000  Uiso   1.00
C189   C     0.80212   0.04641   0.21555   0.00000  Uiso   1.00
C190   C     0.80849   0.45444   0.28185   0.00000  Uiso   1.00
C191   C     0.83839   0.02425   0.24875   0.00000  Uiso   1.00
C192   C     0.83864   0.47642   0.25121   0.00000  Uiso   1.00
H193   H     0.90047   0.02962   0.30698   0.00000  Uiso   1.00
H194   H     0.89118   0.47079   0.19843   0.00000  Uiso   1.00
H195   H     0.75483   0.22866   0.11480   0.00000  Uiso   1.00
H196   H     0.86220   0.31581   0.37914   0.00000  Uiso   1.00
H197   H     0.90952   0.27373   0.04095   0.00000  Uiso   1.00
H198   H     0.80195   0.18642   0.46469   0.00000  Uiso   1.00
N199   N     0.83333   0.24999   0.12623   0.00000  Uiso   1.00
N200   N     0.83333   0.25001   0.37376   0.00000  Uiso   1.00
O201   O     0.83334   0.18454   0.28974   0.00000  Uiso   1.00
O202   O     0.83333   0.31547   0.21026   0.00000  Uiso   1.00
O203   O     0.83334   0.18453   0.21026   0.00000  Uiso   1.00
O204   O     0.83333   0.31547   0.28974   0.00000  Uiso   1.00
O205   O     0.75725   0.25000   0.28044   0.00000  Uiso   1.00
O206   O     0.90942   0.25000   0.21955   0.00000  Uiso   1.00
O207   O     0.75725   0.25000   0.20096   0.00000  Uiso   1.00
O208   O     0.90942   0.25001   0.29903   0.00000  Uiso   1.00
Zn209  Zn    0.83333   0.25001   0.30307   0.00000  Uiso   1.00
Zn210  Zn    0.83333   0.25000   0.19693   0.00000  Uiso   1.00
C211   C     0.99595   0.20018   0.20452   0.00000  Uiso   1.00
H212   H     0.68057   0.19333   0.17278   0.00000  Uiso   1.00
O213   O     0.96387   0.17373   0.21621   0.00000  Uiso   1.00
C214   C     0.67231   0.29967   0.29548   0.00000  Uiso   1.00
H215   H     0.70727   0.31736   0.28889   0.00000  Uiso   1.00
O216   O     0.98178   0.31352   0.32692   0.00000  Uiso   1.00
N217   N     0.90715   0.11774   0.31586   0.00000  Uiso   1.00
H218   H     0.94516   0.10901   0.31023   0.00000  Uiso   1.00
H219   H     0.90174   0.10734   0.35003   0.00000  Uiso   1.00
N220   N     0.89778   0.38280   0.19128   0.00000  Uiso   1.00
H221   H     0.88672   0.39292   0.15618   0.00000  Uiso   1.00
H222   H     0.93689   0.39182   0.20083   0.00000  Uiso   1.00
N223   N     0.76245   0.11653   0.18383   0.00000  Uiso   1.00
H224   H     0.76854   0.10836   0.14922   0.00000  Uiso   1.00
H225   H     0.72508   0.10568   0.18909   0.00000  Uiso   1.00
N226   N     0.77501   0.38489   0.31162   0.00000  Uiso   1.00
H227   H     0.78832   0.39306   0.34686   0.00000  Uiso   1.00
H228   H     0.73647   0.39624   0.30380   0.00000  Uiso   1.00
N229   N     0.76665   0.02231   0.18170   0.00000  Uiso   1.00
H230   H     0.78853   0.00276   0.16102   0.00000  Uiso   1.00
H231   H     0.74404   0.00111   0.20005   0.00000  Uiso   1.00
N232   N     0.77887   0.47873   0.31282   0.00000  Uiso   1.00
H233   H     0.80461   0.49841   0.33541   0.00000  Uiso   1.00
H234   H     0.75258   0.49979   0.29230   0.00000  Uiso   1.00
C235   C     0.73283   0.23267   0.01922   0.00000  Uiso   1.00
H236   H     0.72680   0.24010   0.48157   0.00000  Uiso   1.00
O237   O     0.69607   0.21787   0.03753   0.00000  Uiso   1.00
C238   C     0.85906   0.33470   0.47178   0.00000  Uiso   1.00
H239   H     0.85047   0.34032   0.00763   0.00000  Uiso   1.00
O240   O     0.87873   0.36508   0.45149   0.00000  Uiso   1.00
N241   N     0.92188   0.27884   0.13470   0.00000  Uiso   1.00
H242   H     0.95346   0.25962   0.12669   0.00000  Uiso   1.00
H243   H     0.92873   0.31188   0.12533   0.00000  Uiso   1.00
N244   N     0.79485   0.17608   0.37059   0.00000  Uiso   1.00
H245   H     0.75977   0.18578   0.35055   0.00000  Uiso   1.00
H246   H     0.78551   0.15068   0.39335   0.00000  Uiso   1.00
C247   C     0.16675   0.66403   0.25002   0.00000  Uiso   1.00
C248   C     0.16694   0.83613   0.25005   0.00000  Uiso   1.00
C249   C     0.11760   0.74102   0.04783   0.00000  Uiso   1.00
C250   C     0.17979   0.79135   0.44780   0.00000  Uiso   1.00
C251   C     0.12173   0.73855   0.09807   0.00000  Uiso   1.00
C252   C     0.18234   0.78773   0.39838   0.00000  Uiso   1.00
C253   C     0.20924   0.76373   0.10577   0.00000  Uiso   1.00
C254   C     0.14837   0.71434   0.39698   0.00000  Uiso   1.00
C255   C     0.20796   0.76423   0.05608   0.00000  Uiso   1.00
C256   C     0.14808   0.71549   0.44659   0.00000  Uiso   1.00
C257   C     0.16211   0.75357   0.02609   0.00000  Uiso   1.00
C258   C     0.16283   0.75408   0.47283   0.00000  Uiso   1.00
C259   C     0.06734   0.74894   0.23817   0.00000  Uiso   1.00
C260   C     0.26594   0.75126   0.26187   0.00000  Uiso   1.00
C261   C     0.01373   0.73965   0.23460   0.00000  Uiso   1.00
C262   C     0.31970   0.76018   0.26586   0.00000  Uiso   1.00
C263   C     0.20614   0.54747   0.28169   0.00000  Uiso   1.00
C264   C     0.20111   0.95304   0.22147   0.00000  Uiso   1.00
C265   C     0.20449   0.59365   0.28256   0.00000  Uiso   1.00
C266   C     0.19984   0.90682   0.22097   0.00000  Uiso   1.00
C267   C     0.16797   0.61616   0.24990   0.00000  Uiso   1.00
C268   C     0.16866   0.88429   0.25057   0.00000  Uiso   1.00
C269   C     0.13352   0.59284   0.21622   0.00000  Uiso   1.00
C270   C     0.14007   0.90801   0.28150   0.00000  Uiso   1.00
C271   C     0.13545   0.54641   0.21555   0.00000  Uiso   1.00
C272   C     0.14182   0.95444   0.28185   0.00000  Uiso   1.00
C273   C     0.17173   0.52425   0.24875   0.00000  Uiso   1.00
C274   C     0.17198   0.97642   0.25121   0.00000  Uiso   1.00
H275   H     0.23380   0.52962   0.30698   0.00000  Uiso   1.00
H276   H     0.22451   0.97079   0.19843   0.00000  Uiso   1.00
H277   H     0.08817   0.72866   0.11480   0.00000  Uiso   1.00
H278   H     0.19553   0.81581   0.37914   0.00000  Uiso   1.00
H279   H     0.24285   0.77373   0.04095   0.00000  Uiso   1.00
H280   H     0.13528   0.68642   0.46469   0.00000  Uiso   1.00
N281   N     0.16667   0.74999   0.12623   0.00000  Uiso   1.00
N282   N     0.16667   0.75001   0.37376   0.00000  Uiso   1.00
O283   O     0.16667   0.68454   0.28974   0.00000  Uiso   1.00
O284   O     0.16666   0.81547   0.21026   0.00000  Uiso   1.00
O285   O     0.16667   0.68453   0.21026   0.00000  Uiso   1.00
O286   O     0.16666   0.81547   0.28974   0.00000  Uiso   1.00
O287   O     0.09058   0.75000   0.28044   0.00000  Uiso   1.00
O288   O     0.24275   0.75000   0.21955   0.00000  Uiso   1.00
O289   O     0.09058   0.75000   0.20096   0.00000  Uiso   1.00
O290   O     0.24275   0.75001   0.29903   0.00000  Uiso   1.00
Zn291  Zn    0.16667   0.75001   0.30307   0.00000  Uiso   1.00
Zn292  Zn    0.16667   0.75000   0.19693   0.00000  Uiso   1.00
C293   C     0.32928   0.70018   0.20452   0.00000  Uiso   1.00
H294   H     0.01391   0.69333   0.17278   0.00000  Uiso   1.00
O295   O     0.29721   0.67373   0.21621   0.00000  Uiso   1.00
C296   C     0.00565   0.79967   0.29548   0.00000  Uiso   1.00
H297   H     0.04060   0.81736   0.28889   0.00000  Uiso   1.00
O298   O     0.31511   0.81352   0.32692   0.00000  Uiso   1.00
N299   N     0.24049   0.61774   0.31586   0.00000  Uiso   1.00
H300   H     0.27849   0.60901   0.31023   0.00000  Uiso   1.00
H301   H     0.23507   0.60734   0.35003   0.00000  Uiso   1.00
N302   N     0.23112   0.88280   0.19128   0.00000  Uiso   1.00
H303   H     0.22006   0.89292   0.15618   0.00000  Uiso   1.00
H304   H     0.27023   0.89182   0.20083   0.00000  Uiso   1.00
N305   N     0.09579   0.61653   0.18383   0.00000  Uiso   1.00
H306   H     0.10188   0.60836   0.14922   0.00000  Uiso   1.00
H307   H     0.05842   0.60568   0.18909   0.00000  Uiso   1.00
N308   N     0.10834   0.88489   0.31162   0.00000  Uiso   1.00
H309   H     0.12166   0.89306   0.34686   0.00000  Uiso   1.00
H310   H     0.06981   0.89624   0.30380   0.00000  Uiso   1.00
N311   N     0.09999   0.52231   0.18170   0.00000  Uiso   1.00
H312   H     0.12187   0.50276   0.16102   0.00000  Uiso   1.00
H313   H     0.07738   0.50111   0.20005   0.00000  Uiso   1.00
N314   N     0.11221   0.97873   0.31282   0.00000  Uiso   1.00
H315   H     0.13794   0.99841   0.33541   0.00000  Uiso   1.00
H316   H     0.08591   0.99979   0.29230   0.00000  Uiso   1.00
C317   C     0.06616   0.73267   0.01922   0.00000  Uiso   1.00
H318   H     0.06014   0.74010   0.48157   0.00000  Uiso   1.00
O319   O     0.02940   0.71787   0.03753   0.00000  Uiso   1.00
C320   C     0.19239   0.83470   0.47178   0.00000  Uiso   1.00
H321   H     0.18380   0.84032   0.00763   0.00000  Uiso   1.00
O322   O     0.21206   0.86508   0.45149   0.00000  Uiso   1.00
N323   N     0.25522   0.77884   0.13470   0.00000  Uiso   1.00
H324   H     0.28679   0.75962   0.12669   0.00000  Uiso   1.00
H325   H     0.26207   0.81188   0.12533   0.00000  Uiso   1.00
N326   N     0.12819   0.67608   0.37059   0.00000  Uiso   1.00
H327   H     0.09311   0.68578   0.35055   0.00000  Uiso   1.00
H328   H     0.11884   0.65068   0.39335   0.00000  Uiso   1.00
C329   C     0.50008   0.66403   0.25002   0.00000  Uiso   1.00
C330   C     0.50028   0.83613   0.25005   0.00000  Uiso   1.00
C331   C     0.45093   0.74102   0.04783   0.00000  Uiso   1.00
C332   C     0.51312   0.79135   0.44780   0.00000  Uiso   1.00
C333   C     0.45506   0.73855   0.09807   0.00000  Uiso   1.00
C334   C     0.51568   0.78773   0.39838   0.00000  Uiso   1.00
C335   C     0.54258   0.76373   0.10577   0.00000  Uiso   1.00
C336   C     0.48170   0.71434   0.39698   0.00000  Uiso   1.00
C337   C     0.54129   0.76423   0.05608   0.00000  Uiso   1.00
C338   C     0.48141   0.71549   0.44659   0.00000  Uiso   1.00
C339   C     0.49544   0.75357   0.02609   0.00000  Uiso   1.00
C340   C     0.49616   0.75408   0.47283   0.00000  Uiso   1.00
C341   C     0.40067   0.74894   0.23817   0.00000  Uiso   1.00
C342   C     0.59928   0.75126   0.26187   0.00000  Uiso   1.00
C343   C     0.34706   0.73965   0.23460   0.00000  Uiso   1.00
C344   C     0.65303   0.76018   0.26586   0.00000  Uiso   1.00
C345   C     0.53947   0.54747   0.28169   0.00000  Uiso   1.00
C346   C     0.53445   0.95304   0.22147   0.00000  Uiso   1.00
C347   C     0.53783   0.59365   0.28256   0.00000  Uiso   1.00
C348   C     0.53317   0.90682   0.22097   0.00000  Uiso   1.00
C349   C     0.50131   0.61616   0.24990   0.00000  Uiso   1.00
C350   C     0.50200   0.88429   0.25057   0.00000  Uiso   1.00
C351   C     0.46686   0.59284   0.21622   0.00000  Uiso   1.00
C352   C     0.47340   0.90801   0.28150   0.00000  Uiso   1.00
C353   C     0.46879   0.54641   0.21555   0.00000  Uiso   1.00
C354   C     0.47515   0.95444   0.28185   0.00000  Uiso   1.00
C355   C     0.50506   0.52425   0.24875   0.00000  Uiso   1.00
C356   C     0.50531   0.97642   0.25121   0.00000  Uiso   1.00
H357   H     0.56713   0.52962   0.30698   0.00000  Uiso   1.00
H358   H     0.55785   0.97079   0.19843   0.00000  Uiso   1.00
H359   H     0.42150   0.72866   0.11480   0.00000  Uiso   1.00
H360   H     0.52886   0.81581   0.37914   0.00000  Uiso   1.00
H361   H     0.57619   0.77373   0.04095   0.00000  Uiso   1.00
H362   H     0.46862   0.68642   0.46469   0.00000  Uiso   1.00
N363   N     0.50000   0.74999   0.12623   0.00000  Uiso   1.00
N364   N     0.50000   0.75001   0.37376   0.00000  Uiso   1.00
O365   O     0.50000   0.68454   0.28974   0.00000  Uiso   1.00
O366   O     0.50000   0.81547   0.21026   0.00000  Uiso   1.00
O367   O     0.50000   0.68453   0.21026   0.00000  Uiso   1.00
O368   O     0.50000   0.81547   0.28974   0.00000  Uiso   1.00
O369   O     0.42392   0.75000   0.28044   0.00000  Uiso   1.00
O370   O     0.57608   0.75000   0.21955   0.00000  Uiso   1.00
O371   O     0.42392   0.75000   0.20096   0.00000  Uiso   1.00
O372   O     0.57608   0.75001   0.29903   0.00000  Uiso   1.00
Zn373  Zn    0.50000   0.75001   0.30307   0.00000  Uiso   1.00
Zn374  Zn    0.50000   0.75000   0.19693   0.00000  Uiso   1.00
C375   C     0.66261   0.70018   0.20452   0.00000  Uiso   1.00
H376   H     0.34724   0.69333   0.17278   0.00000  Uiso   1.00
O377   O     0.63054   0.67373   0.21621   0.00000  Uiso   1.00
C378   C     0.33898   0.79967   0.29548   0.00000  Uiso   1.00
H379   H     0.37393   0.81736   0.28889   0.00000  Uiso   1.00
O380   O     0.64844   0.81352   0.32692   0.00000  Uiso   1.00
N381   N     0.57382   0.61774   0.31586   0.00000  Uiso   1.00
H382   H     0.61182   0.60901   0.31023   0.00000  Uiso   1.00
H383   H     0.56840   0.60734   0.35003   0.00000  Uiso   1.00
N384   N     0.56445   0.88280   0.19128   0.00000  Uiso   1.00
H385   H     0.55339   0.89292   0.15618   0.00000  Uiso   1.00
H386   H     0.60356   0.89182   0.20083   0.00000  Uiso   1.00
N387   N     0.42912   0.61653   0.18383   0.00000  Uiso   1.00
H388   H     0.43521   0.60836   0.14922   0.00000  Uiso   1.00
H389   H     0.39175   0.60568   0.18909   0.00000  Uiso   1.00
N390   N     0.44167   0.88489   0.31162   0.00000  Uiso   1.00
H391   H     0.45499   0.89306   0.34686   0.00000  Uiso   1.00
H392   H     0.40314   0.89624   0.30380   0.00000  Uiso   1.00
N393   N     0.43332   0.52231   0.18170   0.00000  Uiso   1.00
H394   H     0.45520   0.50276   0.16102   0.00000  Uiso   1.00
H395   H     0.41071   0.50111   0.20005   0.00000  Uiso   1.00
N396   N     0.44554   0.97873   0.31282   0.00000  Uiso   1.00
H397   H     0.47128   0.99841   0.33541   0.00000  Uiso   1.00
H398   H     0.41925   0.99979   0.29230   0.00000  Uiso   1.00
C399   C     0.39949   0.73267   0.01922   0.00000  Uiso   1.00
H400   H     0.39347   0.74010   0.48157   0.00000  Uiso   1.00
O401   O     0.36274   0.71787   0.03753   0.00000  Uiso   1.00
C402   C     0.52573   0.83470   0.47178   0.00000  Uiso   1.00
H403   H     0.51713   0.84032   0.00763   0.00000  Uiso   1.00
O404   O     0.54539   0.86508   0.45149   0.00000  Uiso   1.00
N405   N     0.58855   0.77884   0.13470   0.00000  Uiso   1.00
H406   H     0.62013   0.75962   0.12669   0.00000  Uiso   1.00
H407   H     0.59540   0.81188   0.12533   0.00000  Uiso   1.00
N408   N     0.46152   0.67608   0.37059   0.00000  Uiso   1.00
H409   H     0.42644   0.68578   0.35055   0.00000  Uiso   1.00
H410   H     0.45218   0.65068   0.39335   0.00000  Uiso   1.00
C411   C     0.83342   0.66403   0.25002   0.00000  Uiso   1.00
C412   C     0.83361   0.83613   0.25005   0.00000  Uiso   1.00
C413   C     0.78427   0.74102   0.04783   0.00000  Uiso   1.00
C414   C     0.84645   0.79135   0.44780   0.00000  Uiso   1.00
C415   C     0.78839   0.73855   0.09807   0.00000  Uiso   1.00
C416   C     0.84901   0.78773   0.39838   0.00000  Uiso   1.00
C417   C     0.87591   0.76373   0.10577   0.00000  Uiso   1.00
C418   C     0.81504   0.71434   0.39698   0.00000  Uiso   1.00
C419   C     0.87462   0.76423   0.05608   0.00000  Uiso   1.00
C420   C     0.81474   0.71549   0.44659   0.00000  Uiso   1.00
C421   C     0.82878   0.75357   0.02609   0.00000  Uiso   1.00
C422   C     0.82950   0.75408   0.47283   0.00000  Uiso   1.00
C423   C     0.73401   0.74894   0.23817   0.00000  Uiso   1.00
C424   C     0.93261   0.75126   0.26187   0.00000  Uiso   1.00
C425   C     0.68040   0.73965   0.23460   0.00000  Uiso   1.00
C426   C     0.98636   0.76018   0.26586   0.00000  Uiso   1.00
C427   C     0.87280   0.54747   0.28169   0.00000  Uiso   1.00
C428   C     0.86778   0.95304   0.22147   0.00000  Uiso   1.00
C429   C     0.87116   0.59365   0.28256   0.00000  Uiso   1.00
C430   C     0.86651   0.90682   0.22097   0.00000  Uiso   1.00
C431   C     0.83464   0.61616   0.24990   0.00000  Uiso   1.00
C432   C     0.83533   0.88429   0.25057   0.00000  Uiso   1.00
C433   C     0.80019   0.59284   0.21622   0.00000  Uiso   1.00
C434   C     0.80673   0.90801   0.28150   0.00000  Uiso   1.00
C435   C     0.80212   0.54641   0.21555   0.00000  Uiso   1.00
C436   C     0.80849   0.95444   0.28185   0.00000  Uiso   1.00
C437   C     0.83839   0.52425   0.24875   0.00000  Uiso   1.00
C438   C     0.83864   0.97642   0.25121   0.00000  Uiso   1.00
H439   H     0.90047   0.52962   0.30698   0.00000  Uiso   1.00
H440   H     0.89118   0.97079   0.19843   0.00000  Uiso   1.00
H441   H     0.75483   0.72866   0.11480   0.00000  Uiso   1.00
H442   H     0.86220   0.81581   0.37914   0.00000  Uiso   1.00
H443   H     0.90952   0.77373   0.04095   0.00000  Uiso   1.00
H444   H     0.80195   0.68642   0.46469   0.00000  Uiso   1.00
N445   N     0.83333   0.74999   0.12623   0.00000  Uiso   1.00
N446   N     0.83333   0.75001   0.37376   0.00000  Uiso   1.00
O447   O     0.83334   0.68454   0.28974   0.00000  Uiso   1.00
O448   O     0.83333   0.81547   0.21026   0.00000  Uiso   1.00
O449   O     0.83334   0.68453   0.21026   0.00000  Uiso   1.00
O450   O     0.83333   0.81547   0.28974   0.00000  Uiso   1.00
O451   O     0.75725   0.75000   0.28044   0.00000  Uiso   1.00
O452   O     0.90942   0.75000   0.21955   0.00000  Uiso   1.00
O453   O     0.75725   0.75000   0.20096   0.00000  Uiso   1.00
O454   O     0.90942   0.75001   0.29903   0.00000  Uiso   1.00
Zn455  Zn    0.83333   0.75001   0.30307   0.00000  Uiso   1.00
Zn456  Zn    0.83333   0.75000   0.19693   0.00000  Uiso   1.00
C457   C     0.99595   0.70018   0.20452   0.00000  Uiso   1.00
H458   H     0.68057   0.69333   0.17278   0.00000  Uiso   1.00
O459   O     0.96387   0.67373   0.21621   0.00000  Uiso   1.00
C460   C     0.67231   0.79967   0.29548   0.00000  Uiso   1.00
H461   H     0.70727   0.81736   0.28889   0.00000  Uiso   1.00
O462   O     0.98178   0.81352   0.32692   0.00000  Uiso   1.00
N463   N     0.90715   0.61774   0.31586   0.00000  Uiso   1.00
H464   H     0.94516   0.60901   0.31023   0.00000  Uiso   1.00
H465   H     0.90174   0.60734   0.35003   0.00000  Uiso   1.00
N466   N     0.89778   0.88280   0.19128   0.00000  Uiso   1.00
H467   H     0.88672   0.89292   0.15618   0.00000  Uiso   1.00
H468   H     0.93689   0.89182   0.20083   0.00000  Uiso   1.00
N469   N     0.76245   0.61653   0.18383   0.00000  Uiso   1.00
H470   H     0.76854   0.60836   0.14922   0.00000  Uiso   1.00
H471   H     0.72508   0.60568   0.18909   0.00000  Uiso   1.00
N472   N     0.77501   0.88489   0.31162   0.00000  Uiso   1.00
H473   H     0.78832   0.89306   0.34686   0.00000  Uiso   1.00
H474   H     0.73647   0.89624   0.30380   0.00000  Uiso   1.00
N475   N     0.76665   0.52231   0.18170   0.00000  Uiso   1.00
H476   H     0.78853   0.50276   0.16102   0.00000  Uiso   1.00
H477   H     0.74404   0.50111   0.20005   0.00000  Uiso   1.00
N478   N     0.77887   0.97873   0.31282   0.00000  Uiso   1.00
H479   H     0.80461   0.99841   0.33541   0.00000  Uiso   1.00
H480   H     0.75258   0.99979   0.29230   0.00000  Uiso   1.00
C481   C     0.73283   0.73267   0.01922   0.00000  Uiso   1.00
H482   H     0.72680   0.74010   0.48157   0.00000  Uiso   1.00
O483   O     0.69607   0.71787   0.03753   0.00000  Uiso   1.00
C484   C     0.85906   0.83470   0.47178   0.00000  Uiso   1.00
H485   H     0.85047   0.84032   0.00763   0.00000  Uiso   1.00
O486   O     0.87873   0.86508   0.45149   0.00000  Uiso   1.00
N487   N     0.92188   0.77884   0.13470   0.00000  Uiso   1.00
H488   H     0.95346   0.75962   0.12669   0.00000  Uiso   1.00
H489   H     0.92873   0.81188   0.12533   0.00000  Uiso   1.00
N490   N     0.79485   0.67608   0.37059   0.00000  Uiso   1.00
H491   H     0.75977   0.68578   0.35055   0.00000  Uiso   1.00
H492   H     0.78551   0.65068   0.39335   0.00000  Uiso   1.00
C493   C     0.16675   0.16403   0.75002   0.00000  Uiso   1.00
C494   C     0.16694   0.33613   0.75005   0.00000  Uiso   1.00
C495   C     0.11760   0.24102   0.54783   0.00000  Uiso   1.00
C496   C     0.17979   0.29135   0.94780   0.00000  Uiso   1.00
C497   C     0.12173   0.23855   0.59807   0.00000  Uiso   1.00
C498   C     0.18234   0.28773   0.89838   0.00000  Uiso   1.00
C499   C     0.20924   0.26373   0.60577   0.00000  Uiso   1.00
C500   C     0.14837   0.21434   0.89698   0.00000  Uiso   1.00
C501   C     0.20796   0.26423   0.55608   0.00000  Uiso   1.00
C502   C     0.14808   0.21549   0.94659   0.00000  Uiso   1.00
C503   C     0.16211   0.25357   0.52609   0.00000  Uiso   1.00
C504   C     0.16283   0.25408   0.97283   0.00000  Uiso   1.00
C505   C     0.06734   0.24894   0.73817   0.00000  Uiso   1.00
C506   C     0.26594   0.25126   0.76187   0.00000  Uiso   1.00
C507   C     0.01373   0.23965   0.73460   0.00000  Uiso   1.00
C508   C     0.31970   0.26018   0.76586   0.00000  Uiso   1.00
C509   C     0.20614   0.04747   0.78169   0.00000  Uiso   1.00
C510   C     0.20111   0.45304   0.72147   0.00000  Uiso   1.00
C511   C     0.20449   0.09365   0.78256   0.00000  Uiso   1.00
C512   C     0.19984   0.40682   0.72097   0.00000  Uiso   1.00
C513   C     0.16797   0.11616   0.74990   0.00000  Uiso   1.00
C514   C     0.16866   0.38429   0.75057   0.00000  Uiso   1.00
C515   C     0.13352   0.09284   0.71622   0.00000  Uiso   1.00
C516   C     0.14007   0.40801   0.78150   0.00000  Uiso   1.00
C517   C     0.13545   0.04641   0.71555   0.00000  Uiso   1.00
C518   C     0.14182   0.45444   0.78185   0.00000  Uiso   1.00
C519   C     0.17173   0.02425   0.74875   0.00000  Uiso   1.00
C520   C     0.17198   0.47642   0.75121   0.00000  Uiso   1.00
H521   H     0.23380   0.02962   0.80698   0.00000  Uiso   1.00
H522   H     0.22451   0.47079   0.69843   0.00000  Uiso   1.00
H523   H     0.08817   0.22866   0.61480   0.00000  Uiso   1.00
H524   H     0.19553   0.31581   0.87914   0.00000  Uiso   1.00
H525   H     0.24285   0.27373   0.54095   0.00000  Uiso   1.00
H526   H     0.13528   0.18642   0.96469   0.00000  Uiso   1.00
N527   N     0.16667   0.24999   0.62623   0.00000  Uiso   1.00
N528   N     0.16667   0.25001   0.87376   0.00000  Uiso   1.00
O529   O     0.16667   0.18454   0.78974   0.00000  Uiso   1.00
O530   O     0.16666   0.31547   0.71026   0.00000  Uiso   1.00
O531   O     0.16667   0.18453   0.71026   0.00000  Uiso   1.00
O532   O     0.16666   0.31547   0.78974   0.00000  Uiso   1.00
O533   O     0.09058   0.25000   0.78044   0.00000  Uiso   1.00
O534   O     0.24275   0.25000   0.71955   0.00000  Uiso   1.00
O535   O     0.09058   0.25000   0.70096   0.00000  Uiso   1.00
O536   O     0.24275   0.25001   0.79903   0.00000  Uiso   1.00
Zn537  Zn    0.16667   0.25001   0.80307   0.00000  Uiso   1.00
Zn538  Zn    0.16667   0.25000   0.69693   0.00000  Uiso   1.00
C539   C     0.32928   0.20018   0.70452   0.00000  Uiso   1.00
H540   H     0.01391   0.19333   0.67278   0.00000  Uiso   1.00
O541   O     0.29721   0.17373   0.71621   0.00000  Uiso   1.00
C542   C     0.00565   0.29967   0.79548   0.00000  Uiso   1.00
H543   H     0.04060   0.31736   0.78889   0.00000  Uiso   1.00
O544   O     0.31511   0.31352   0.82692   0.00000  Uiso   1.00
N545   N     0.24049   0.11774   0.81586   0.00000  Uiso   1.00
H546   H     0.27849   0.10901   0.81023   0.00000  Uiso   1.00
H547   H     0.23507   0.10734   0.85003   0.00000  Uiso   1.00
N548   N     0.23112   0.38280   0.69128   0.00000  Uiso   1.00
H549   H     0.22006   0.39292   0.65618   0.00000  Uiso   1.00
H550   H     0.27023   0.39182   0.70083   0.00000  Uiso   1.00
N551   N     0.09579   0.11653   0.68383   0.00000  Uiso   1.00
H552   H     0.10188   0.10836   0.64922   0.00000  Uiso   1.00
H553   H     0.05842   0.10568   0.68909   0.00000  Uiso   1.00
N554   N     0.10834   0.38489   0.81162   0.00000  Uiso   1.00
H555   H     0.12166   0.39306   0.84686   0.00000  Uiso   1.00
H556   H     0.06981   0.39624   0.80380   0.00000  Uiso   1.00
N557   N     0.09999   0.02231   0.68170   0.00000  Uiso   1.00
H558   H     0.12187   0.00276   0.66102   0.00000  Uiso   1.00
H559   H     0.07738   0.00111   0.70005   0.00000  Uiso   1.00
N560   N     0.11221   0.47873   0.81282   0.00000  Uiso   1.00
H561   H     0.13794   0.49841   0.83541   0.00000  Uiso   1.00
H562   H     0.08591   0.49979   0.79230   0.00000  Uiso   1.00
C563   C     0.06616   0.23267   0.51922   0.00000  Uiso   1.00
H564   H     0.06014   0.24010   0.98157   0.00000  Uiso   1.00
O565   O     0.02940   0.21787   0.53753   0.00000  Uiso   1.00
C566   C     0.19239   0.33470   0.97178   0.00000  Uiso   1.00
H567   H     0.18380   0.34032   0.50763   0.00000  Uiso   1.00
O568   O     0.21206   0.36508   0.95149   0.00000  Uiso   1.00
N569   N     0.25522   0.27884   0.63470   0.00000  Uiso   1.00
H570   H     0.28679   0.25962   0.62669   0.00000  Uiso   1.00
H571   H     0.26207   0.31188   0.62533   0.00000  Uiso   1.00
N572   N     0.12819   0.17608   0.87059   0.00000  Uiso   1.00
H573   H     0.09311   0.18578   0.85055   0.00000  Uiso   1.00
H574   H     0.11884   0.15068   0.89335   0.00000  Uiso   1.00
C575   C     0.50008   0.16403   0.75002   0.00000  Uiso   1.00
C576   C     0.50028   0.33613   0.75005   0.00000  Uiso   1.00
C577   C     0.45093   0.24102   0.54783   0.00000  Uiso   1.00
C578   C     0.51312   0.29135   0.94780   0.00000  Uiso   1.00
C579   C     0.45506   0.23855   0.59807   0.00000  Uiso   1.00
C580   C     0.51568   0.28773   0.89838   0.00000  Uiso   1.00
C581   C     0.54258   0.26373   0.60577   0.00000  Uiso   1.00
C582   C     0.48170   0.21434   0.89698   0.00000  Uiso   1.00
C583   C     0.54129   0.26423   0.55608   0.00000  Uiso   1.00
C584   C     0.48141   0.21549   0.94659   0.00000  Uiso   1.00
C585   C     0.49544   0.25357   0.52609   0.00000  Uiso   1.00
C586   C     0.49616   0.25408   0.97283   0.00000  Uiso   1.00
C587   C     0.40067   0.24894   0.73817   0.00000  Uiso   1.00
C588   C     0.59928   0.25126   0.76187   0.00000  Uiso   1.00
C589   C     0.34706   0.23965   0.73460   0.00000  Uiso   1.00
C590   C     0.65303   0.26018   0.76586   0.00000  Uiso   1.00
C591   C     0.53947   0.04747   0.78169   0.00000  Uiso   1.00
C592   C     0.53445   0.45304   0.72147   0.00000  Uiso   1.00
C593   C     0.53783   0.09365   0.78256   0.00000  Uiso   1.00
C594   C     0.53317   0.40682   0.72097   0.00000  Uiso   1.00
C595   C     0.50131   0.11616   0.74990   0.00000  Uiso   1.00
C596   C     0.50200   0.38429   0.75057   0.00000  Uiso   1.00
C597   C     0.46686   0.09284   0.71622   0.00000  Uiso   1.00
C598   C     0.47340   0.40801   0.78150   0.00000  Uiso   1.00
C599   C     0.46879   0.04641   0.71555   0.00000  Uiso   1.00
C600   C     0.47515   0.45444   0.78185   0.00000  Uiso   1.00
C601   C     0.50506   0.02425   0.74875   0.00000  Uiso   1.00
C602   C     0.50531   0.47642   0.75121   0.00000  Uiso   1.00
H603   H     0.56713   0.02962   0.80698   0.00000  Uiso   1.00
H604   H     0.55785   0.47079   0.69843   0.00000  Uiso   1.00
H605   H     0.42150   0.22866   0.61480   0.00000  Uiso   1.00
H606   H     0.52886   0.31581   0.87914   0.00000  Uiso   1.00
H607   H     0.57619   0.27373   0.54095   0.00000  Uiso   1.00
H608   H     0.46862   0.18642   0.96469   0.00000  Uiso   1.00
N609   N     0.50000   0.24999   0.62623   0.00000  Uiso   1.00
N610   N     0.50000   0.25001   0.87376   0.00000  Uiso   1.00
O611   O     0.50000   0.18454   0.78974   0.00000  Uiso   1.00
O612   O     0.50000   0.31547   0.71026   0.00000  Uiso   1.00
O613   O     0.50000   0.18453   0.71026   0.00000  Uiso   1.00
O614   O     0.50000   0.31547   0.78974   0.00000  Uiso   1.00
O615   O     0.42392   0.25000   0.78044   0.00000  Uiso   1.00
O616   O     0.57608   0.25000   0.71955   0.00000  Uiso   1.00
O617   O     0.42392   0.25000   0.70096   0.00000  Uiso   1.00
O618   O     0.57608   0.25001   0.79903   0.00000  Uiso   1.00
Zn619  Zn    0.50000   0.25001   0.80307   0.00000  Uiso   1.00
Zn620  Zn    0.50000   0.25000   0.69693   0.00000  Uiso   1.00
C621   C     0.66261   0.20018   0.70452   0.00000  Uiso   1.00
H622   H     0.34724   0.19333   0.67278   0.00000  Uiso   1.00
O623   O     0.63054   0.17373   0.71621   0.00000  Uiso   1.00
C624   C     0.33898   0.29967   0.79548   0.00000  Uiso   1.00
H625   H     0.37393   0.31736   0.78889   0.00000  Uiso   1.00
O626   O     0.64844   0.31352   0.82692   0.00000  Uiso   1.00
N627   N     0.57382   0.11774   0.81586   0.00000  Uiso   1.00
H628   H     0.61182   0.10901   0.81023   0.00000  Uiso   1.00
H629   H     0.56840   0.10734   0.85003   0.00000  Uiso   1.00
N630   N     0.56445   0.38280   0.69128   0.00000  Uiso   1.00
H631   H     0.55339   0.39292   0.65618   0.00000  Uiso   1.00
H632   H     0.60356   0.39182   0.70083   0.00000  Uiso   1.00
N633   N     0.42912   0.11653   0.68383   0.00000  Uiso   1.00
H634   H     0.43521   0.10836   0.64922   0.00000  Uiso   1.00
H635   H     0.39175   0.10568   0.68909   0.00000  Uiso   1.00
N636   N     0.44167   0.38489   0.81162   0.00000  Uiso   1.00
H637   H     0.45499   0.39306   0.84686   0.00000  Uiso   1.00
H638   H     0.40314   0.39624   0.80380   0.00000  Uiso   1.00
N639   N     0.43332   0.02231   0.68170   0.00000  Uiso   1.00
H640   H     0.45520   0.00276   0.66102   0.00000  Uiso   1.00
H641   H     0.41071   0.00111   0.70005   0.00000  Uiso   1.00
N642   N     0.44554   0.47873   0.81282   0.00000  Uiso   1.00
H643   H     0.47128   0.49841   0.83541   0.00000  Uiso   1.00
H644   H     0.41925   0.49979   0.79230   0.00000  Uiso   1.00
C645   C     0.39949   0.23267   0.51922   0.00000  Uiso   1.00
H646   H     0.39347   0.24010   0.98157   0.00000  Uiso   1.00
O647   O     0.36274   0.21787   0.53753   0.00000  Uiso   1.00
C648   C     0.52573   0.33470   0.97178   0.00000  Uiso   1.00
H649   H     0.51713   0.34032   0.50763   0.00000  Uiso   1.00
O650   O     0.54539   0.36508   0.95149   0.00000  Uiso   1.00
N651   N     0.58855   0.27884   0.63470   0.00000  Uiso   1.00
H652   H     0.62013   0.25962   0.62669   0.00000  Uiso   1.00
H653   H     0.59540   0.31188   0.62533   0.00000  Uiso   1.00
N654   N     0.46152   0.17608   0.87059   0.00000  Uiso   1.00
H655   H     0.42644   0.18578   0.85055   0.00000  Uiso   1.00
H656   H     0.45218   0.15068   0.89335   0.00000  Uiso   1.00
C657   C     0.83342   0.16403   0.75002   0.00000  Uiso   1.00
C658   C     0.83361   0.33613   0.75005   0.00000  Uiso   1.00
C659   C     0.78427   0.24102   0.54783   0.00000  Uiso   1.00
C660   C     0.84645   0.29135   0.94780   0.00000  Uiso   1.00
C661   C     0.78839   0.23855   0.59807   0.00000  Uiso   1.00
C662   C     0.84901   0.28773   0.89838   0.00000  Uiso   1.00
C663   C     0.87591   0.26373   0.60577   0.00000  Uiso   1.00
C664   C     0.81504   0.21434   0.89698   0.00000  Uiso   1.00
C665   C     0.87462   0.26423   0.55608   0.00000  Uiso   1.00
C666   C     0.81474   0.21549   0.94659   0.00000  Uiso   1.00
C667   C     0.82878   0.25357   0.52609   0.00000  Uiso   1.00
C668   C     0.82950   0.25408   0.97283   0.00000  Uiso   1.00
C669   C     0.73401   0.24894   0.73817   0.00000  Uiso   1.00
C670   C     0.93261   0.25126   0.76187   0.00000  Uiso   1.00
C671   C     0.68040   0.23965   0.73460   0.00000  Uiso   1.00
C672   C     0.98636   0.26018   0.76586   0.00000  Uiso   1.00
C673   C     0.87280   0.04747   0.78169   0.00000  Uiso   1.00
C674   C     0.86778   0.45304   0.72147   0.00000  Uiso   1.00
C675   C     0.87116   0.09365   0.78256   0.00000  Uiso   1.00
C676   C     0.86651   0.40682   0.72097   0.00000  Uiso   1.00
C677   C     0.83464   0.11616   0.74990   0.00000  Uiso   1.00
C678   C     0.83533   0.38429   0.75057   0.00000  Uiso   1.00
C679   C     0.80019   0.09284   0.71622   0.00000  Uiso   1.00
C680   C     0.80673   0.40801   0.78150   0.00000  Uiso   1.00
C681   C     0.80212   0.04641   0.71555   0.00000  Uiso   1.00
C682   C     0.80849   0.45444   0.78185   0.00000  Uiso   1.00
C683   C     0.83839   0.02425   0.74875   0.00000  Uiso   1.00
C684   C     0.83864   0.47642   0.75121   0.00000  Uiso   1.00
H685   H     0.90047   0.02962   0.80698   0.00000  Uiso   1.00
H686   H     0.89118   0.47079   0.69843   0.00000  Uiso   1.00
H687   H     0.75483   0.22866   0.61480   0.00000  Uiso   1.00
H688   H     0.86220   0.31581   0.87914   0.00000  Uiso   1.00
H689   H     0.90952   0.27373   0.54095   0.00000  Uiso   1.00
H690   H     0.80195   0.18642   0.96469   0.00000  Uiso   1.00
N691   N     0.83333   0.24999   0.62623   0.00000  Uiso   1.00
N692   N     0.83333   0.25001   0.87376   0.00000  Uiso   1.00
O693   O     0.83334   0.18454   0.78974   0.00000  Uiso   1.00
O694   O     0.83333   0.31547   0.71026   0.00000  Uiso   1.00
O695   O     0.83334   0.18453   0.71026   0.00000  Uiso   1.00
O696   O     0.83333   0.31547   0.78974   0.00000  Uiso   1.00
O697   O     0.75725   0.25000   0.78044   0.00000  Uiso   1.00
O698   O     0.90942   0.25000   0.71955   0.00000  Uiso   1.00
O699   O     0.75725   0.25000   0.70096   0.00000  Uiso   1.00
O700   O     0.90942   0.25001   0.79903   0.00000  Uiso   1.00
Zn701  Zn    0.83333   0.25001   0.80307   0.00000  Uiso   1.00
Zn702  Zn    0.83333   0.25000   0.69693   0.00000  Uiso   1.00
C703   C     0.99595   0.20018   0.70452   0.00000  Uiso   1.00
H704   H     0.68057   0.19333   0.67278   0.00000  Uiso   1.00
O705   O     0.96387   0.17373   0.71621   0.00000  Uiso   1.00
C706   C     0.67231   0.29967   0.79548   0.00000  Uiso   1.00
H707   H     0.70727   0.31736   0.78889   0.00000  Uiso   1.00
O708   O     0.98178   0.31352   0.82692   0.00000  Uiso   1.00
N709   N     0.90715   0.11774   0.81586   0.00000  Uiso   1.00
H710   H     0.94516   0.10901   0.81023   0.00000  Uiso   1.00
H711   H     0.90174   0.10734   0.85003   0.00000  Uiso   1.00
N712   N     0.89778   0.38280   0.69128   0.00000  Uiso   1.00
H713   H     0.88672   0.39292   0.65618   0.00000  Uiso   1.00
H714   H     0.93689   0.39182   0.70083   0.00000  Uiso   1.00
N715   N     0.76245   0.11653   0.68383   0.00000  Uiso   1.00
H716   H     0.76854   0.10836   0.64922   0.00000  Uiso   1.00
H717   H     0.72508   0.10568   0.68909   0.00000  Uiso   1.00
N718   N     0.77501   0.38489   0.81162   0.00000  Uiso   1.00
H719   H     0.78832   0.39306   0.84686   0.00000  Uiso   1.00
H720   H     0.73647   0.39624   0.80380   0.00000  Uiso   1.00
N721   N     0.76665   0.02231   0.68170   0.00000  Uiso   1.00
H722   H     0.78853   0.00276   0.66102   0.00000  Uiso   1.00
H723   H     0.74404   0.00111   0.70005   0.00000  Uiso   1.00
N724   N     0.77887   0.47873   0.81282   0.00000  Uiso   1.00
H725   H     0.80461   0.49841   0.83541   0.00000  Uiso   1.00
H726   H     0.75258   0.49979   0.79230   0.00000  Uiso   1.00
C727   C     0.73283   0.23267   0.51922   0.00000  Uiso   1.00
H728   H     0.72680   0.24010   0.98157   0.00000  Uiso   1.00
O729   O     0.69607   0.21787   0.53753   0.00000  Uiso   1.00
C730   C     0.85906   0.33470   0.97178   0.00000  Uiso   1.00
H731   H     0.85047   0.34032   0.50763   0.00000  Uiso   1.00
O732   O     0.87873   0.36508   0.95149   0.00000  Uiso   1.00
N733   N     0.92188   0.27884   0.63470   0.00000  Uiso   1.00
H734   H     0.95346   0.25962   0.62669   0.00000  Uiso   1.00
H735   H     0.92873   0.31188   0.62533   0.00000  Uiso   1.00
N736   N     0.79485   0.17608   0.87059   0.00000  Uiso   1.00
H737   H     0.75977   0.18578   0.85055   0.00000  Uiso   1.00
H738   H     0.78551   0.15068   0.89335   0.00000  Uiso   1.00
C739   C     0.16675   0.66403   0.75002   0.00000  Uiso   1.00
C740   C     0.16694   0.83613   0.75005   0.00000  Uiso   1.00
C741   C     0.11760   0.74102   0.54783   0.00000  Uiso   1.00
C742   C     0.17979   0.79135   0.94780   0.00000  Uiso   1.00
C743   C     0.12173   0.73855   0.59807   0.00000  Uiso   1.00
C744   C     0.18234   0.78773   0.89838   0.00000  Uiso   1.00
C745   C     0.20924   0.76373   0.60577   0.00000  Uiso   1.00
C746   C     0.14837   0.71434   0.89698   0.00000  Uiso   1.00
C747   C     0.20796   0.76423   0.55608   0.00000  Uiso   1.00
C748   C     0.14808   0.71549   0.94659   0.00000  Uiso   1.00
C749   C     0.16211   0.75357   0.52609   0.00000  Uiso   1.00
C750   C     0.16283   0.75408   0.97283   0.00000  Uiso   1.00
C751   C     0.06734   0.74894   0.73817   0.00000  Uiso   1.00
C752   C     0.26594   0.75126   0.76187   0.00000  Uiso   1.00
C753   C     0.01373   0.73965   0.73460   0.00000  Uiso   1.00
C754   C     0.31970   0.76018   0.76586   0.00000  Uiso   1.00
C755   C     0.20614   0.54747   0.78169   0.00000  Uiso   1.00
C756   C     0.20111   0.95304   0.72147   0.00000  Uiso   1.00
C757   C     0.20449   0.59365   0.78256   0.00000  Uiso   1.00
C758   C     0.19984   0.90682   0.72097   0.00000  Uiso   1.00
C759   C     0.16797   0.61616   0.74990   0.00000  Uiso   1.00
C760   C     0.16866   0.88429   0.75057   0.00000  Uiso   1.00
C761   C     0.13352   0.59284   0.71622   0.00000  Uiso   1.00
C762   C     0.14007   0.90801   0.78150   0.00000  Uiso   1.00
C763   C     0.13545   0.54641   0.71555   0.00000  Uiso   1.00
C764   C     0.14182   0.95444   0.78185   0.00000  Uiso   1.00
C765   C     0.17173   0.52425   0.74875   0.00000  Uiso   1.00
C766   C     0.17198   0.97642   0.75121   0.00000  Uiso   1.00
H767   H     0.23380   0.52962   0.80698   0.00000  Uiso   1.00
H768   H     0.22451   0.97079   0.69843   0.00000  Uiso   1.00
H769   H     0.08817   0.72866   0.61480   0.00000  Uiso   1.00
H770   H     0.19553   0.81581   0.87914   0.00000  Uiso   1.00
H771   H     0.24285   0.77373   0.54095   0.00000  Uiso   1.00
H772   H     0.13528   0.68642   0.96469   0.00000  Uiso   1.00
N773   N     0.16667   0.74999   0.62623   0.00000  Uiso   1.00
N774   N     0.16667   0.75001   0.87376   0.00000  Uiso   1.00
O775   O     0.16667   0.68454   0.78974   0.00000  Uiso   1.00
O776   O     0.16666   0.81547   0.71026   0.00000  Uiso   1.00
O777   O     0.16667   0.68453   0.71026   0.00000  Uiso   1.00
O778   O     0.16666   0.81547   0.78974   0.00000  Uiso   1.00
O779   O     0.09058   0.75000   0.78044   0.00000  Uiso   1.00
O780   O     0.24275   0.75000   0.71955   0.00000  Uiso   1.00
O781   O     0.09058   0.75000   0.70096   0.00000  Uiso   1.00
O782   O     0.24275   0.75001   0.79903   0.00000  Uiso   1.00
Zn783  Zn    0.16667   0.75001   0.80307   0.00000  Uiso   1.00
Zn784  Zn    0.16667   0.75000   0.69693   0.00000  Uiso   1.00
C785   C     0.32928   0.70018   0.70452   0.00000  Uiso   1.00
H786   H     0.01391   0.69333   0.67278   0.00000  Uiso   1.00
O787   O     0.29721   0.67373   0.71621   0.00000  Uiso   1.00
C788   C     0.00565   0.79967   0.79548   0.00000  Uiso   1.00
H789   H     0.04060   0.81736   0.78889   0.00000  Uiso   1.00
O790   O     0.31511   0.81352   0.82692   0.00000  Uiso   1.00
N791   N     0.24049   0.61774   0.81586   0.00000  Uiso   1.00
H792   H     0.27849   0.60901   0.81023   0.00000  Uiso   1.00
H793   H     0.23507   0.60734   0.85003   0.00000  Uiso   1.00
N794   N     0.23112   0.88280   0.69128   0.00000  Uiso   1.00
H795   H     0.22006   0.89292   0.65618   0.00000  Uiso   1.00
H796   H     0.27023   0.89182   0.70083   0.00000  Uiso   1.00
N797   N     0.09579   0.61653   0.68383   0.00000  Uiso   1.00
H798   H     0.10188   0.60836   0.64922   0.00000  Uiso   1.00
H799   H     0.05842   0.60568   0.68909   0.00000  Uiso   1.00
N800   N     0.10834   0.88489   0.81162   0.00000  Uiso   1.00
H801   H     0.12166   0.89306   0.84686   0.00000  Uiso   1.00
H802   H     0.06981   0.89624   0.80380   0.00000  Uiso   1.00
N803   N     0.09999   0.52231   0.68170   0.00000  Uiso   1.00
H804   H     0.12187   0.50276   0.66102   0.00000  Uiso   1.00
H805   H     0.07738   0.50111   0.70005   0.00000  Uiso   1.00
N806   N     0.11221   0.97873   0.81282   0.00000  Uiso   1.00
H807   H     0.13794   0.99841   0.83541   0.00000  Uiso   1.00
H808   H     0.08591   0.99979   0.79230   0.00000  Uiso   1.00
C809   C     0.06616   0.73267   0.51922   0.00000  Uiso   1.00
H810   H     0.06014   0.74010   0.98157   0.00000  Uiso   1.00
O811   O     0.02940   0.71787   0.53753   0.00000  Uiso   1.00
C812   C     0.19239   0.83470   0.97178   0.00000  Uiso   1.00
H813   H     0.18380   0.84032   0.50763   0.00000  Uiso   1.00
O814   O     0.21206   0.86508   0.95149   0.00000  Uiso   1.00
N815   N     0.25522   0.77884   0.63470   0.00000  Uiso   1.00
H816   H     0.28679   0.75962   0.62669   0.00000  Uiso   1.00
H817   H     0.26207   0.81188   0.62533   0.00000  Uiso   1.00
N818   N     0.12819   0.67608   0.87059   0.00000  Uiso   1.00
H819   H     0.09311   0.68578   0.85055   0.00000  Uiso   1.00
H820   H     0.11884   0.65068   0.89335   0.00000  Uiso   1.00
C821   C     0.50008   0.66403   0.75002   0.00000  Uiso   1.00
C822   C     0.50028   0.83613   0.75005   0.00000  Uiso   1.00
C823   C     0.45093   0.74102   0.54783   0.00000  Uiso   1.00
C824   C     0.51312   0.79135   0.94780   0.00000  Uiso   1.00
C825   C     0.45506   0.73855   0.59807   0.00000  Uiso   1.00
C826   C     0.51568   0.78773   0.89838   0.00000  Uiso   1.00
C827   C     0.54258   0.76373   0.60577   0.00000  Uiso   1.00
C828   C     0.48170   0.71434   0.89698   0.00000  Uiso   1.00
C829   C     0.54129   0.76423   0.55608   0.00000  Uiso   1.00
C830   C     0.48141   0.71549   0.94659   0.00000  Uiso   1.00
C831   C     0.49544   0.75357   0.52609   0.00000  Uiso   1.00
C832   C     0.49616   0.75408   0.97283   0.00000  Uiso   1.00
C833   C     0.40067   0.74894   0.73817   0.00000  Uiso   1.00
C834   C     0.59928   0.75126   0.76187   0.00000  Uiso   1.00
C835   C     0.34706   0.73965   0.73460   0.00000  Uiso   1.00
C836   C     0.65303   0.76018   0.76586   0.00000  Uiso   1.00
C837   C     0.53947   0.54747   0.78169   0.00000  Uiso   1.00
C838   C     0.53445   0.95304   0.72147   0.00000  Uiso   1.00
C839   C     0.53783   0.59365   0.78256   0.00000  Uiso   1.00
C840   C     0.53317   0.90682   0.72097   0.00000  Uiso   1.00
C841   C     0.50131   0.61616   0.74990   0.00000  Uiso   1.00
C842   C     0.50200   0.88429   0.75057   0.00000  Uiso   1.00
C843   C     0.46686   0.59284   0.71622   0.00000  Uiso   1.00
C844   C     0.47340   0.90801   0.78150   0.00000  Uiso   1.00
C845   C     0.46879   0.54641   0.71555   0.00000  Uiso   1.00
C846   C     0.47515   0.95444   0.78185   0.00000  Uiso   1.00
C847   C     0.50506   0.52425   0.74875   0.00000  Uiso   1.00
C848   C     0.50531   0.97642   0.75121   0.00000  Uiso   1.00
H849   H     0.56713   0.52962   0.80698   0.00000  Uiso   1.00
H850   H     0.55785   0.97079   0.69843   0.00000  Uiso   1.00
H851   H     0.42150   0.72866   0.61480   0.00000  Uiso   1.00
H852   H     0.52886   0.81581   0.87914   0.00000  Uiso   1.00
H853   H     0.57619   0.77373   0.54095   0.00000  Uiso   1.00
H854   H     0.46862   0.68642   0.96469   0.00000  Uiso   1.00
N855   N     0.50000   0.74999   0.62623   0.00000  Uiso   1.00
N856   N     0.50000   0.75001   0.87376   0.00000  Uiso   1.00
O857   O     0.50000   0.68454   0.78974   0.00000  Uiso   1.00
O858   O     0.50000   0.81547   0.71026   0.00000  Uiso   1.00
O859   O     0.50000   0.68453   0.71026   0.00000  Uiso   1.00
O860   O     0.50000   0.81547   0.78974   0.00000  Uiso   1.00
O861   O     0.42392   0.75000   0.78044   0.00000  Uiso   1.00
O862   O     0.57608   0.75000   0.71955   0.00000  Uiso   1.00
O863   O     0.42392   0.75000   0.70096   0.00000  Uiso   1.00
O864   O     0.57608   0.75001   0.79903   0.00000  Uiso   1.00
Zn865  Zn    0.50000   0.75001   0.80307   0.00000  Uiso   1.00
Zn866  Zn    0.50000   0.75000   0.69693   0.00000  Uiso   1.00
C867   C     0.66261   0.70018   0.70452   0.00000  Uiso   1.00
H868   H     0.34724   0.69333   0.67278   0.00000  Uiso   1.00
O869   O     0.63054   0.67373   0.71621   0.00000  Uiso   1.00
C870   C     0.33898   0.79967   0.79548   0.00000  Uiso   1.00
H871   H     0.37393   0.81736   0.78889   0.00000  Uiso   1.00
O872   O     0.64844   0.81352   0.82692   0.00000  Uiso   1.00
N873   N     0.57382   0.61774   0.81586   0.00000  Uiso   1.00
H874   H     0.61182   0.60901   0.81023   0.00000  Uiso   1.00
H875   H     0.56840   0.60734   0.85003   0.00000  Uiso   1.00
N876   N     0.56445   0.88280   0.69128   0.00000  Uiso   1.00
H877   H     0.55339   0.89292   0.65618   0.00000  Uiso   1.00
H878   H     0.60356   0.89182   0.70083   0.00000  Uiso   1.00
N879   N     0.42912   0.61653   0.68383   0.00000  Uiso   1.00
H880   H     0.43521   0.60836   0.64922   0.00000  Uiso   1.00
H881   H     0.39175   0.60568   0.68909   0.00000  Uiso   1.00
N882   N     0.44167   0.88489   0.81162   0.00000  Uiso   1.00
H883   H     0.45499   0.89306   0.84686   0.00000  Uiso   1.00
H884   H     0.40314   0.89624   0.80380   0.00000  Uiso   1.00
N885   N     0.43332   0.52231   0.68170   0.00000  Uiso   1.00
H886   H     0.45520   0.50276   0.66102   0.00000  Uiso   1.00
H887   H     0.41071   0.50111   0.70005   0.00000  Uiso   1.00
N888   N     0.44554   0.97873   0.81282   0.00000  Uiso   1.00
H889   H     0.47128   0.99841   0.83541   0.00000  Uiso   1.00
H890   H     0.41925   0.99979   0.79230   0.00000  Uiso   1.00
C891   C     0.39949   0.73267   0.51922   0.00000  Uiso   1.00
H892   H     0.39347   0.74010   0.98157   0.00000  Uiso   1.00
O893   O     0.36274   0.71787   0.53753   0.00000  Uiso   1.00
C894   C     0.52573   0.83470   0.97178   0.00000  Uiso   1.00
H895   H     0.51713   0.84032   0.50763   0.00000  Uiso   1.00
O896   O     0.54539   0.86508   0.95149   0.00000  Uiso   1.00
N897   N     0.58855   0.77884   0.63470   0.00000  Uiso   1.00
H898   H     0.62013   0.75962   0.62669   0.00000  Uiso   1.00
H899   H     0.59540   0.81188   0.62533   0.00000  Uiso   1.00
N900   N     0.46152   0.67608   0.87059   0.00000  Uiso   1.00
H901   H     0.42644   0.68578   0.85055   0.00000  Uiso   1.00
H902   H     0.45218   0.65068   0.89335   0.00000  Uiso   1.00
C903   C     0.83342   0.66403   0.75002   0.00000  Uiso   1.00
C904   C     0.83361   0.83613   0.75005   0.00000  Uiso   1.00
C905   C     0.78427   0.74102   0.54783   0.00000  Uiso   1.00
C906   C     0.84645   0.79135   0.94780   0.00000  Uiso   1.00
C907   C     0.78839   0.73855   0.59807   0.00000  Uiso   1.00
C908   C     0.84901   0.78773   0.89838   0.00000  Uiso   1.00
C909   C     0.87591   0.76373   0.60577   0.00000  Uiso   1.00
C910   C     0.81504   0.71434   0.89698   0.00000  Uiso   1.00
C911   C     0.87462   0.76423   0.55608   0.00000  Uiso   1.00
C912   C     0.81474   0.71549   0.94659   0.00000  Uiso   1.00
C913   C     0.82878   0.75357   0.52609   0.00000  Uiso   1.00
C914   C     0.82950   0.75408   0.97283   0.00000  Uiso   1.00
C915   C     0.73401   0.74894   0.73817   0.00000  Uiso   1.00
C916   C     0.93261   0.75126   0.76187   0.00000  Uiso   1.00
C917   C     0.68040   0.73965   0.73460   0.00000  Uiso   1.00
C918   C     0.98636   0.76018   0.76586   0.00000  Uiso   1.00
C919   C     0.87280   0.54747   0.78169   0.00000  Uiso   1.00
C920   C     0.86778   0.95304   0.72147   0.00000  Uiso   1.00
C921   C     0.87116   0.59365   0.78256   0.00000  Uiso   1.00
C922   C     0.86651   0.90682   0.72097   0.00000  Uiso   1.00
C923   C     0.83464   0.61616   0.74990   0.00000  Uiso   1.00
C924   C     0.83533   0.88429   0.75057   0.00000  Uiso   1.00
C925   C     0.80019   0.59284   0.71622   0.00000  Uiso   1.00
C926   C     0.80673   0.90801   0.78150   0.00000  Uiso   1.00
C927   C     0.80212   0.54641   0.71555   0.00000  Uiso   1.00
C928   C     0.80849   0.95444   0.78185   0.00000  Uiso   1.00
C929   C     0.83839   0.52425   0.74875   0.00000  Uiso   1.00
C930   C     0.83864   0.97642   0.75121   0.00000  Uiso   1.00
H931   H     0.90047   0.52962   0.80698   0.00000  Uiso   1.00
H932   H     0.89118   0.97079   0.69843   0.00000  Uiso   1.00
H933   H     0.75483   0.72866   0.61480   0.00000  Uiso   1.00
H934   H     0.86220   0.81581   0.87914   0.00000  Uiso   1.00
H935   H     0.90952   0.77373   0.54095   0.00000  Uiso   1.00
H936   H     0.80195   0.68642   0.96469   0.00000  Uiso   1.00
N937   N     0.83333   0.74999   0.62623   0.00000  Uiso   1.00
N938   N     0.83333   0.75001   0.87376   0.00000  Uiso   1.00
O939   O     0.83334   0.68454   0.78974   0.00000  Uiso   1.00
O940   O     0.83333   0.81547   0.71026   0.00000  Uiso   1.00
O941   O     0.83334   0.68453   0.71026   0.00000  Uiso   1.00
O942   O     0.83333   0.81547   0.78974   0.00000  Uiso   1.00
O943   O     0.75725   0.75000   0.78044   0.00000  Uiso   1.00
O944   O     0.90942   0.75000   0.71955   0.00000  Uiso   1.00
O945   O     0.75725   0.75000   0.70096   0.00000  Uiso   1.00
O946   O     0.90942   0.75001   0.79903   0.00000  Uiso   1.00
Zn947  Zn    0.83333   0.75001   0.80307   0.00000  Uiso   1.00
Zn948  Zn    0.83333   0.75000   0.69693   0.00000  Uiso   1.00
C949   C     0.99595   0.70018   0.70452   0.00000  Uiso   1.00
H950   H     0.68057   0.69333   0.67278   0.00000  Uiso   1.00
O951   O     0.96387   0.67373   0.71621   0.00000  Uiso   1.00
C952   C     0.67231   0.79967   0.79548   0.00000  Uiso   1.00
H953   H     0.70727   0.81736   0.78889   0.00000  Uiso   1.00
O954   O     0.98178   0.81352   0.82692   0.00000  Uiso   1.00
N955   N     0.90715   0.61774   0.81586   0.00000  Uiso   1.00
H956   H     0.94516   0.60901   0.81023   0.00000  Uiso   1.00
H957   H     0.90174   0.60734   0.85003   0.00000  Uiso   1.00
N958   N     0.89778   0.88280   0.69128   0.00000  Uiso   1.00
H959   H     0.88672   0.89292   0.65618   0.00000  Uiso   1.00
H960   H     0.93689   0.89182   0.70083   0.00000  Uiso   1.00
N961   N     0.76245   0.61653   0.68383   0.00000  Uiso   1.00
H962   H     0.76854   0.60836   0.64922   0.00000  Uiso   1.00
H963   H     0.72508   0.60568   0.68909   0.00000  Uiso   1.00
N964   N     0.77501   0.88489   0.81162   0.00000  Uiso   1.00
H965   H     0.78832   0.89306   0.84686   0.00000  Uiso   1.00
H966   H     0.73647   0.89624   0.80380   0.00000  Uiso   1.00
N967   N     0.76665   0.52231   0.68170   0.00000  Uiso   1.00
H968   H     0.78853   0.50276   0.66102   0.00000  Uiso   1.00
H969   H     0.74404   0.50111   0.70005   0.00000  Uiso   1.00
N970   N     0.77887   0.97873   0.81282   0.00000  Uiso   1.00
H971   H     0.80461   0.99841   0.83541   0.00000  Uiso   1.00
H972   H     0.75258   0.99979   0.79230   0.00000  Uiso   1.00
C973   C     0.73283   0.73267   0.51922   0.00000  Uiso   1.00
H974   H     0.72680   0.74010   0.98157   0.00000  Uiso   1.00
O975   O     0.69607   0.71787   0.53753   0.00000  Uiso   1.00
C976   C     0.85906   0.83470   0.97178   0.00000  Uiso   1.00
H977   H     0.85047   0.84032   0.50763   0.00000  Uiso   1.00
O978   O     0.87873   0.86508   0.95149   0.00000  Uiso   1.00
N979   N     0.92188   0.77884   0.63470   0.00000  Uiso   1.00
H980   H     0.95346   0.75962   0.62669   0.00000  Uiso   1.00
H981   H     0.92873   0.81188   0.62533   0.00000  Uiso   1.00
N982   N     0.79485   0.67608   0.87059   0.00000  Uiso   1.00
H983   H     0.75977   0.68578   0.85055   0.00000  Uiso   1.00
H984   H     0.78551   0.65068   0.89335   0.00000  Uiso   1.00
loop_
_geom_bond_atom_site_label_1
_geom_bond_atom_site_label_2
_geom_bond_distance
_geom_bond_site_symmetry_2
_ccdc_geom_bond_type
C1     C21     1.434   .     S
C1     O37     1.287   .     A
C1     O39     1.284   .     A
C2     C22     1.443   .     S
C2     O38     1.290   .     A
C2     O40     1.286   .     A
C3     C71     1.485   .     S
C3     C5      1.420   .     A
C3     C11     1.422   .     A
C4     C74     1.485   .     S
C4     C12     1.422   .     A
C4     C6      1.419   .     A
C5     N35     1.365   .     A
C5     H31     1.081   .     S
C6     H32     1.081   .     S
C6     N36     1.364   .     A
C7     N77     1.427   .     S
C7     C9      1.408   .     A
C7     N35     1.370   .     A
C8     N36     1.370   .     A
C8     C10     1.411   .     A
C8     N80     1.432   .     S
C9     H33     1.084   .     S
C9     C11     1.403   .     A
C10    H34     1.083   .     S
C10    C12     1.403   .     A
C11    C504    1.516   1_554 S
C12    C503    1.516   .     S
C13    O41     1.272   .     A
C13    C15     1.401   .     S
C13    O43     1.281   .     A
C14    C16     1.402   .     S
C14    O44     1.279   .     A
C14    O42     1.273   .     A
C15    C180    1.352   1_455 S
C15    C211    1.498   1_455 S
C16    C97     1.352   .     S
C16    C132    1.501   .     S
C17    H29     1.085   .     S
C17    C27     1.392   .     A
C17    C19     1.384   .     A
C18    H30     1.084   .     S
C18    C20     1.385   .     A
C18    C28     1.391   .     A
C19    C21     1.404   .     A
C19    N53     1.434   .     S
C20    N56     1.434   .     S
C20    C22     1.408   .     A
C21    C23     1.407   .     A
C22    C24     1.411   .     A
C23    N59     1.436   .     S
C23    C25     1.392   .     A
C24    C26     1.392   .     A
C24    N62     1.435   .     S
C25    N65     1.435   .     S
C25    C27     1.405   .     A
C26    C28     1.403   .     A
C26    N68     1.436   .     S
C27    C274    1.434   1_545 S
C28    C273    1.434   .     S
N35    Zn46    2.009   .     S
N36    Zn45    2.009   .     S
O37    Zn45    1.998   .     S
O38    Zn46    1.998   .     S
O39    Zn46    1.996   .     S
O40    Zn45    1.996   .     S
O41    Zn45    1.984   .     S
O42    Zn46    1.984   .     S
O43    Zn46    1.979   .     S
O44    Zn45    1.979   .     S
C47    O49     1.222   .     D
C47    C97     1.498   .     S
C47    H130    1.086   .     S
H48    C211    1.086   1_455 S
C50    H51     1.082   .     S
C50    C180    1.501   1_455 S
C50    O216    1.222   1_455 S
O52    C132    1.222   .     S
N53    H55     1.046   .     S
N53    H54     1.046   .     S
N56    H57     1.046   .     S
N56    H58     1.046   .     S
N59    H60     1.046   .     S
N59    H61     1.046   .     S
N62    H64     1.046   .     S
N62    H63     1.046   .     S
N65    H67     1.045   .     S
N65    H66     1.045   .     S
N68    H69     1.045   .     S
N68    H70     1.045   .     S
C71    O73     1.221   .     D
C71    H564    1.084   1_554 S
H72    C563    1.084   .     S
C74    O76     1.221   .     D
C74    H567    1.084   .     S
H75    C566    1.084   1_554 S
N77    H78     1.045   .     S
N77    H79     1.045   .     S
N80    H82     1.046   .     S
N80    H81     1.045   .     S
C83    C103    1.434   .     S
C83    O119    1.287   .     A
C83    O121    1.284   .     A
C84    C104    1.443   .     S
C84    O120    1.290   .     A
C84    O122    1.286   .     A
C85    C153    1.485   .     S
C85    C87     1.420   .     A
C85    C93     1.422   .     A
C86    C156    1.485   .     S
C86    C94     1.422   .     A
C86    C88     1.419   .     A
C87    N117    1.365   .     A
C87    H113    1.081   .     S
C88    H114    1.081   .     S
C88    N118    1.364   .     A
C89    N159    1.427   .     S
C89    C91     1.408   .     A
C89    N117    1.370   .     A
C90    N118    1.370   .     A
C90    C92     1.411   .     A
C90    N162    1.432   .     S
C91    H115    1.084   .     S
C91    C93     1.403   .     A
C92    H116    1.083   .     S
C92    C94     1.403   .     A
C93    C586    1.516   1_554 S
C94    C585    1.516   .     S
C95    O123    1.272   .     A
C95    C97     1.401   .     S
C95    O125    1.281   .     A
C96    C98     1.402   .     S
C96    O126    1.279   .     A
C96    O124    1.273   .     A
C98    C179    1.352   .     S
C98    C214    1.501   .     S
C99    H111    1.085   .     S
C99    C109    1.392   .     A
C99    C101    1.384   .     A
C100   H112    1.084   .     S
C100   C102    1.385   .     A
C100   C110    1.391   .     A
C101   C103    1.404   .     A
C101   N135    1.434   .     S
C102   N138    1.434   .     S
C102   C104    1.408   .     A
C103   C105    1.407   .     A
C104   C106    1.411   .     A
C105   N141    1.436   .     S
C105   C107    1.392   .     A
C106   C108    1.392   .     A
C106   N144    1.435   .     S
C107   N147    1.435   .     S
C107   C109    1.405   .     A
C108   C110    1.403   .     A
C108   N150    1.436   .     S
C109   C356    1.434   1_545 S
C110   C355    1.434   .     S
N117   Zn128   2.009   .     S
N118   Zn127   2.009   .     S
O119   Zn127   1.998   .     S
O120   Zn128   1.998   .     S
O121   Zn128   1.996   .     S
O122   Zn127   1.996   .     S
O123   Zn127   1.984   .     S
O124   Zn128   1.984   .     S
O125   Zn128   1.979   .     S
O126   Zn127   1.979   .     S
C129   O131    1.222   .     D
C129   C179    1.498   .     S
C129   H212    1.086   .     S
C132   H133    1.082   .     S
O134   C214    1.222   .     S
N135   H137    1.046   .     S
N135   H136    1.046   .     S
N138   H139    1.046   .     S
N138   H140    1.046   .     S
N141   H142    1.046   .     S
N141   H143    1.046   .     S
N144   H146    1.046   .     S
N144   H145    1.046   .     S
N147   H149    1.045   .     S
N147   H148    1.045   .     S
N150   H151    1.045   .     S
N150   H152    1.045   .     S
C153   O155    1.221   .     D
C153   H646    1.084   1_554 S
H154   C645    1.084   .     S
C156   O158    1.221   .     D
C156   H649    1.084   .     S
H157   C648    1.084   1_554 S
N159   H160    1.045   .     S
N159   H161    1.045   .     S
N162   H164    1.046   .     S
N162   H163    1.045   .     S
C165   C185    1.434   .     S
C165   O201    1.287   .     A
C165   O203    1.284   .     A
C166   C186    1.443   .     S
C166   O202    1.290   .     A
C166   O204    1.286   .     A
C167   C235    1.485   .     S
C167   C169    1.420   .     A
C167   C175    1.422   .     A
C168   C238    1.485   .     S
C168   C176    1.422   .     A
C168   C170    1.419   .     A
C169   N199    1.365   .     A
C169   H195    1.081   .     S
C170   H196    1.081   .     S
C170   N200    1.364   .     A
C171   N241    1.427   .     S
C171   C173    1.408   .     A
C171   N199    1.370   .     A
C172   N200    1.370   .     A
C172   C174    1.411   .     A
C172   N244    1.432   .     S
C173   H197    1.084   .     S
C173   C175    1.403   .     A
C174   H198    1.083   .     S
C174   C176    1.403   .     A
C175   C668    1.516   1_554 S
C176   C667    1.516   .     S
C177   O205    1.272   .     A
C177   C179    1.401   .     S
C177   O207    1.281   .     A
C178   C180    1.402   .     S
C178   O208    1.279   .     A
C178   O206    1.273   .     A
C180   C15     1.352   1_655 S
C180   C50     1.501   1_655 S
C181   H193    1.085   .     S
C181   C191    1.392   .     A
C181   C183    1.384   .     A
C182   H194    1.084   .     S
C182   C184    1.385   .     A
C182   C192    1.391   .     A
C183   C185    1.404   .     A
C183   N217    1.434   .     S
C184   N220    1.434   .     S
C184   C186    1.408   .     A
C185   C187    1.407   .     A
C186   C188    1.411   .     A
C187   N223    1.436   .     S
C187   C189    1.392   .     A
C188   C190    1.392   .     A
C188   N226    1.435   .     S
C189   N229    1.435   .     S
C189   C191    1.405   .     A
C190   C192    1.403   .     A
C190   N232    1.436   .     S
C191   C438    1.434   1_545 S
C192   C437    1.434   .     S
N199   Zn210   2.009   .     S
N200   Zn209   2.009   .     S
O201   Zn209   1.998   .     S
O202   Zn210   1.998   .     S
O203   Zn210   1.996   .     S
O204   Zn209   1.996   .     S
O205   Zn209   1.984   .     S
O206   Zn210   1.984   .     S
O207   Zn210   1.979   .     S
O208   Zn209   1.979   .     S
C211   O213    1.222   .     D
C211   C15     1.498   1_655 S
C211   H48     1.086   1_655 S
C214   H215    1.082   .     S
O216   C50     1.222   1_655 S
N217   H219    1.046   .     S
N217   H218    1.046   .     S
N220   H221    1.046   .     S
N220   H222    1.046   .     S
N223   H224    1.046   .     S
N223   H225    1.046   .     S
N226   H228    1.046   .     S
N226   H227    1.046   .     S
N229   H231    1.045   .     S
N229   H230    1.045   .     S
N232   H233    1.045   .     S
N232   H234    1.045   .     S
C235   O237    1.221   .     D
C235   H728    1.084   1_554 S
H236   C727    1.084   .     S
C238   O240    1.221   .     D
C238   H731    1.084   .     S
H239   C730    1.084   1_554 S
N241   H242    1.045   .     S
N241   H243    1.045   .     S
N244   H246    1.046   .     S
N244   H245    1.045   .     S
C247   C267    1.434   .     S
C247   O283    1.287   .     A
C247   O285    1.284   .     A
C248   C268    1.443   .     S
C248   O284    1.290   .     A
C248   O286    1.286   .     A
C249   C317    1.485   .     S
C249   C251    1.420   .     A
C249   C257    1.422   .     A
C250   C320    1.485   .     S
C250   C258    1.422   .     A
C250   C252    1.419   .     A
C251   N281    1.365   .     A
C251   H277    1.081   .     S
C252   H278    1.081   .     S
C252   N282    1.364   .     A
C253   N323    1.427   .     S
C253   C255    1.408   .     A
C253   N281    1.370   .     A
C254   N282    1.370   .     A
C254   C256    1.411   .     A
C254   N326    1.432   .     S
C255   H279    1.084   .     S
C255   C257    1.403   .     A
C256   H280    1.083   .     S
C256   C258    1.403   .     A
C257   C750    1.516   1_554 S
C258   C749    1.516   .     S
C259   O287    1.272   .     A
C259   C261    1.401   .     S
C259   O289    1.281   .     A
C260   C262    1.402   .     S
C260   O290    1.279   .     A
C260   O288    1.273   .     A
C261   C426    1.352   1_455 S
C261   C457    1.498   1_455 S
C262   C343    1.352   .     S
C262   C378    1.501   .     S
C263   H275    1.085   .     S
C263   C273    1.392   .     A
C263   C265    1.384   .     A
C264   H276    1.084   .     S
C264   C266    1.385   .     A
C264   C274    1.391   .     A
C265   C267    1.404   .     A
C265   N299    1.434   .     S
C266   N302    1.434   .     S
C266   C268    1.408   .     A
C267   C269    1.407   .     A
C268   C270    1.411   .     A
C269   N305    1.436   .     S
C269   C271    1.392   .     A
C270   C272    1.392   .     A
C270   N308    1.435   .     S
C271   N311    1.435   .     S
C271   C273    1.405   .     A
C272   C274    1.403   .     A
C272   N314    1.436   .     S
C274   C27     1.434   1_565 S
N281   Zn292   2.009   .     S
N282   Zn291   2.009   .     S
O283   Zn291   1.998   .     S
O284   Zn292   1.998   .     S
O285   Zn292   1.996   .     S
O286   Zn291   1.996   .     S
O287   Zn291   1.984   .     S
O288   Zn292   1.984   .     S
O289   Zn292   1.979   .     S
O290   Zn291   1.979   .     S
C293   O295    1.222   .     D
C293   C343    1.498   .     S
C293   H376    1.086   .     S
H294   C457    1.086   1_455 S
C296   H297    1.082   .     S
C296   C426    1.501   1_455 S
C296   O462    1.222   1_455 S
O298   C378    1.222   .     S
N299   H301    1.046   .     S
N299   H300    1.046   .     S
N302   H303    1.046   .     S
N302   H304    1.046   .     S
N305   H306    1.046   .     S
N305   H307    1.046   .     S
N308   H310    1.046   .     S
N308   H309    1.046   .     S
N311   H313    1.045   .     S
N311   H312    1.045   .     S
N314   H315    1.045   .     S
N314   H316    1.045   .     S
C317   O319    1.221   .     D
C317   H810    1.084   1_554 S
H318   C809    1.084   .     S
C320   O322    1.221   .     D
C320   H813    1.084   .     S
H321   C812    1.084   1_554 S
N323   H324    1.045   .     S
N323   H325    1.045   .     S
N326   H328    1.046   .     S
N326   H327    1.045   .     S
C329   C349    1.434   .     S
C329   O365    1.287   .     A
C329   O367    1.284   .     A
C330   C350    1.443   .     S
C330   O366    1.290   .     A
C330   O368    1.286   .     A
C331   C399    1.485   .     S
C331   C333    1.420   .     A
C331   C339    1.422   .     A
C332   C402    1.485   .     S
C332   C340    1.422   .     A
C332   C334    1.419   .     A
C333   N363    1.365   .     A
C333   H359    1.081   .     S
C334   H360    1.081   .     S
C334   N364    1.364   .     A
C335   N405    1.427   .     S
C335   C337    1.408   .     A
C335   N363    1.370   .     A
C336   N364    1.370   .     A
C336   C338    1.411   .     A
C336   N408    1.432   .     S
C337   H361    1.084   .     S
C337   C339    1.403   .     A
C338   H362    1.083   .     S
C338   C340    1.403   .     A
C339   C832    1.516   1_554 S
C340   C831    1.516   .     S
C341   O369    1.272   .     A
C341   C343    1.401   .     S
C341   O371    1.281   .     A
C342   C344    1.402   .     S
C342   O372    1.279   .     A
C342   O370    1.273   .     A
C344   C425    1.352   .     S
C344   C460    1.501   .     S
C345   H357    1.085   .     S
C345   C355    1.392   .     A
C345   C347    1.384   .     A
C346   H358    1.084   .     S
C346   C348    1.385   .     A
C346   C356    1.391   .     A
C347   C349    1.404   .     A
C347   N381    1.434   .     S
C348   N384    1.434   .     S
C348   C350    1.408   .     A
C349   C351    1.407   .     A
C350   C352    1.411   .     A
C351   N387    1.436   .     S
C351   C353    1.392   .     A
C352   C354    1.392   .     A
C352   N390    1.435   .     S
C353   N393    1.435   .     S
C353   C355    1.405   .     A
C354   C356    1.403   .     A
C354   N396    1.436   .     S
C356   C109    1.434   1_565 S
N363   Zn374   2.009   .     S
N364   Zn373   2.009   .     S
O365   Zn373   1.998   .     S
O366   Zn374   1.998   .     S
O367   Zn374   1.996   .     S
O368   Zn373   1.996   .     S
O369   Zn373   1.984   .     S
O370   Zn374   1.984   .     S
O371   Zn374   1.979   .     S
O372   Zn373   1.979   .     S
C375   O377    1.222   .     D
C375   C425    1.498   .     S
C375   H458    1.086   .     S
C378   H379    1.082   .     S
O380   C460    1.222   .     S
N381   H383    1.046   .     S
N381   H382    1.046   .     S
N384   H385    1.046   .     S
N384   H386    1.046   .     S
N387   H388    1.046   .     S
N387   H389    1.046   .     S
N390   H392    1.046   .     S
N390   H391    1.046   .     S
N393   H395    1.045   .     S
N393   H394    1.045   .     S
N396   H397    1.045   .     S
N396   H398    1.045   .     S
C399   O401    1.221   .     D
C399   H892    1.084   1_554 S
H400   C891    1.084   .     S
C402   O404    1.221   .     D
C402   H895    1.084   .     S
H403   C894    1.084   1_554 S
N405   H406    1.045   .     S
N405   H407    1.045   .     S
N408   H410    1.046   .     S
N408   H409    1.045   .     S
C411   C431    1.434   .     S
C411   O447    1.287   .     A
C411   O449    1.284   .     A
C412   C432    1.443   .     S
C412   O448    1.290   .     A
C412   O450    1.286   .     A
C413   C481    1.485   .     S
C413   C415    1.420   .     A
C413   C421    1.422   .     A
C414   C484    1.485   .     S
C414   C422    1.422   .     A
C414   C416    1.419   .     A
C415   N445    1.365   .     A
C415   H441    1.081   .     S
C416   H442    1.081   .     S
C416   N446    1.364   .     A
C417   N487    1.427   .     S
C417   C419    1.408   .     A
C417   N445    1.370   .     A
C418   N446    1.370   .     A
C418   C420    1.411   .     A
C418   N490    1.432   .     S
C419   H443    1.084   .     S
C419   C421    1.403   .     A
C420   H444    1.083   .     S
C420   C422    1.403   .     A
C421   C914    1.516   1_554 S
C422   C913    1.516   .     S
C423   O451    1.272   .     A
C423   C425    1.401   .     S
C423   O453    1.281   .     A
C424   C426    1.402   .     S
C424   O454    1.279   .     A
C424   O452    1.273   .     A
C426   C261    1.352   1_655 S
C426   C296    1.501   1_655 S
C427   H439    1.085   .     S
C427   C437    1.392   .     A
C427   C429    1.384   .     A
C428   H440    1.084   .     S
C428   C430    1.385   .     A
C428   C438    1.391   .     A
C429   C431    1.404   .     A
C429   N463    1.434   .     S
C430   N466    1.434   .     S
C430   C432    1.408   .     A
C431   C433    1.407   .     A
C432   C434    1.411   .     A
C433   N469    1.436   .     S
C433   C435    1.392   .     A
C434   C436    1.392   .     A
C434   N472    1.435   .     S
C435   N475    1.435   .     S
C435   C437    1.405   .     A
C436   C438    1.403   .     A
C436   N478    1.436   .     S
C438   C191    1.434   1_565 S
N445   Zn456   2.009   .     S
N446   Zn455   2.009   .     S
O447   Zn455   1.998   .     S
O448   Zn456   1.998   .     S
O449   Zn456   1.996   .     S
O450   Zn455   1.996   .     S
O451   Zn455   1.984   .     S
O452   Zn456   1.984   .     S
O453   Zn456   1.979   .     S
O454   Zn455   1.979   .     S
C457   O459    1.222   .     D
C457   C261    1.498   1_655 S
C457   H294    1.086   1_655 S
C460   H461    1.082   .     S
O462   C296    1.222   1_655 S
N463   H465    1.046   .     S
N463   H464    1.046   .     S
N466   H467    1.046   .     S
N466   H468    1.046   .     S
N469   H470    1.046   .     S
N469   H471    1.046   .     S
N472   H474    1.046   .     S
N472   H473    1.046   .     S
N475   H477    1.045   .     S
N475   H476    1.045   .     S
N478   H479    1.045   .     S
N478   H480    1.045   .     S
C481   O483    1.221   .     D
C481   H974    1.084   1_554 S
H482   C973    1.084   .     S
C484   O486    1.221   .     D
C484   H977    1.084   .     S
H485   C976    1.084   1_554 S
N487   H488    1.045   .     S
N487   H489    1.045   .     S
N490   H492    1.046   .     S
N490   H491    1.045   .     S
C493   C513    1.434   .     S
C493   O529    1.287   .     A
C493   O531    1.284   .     A
C494   C514    1.443   .     S
C494   O530    1.290   .     A
C494   O532    1.286   .     A
C495   C563    1.485   .     S
C495   C497    1.420   .     A
C495   C503    1.422   .     A
C496   C566    1.485   .     S
C496   C504    1.422   .     A
C496   C498    1.419   .     A
C497   N527    1.365   .     A
C497   H523    1.081   .     S
C498   H524    1.081   .     S
C498   N528    1.364   .     A
C499   N569    1.427   .     S
C499   C501    1.408   .     A
C499   N527    1.370   .     A
C500   N528    1.370   .     A
C500   C502    1.411   .     A
C500   N572    1.432   .     S
C501   H525    1.084   .     S
C501   C503    1.403   .     A
C502   H526    1.083   .     S
C502   C504    1.403   .     A
C504   C11     1.516   1_556 S
C505   O533    1.272   .     A
C505   C507    1.401   .     S
C505   O535    1.281   .     A
C506   C508    1.402   .     S
C506   O536    1.279   .     A
C506   O534    1.273   .     A
C507   C672    1.352   1_455 S
C507   C703    1.498   1_455 S
C508   C589    1.352   .     S
C508   C624    1.501   .     S
C509   H521    1.085   .     S
C509   C519    1.392   .     A
C509   C511    1.384   .     A
C510   H522    1.084   .     S
C510   C512    1.385   .     A
C510   C520    1.391   .     A
C511   C513    1.404   .     A
C511   N545    1.434   .     S
C512   N548    1.434   .     S
C512   C514    1.408   .     A
C513   C515    1.407   .     A
C514   C516    1.411   .     A
C515   N551    1.436   .     S
C515   C517    1.392   .     A
C516   C518    1.392   .     A
C516   N554    1.435   .     S
C517   N557    1.435   .     S
C517   C519    1.405   .     A
C518   C520    1.403   .     A
C518   N560    1.436   .     S
C519   C766    1.434   1_545 S
C520   C765    1.434   .     S
N527   Zn538   2.009   .     S
N528   Zn537   2.009   .     S
O529   Zn537   1.998   .     S
O530   Zn538   1.998   .     S
O531   Zn538   1.996   .     S
O532   Zn537   1.996   .     S
O533   Zn537   1.984   .     S
O534   Zn538   1.984   .     S
O535   Zn538   1.979   .     S
O536   Zn537   1.979   .     S
C539   O541    1.222   .     D
C539   C589    1.498   .     S
C539   H622    1.086   .     S
H540   C703    1.086   1_455 S
C542   H543    1.082   .     S
C542   C672    1.501   1_455 S
C542   O708    1.222   1_455 S
O544   C624    1.222   .     S
N545   H547    1.046   .     S
N545   H546    1.046   .     S
N548   H549    1.046   .     S
N548   H550    1.046   .     S
N551   H552    1.046   .     S
N551   H553    1.046   .     S
N554   H556    1.046   .     S
N554   H555    1.046   .     S
N557   H559    1.045   .     S
N557   H558    1.045   .     S
N560   H561    1.045   .     S
N560   H562    1.045   .     S
C563   O565    1.221   .     D
H564   C71     1.084   1_556 S
C566   O568    1.221   .     D
C566   H75     1.084   1_556 S
N569   H570    1.045   .     S
N569   H571    1.045   .     S
N572   H574    1.046   .     S
N572   H573    1.045   .     S
C575   C595    1.434   .     S
C575   O611    1.287   .     A
C575   O613    1.284   .     A
C576   C596    1.443   .     S
C576   O612    1.290   .     A
C576   O614    1.286   .     A
C577   C645    1.485   .     S
C577   C579    1.420   .     A
C577   C585    1.422   .     A
C578   C648    1.485   .     S
C578   C586    1.422   .     A
C578   C580    1.419   .     A
C579   N609    1.365   .     A
C579   H605    1.081   .     S
C580   H606    1.081   .     S
C580   N610    1.364   .     A
C581   N651    1.427   .     S
C581   C583    1.408   .     A
C581   N609    1.370   .     A
C582   N610    1.370   .     A
C582   C584    1.411   .     A
C582   N654    1.432   .     S
C583   H607    1.084   .     S
C583   C585    1.403   .     A
C584   H608    1.083   .     S
C584   C586    1.403   .     A
C586   C93     1.516   1_556 S
C587   O615    1.272   .     A
C587   C589    1.401   .     S
C587   O617    1.281   .     A
C588   C590    1.402   .     S
C588   O618    1.279   .     A
C588   O616    1.273   .     A
C590   C671    1.352   .     S
C590   C706    1.501   .     S
C591   H603    1.085   .     S
C591   C601    1.392   .     A
C591   C593    1.384   .     A
C592   H604    1.084   .     S
C592   C594    1.385   .     A
C592   C602    1.391   .     A
C593   C595    1.404   .     A
C593   N627    1.434   .     S
C594   N630    1.434   .     S
C594   C596    1.408   .     A
C595   C597    1.407   .     A
C596   C598    1.411   .     A
C597   N633    1.436   .     S
C597   C599    1.392   .     A
C598   C600    1.392   .     A
C598   N636    1.435   .     S
C599   N639    1.435   .     S
C599   C601    1.405   .     A
C600   C602    1.403   .     A
C600   N642    1.436   .     S
C601   C848    1.434   1_545 S
C602   C847    1.434   .     S
N609   Zn620   2.009   .     S
N610   Zn619   2.009   .     S
O611   Zn619   1.998   .     S
O612   Zn620   1.998   .     S
O613   Zn620   1.996   .     S
O614   Zn619   1.996   .     S
O615   Zn619   1.984   .     S
O616   Zn620   1.984   .     S
O617   Zn620   1.979   .     S
O618   Zn619   1.979   .     S
C621   O623    1.222   .     D
C621   C671    1.498   .     S
C621   H704    1.086   .     S
C624   H625    1.082   .     S
O626   C706    1.222   .     S
N627   H629    1.046   .     S
N627   H628    1.046   .     S
N630   H631    1.046   .     S
N630   H632    1.046   .     S
N633   H634    1.046   .     S
N633   H635    1.046   .     S
N636   H638    1.046   .     S
N636   H637    1.046   .     S
N639   H641    1.045   .     S
N639   H640    1.045   .     S
N642   H643    1.045   .     S
N642   H644    1.045   .     S
C645   O647    1.221   .     D
H646   C153    1.084   1_556 S
C648   O650    1.221   .     D
C648   H157    1.084   1_556 S
N651   H652    1.045   .     S
N651   H653    1.045   .     S
N654   H656    1.046   .     S
N654   H655    1.045   .     S
C657   C677    1.434   .     S
C657   O693    1.287   .     A
C657   O695    1.284   .     A
C658   C678    1.443   .     S
C658   O694    1.290   .     A
C658   O696    1.286   .     A
C659   C727    1.485   .     S
C659   C661    1.420   .     A
C659   C667    1.422   .     A
C660   C730    1.485   .     S
C660   C668    1.422   .     A
C660   C662    1.419   .     A
C661   N691    1.365   .     A
C661   H687    1.081   .     S
C662   H688    1.081   .     S
C662   N692    1.364   .     A
C663   N733    1.427   .     S
C663   C665    1.408   .     A
C663   N691    1.370   .     A
C664   N692    1.370   .     A
C664   C666    1.411   .     A
C664   N736    1.432   .     S
C665   H689    1.084   .     S
C665   C667    1.403   .     A
C666   H690    1.083   .     S
C666   C668    1.403   .     A
C668   C175    1.516   1_556 S
C669   O697    1.272   .     A
C669   C671    1.401   .     S
C669   O699    1.281   .     A
C670   C672    1.402   .     S
C670   O700    1.279   .     A
C670   O698    1.273   .     A
C672   C507    1.352   1_655 S
C672   C542    1.501   1_655 S
C673   H685    1.085   .     S
C673   C683    1.392   .     A
C673   C675    1.384   .     A
C674   H686    1.084   .     S
C674   C676    1.385   .     A
C674   C684    1.391   .     A
C675   C677    1.404   .     A
C675   N709    1.434   .     S
C676   N712    1.434   .     S
C676   C678    1.408   .     A
C677   C679    1.407   .     A
C678   C680    1.411   .     A
C679   N715    1.436   .     S
C679   C681    1.392   .     A
C680   C682    1.392   .     A
C680   N718    1.435   .     S
C681   N721    1.435   .     S
C681   C683    1.405   .     A
C682   C684    1.403   .     A
C682   N724    1.436   .     S
C683   C930    1.434   1_545 S
C684   C929    1.434   .     S
N691   Zn702   2.009   .     S
N692   Zn701   2.009   .     S
O693   Zn701   1.998   .     S
O694   Zn702   1.998   .     S
O695   Zn702   1.996   .     S
O696   Zn701   1.996   .     S
O697   Zn701   1.984   .     S
O698   Zn702   1.984   .     S
O699   Zn702   1.979   .     S
O700   Zn701   1.979   .     S
C703   O705    1.222   .     D
C703   C507    1.498   1_655 S
C703   H540    1.086   1_655 S
C706   H707    1.082   .     S
O708   C542    1.222   1_655 S
N709   H711    1.046   .     S
N709   H710    1.046   .     S
N712   H713    1.046   .     S
N712   H714    1.046   .     S
N715   H716    1.046   .     S
N715   H717    1.046   .     S
N718   H720    1.046   .     S
N718   H719    1.046   .     S
N721   H723    1.045   .     S
N721   H722    1.045   .     S
N724   H725    1.045   .     S
N724   H726    1.045   .     S
C727   O729    1.221   .     D
H728   C235    1.084   1_556 S
C730   O732    1.221   .     D
C730   H239    1.084   1_556 S
N733   H734    1.045   .     S
N733   H735    1.045   .     S
N736   H738    1.046   .     S
N736   H737    1.045   .     S
C739   C759    1.434   .     S
C739   O775    1.287   .     A
C739   O777    1.284   .     A
C740   C760    1.443   .     S
C740   O776    1.290   .     A
C740   O778    1.286   .     A
C741   C809    1.485   .     S
C741   C743    1.420   .     A
C741   C749    1.422   .     A
C742   C812    1.485   .     S
C742   C750    1.422   .     A
C742   C744    1.419   .     A
C743   N773    1.365   .     A
C743   H769    1.081   .     S
C744   H770    1.081   .     S
C744   N774    1.364   .     A
C745   N815    1.427   .     S
C745   C747    1.408   .     A
C745   N773    1.370   .     A
C746   N774    1.370   .     A
C746   C748    1.411   .     A
C746   N818    1.432   .     S
C747   H771    1.084   .     S
C747   C749    1.403   .     A
C748   H772    1.083   .     S
C748   C750    1.403   .     A
C750   C257    1.516   1_556 S
C751   O779    1.272   .     A
C751   C753    1.401   .     S
C751   O781    1.281   .     A
C752   C754    1.402   .     S
C752   O782    1.279   .     A
C752   O780    1.273   .     A
C753   C918    1.352   1_455 S
C753   C949    1.498   1_455 S
C754   C835    1.352   .     S
C754   C870    1.501   .     S
C755   H767    1.085   .     S
C755   C765    1.392   .     A
C755   C757    1.384   .     A
C756   H768    1.084   .     S
C756   C758    1.385   .     A
C756   C766    1.391   .     A
C757   C759    1.404   .     A
C757   N791    1.434   .     S
C758   N794    1.434   .     S
C758   C760    1.408   .     A
C759   C761    1.407   .     A
C760   C762    1.411   .     A
C761   N797    1.436   .     S
C761   C763    1.392   .     A
C762   C764    1.392   .     A
C762   N800    1.435   .     S
C763   N803    1.435   .     S
C763   C765    1.405   .     A
C764   C766    1.403   .     A
C764   N806    1.436   .     S
C766   C519    1.434   1_565 S
N773   Zn784   2.009   .     S
N774   Zn783   2.009   .     S
O775   Zn783   1.998   .     S
O776   Zn784   1.998   .     S
O777   Zn784   1.996   .     S
O778   Zn783   1.996   .     S
O779   Zn783   1.984   .     S
O780   Zn784   1.984   .     S
O781   Zn784   1.979   .     S
O782   Zn783   1.979   .     S
C785   O787    1.222   .     D
C785   C835    1.498   .     S
C785   H868    1.086   .     S
H786   C949    1.086   1_455 S
C788   H789    1.082   .     S
C788   C918    1.501   1_455 S
C788   O954    1.222   1_455 S
O790   C870    1.222   .     S
N791   H793    1.046   .     S
N791   H792    1.046   .     S
N794   H795    1.046   .     S
N794   H796    1.046   .     S
N797   H798    1.046   .     S
N797   H799    1.046   .     S
N800   H802    1.046   .     S
N800   H801    1.046   .     S
N803   H805    1.045   .     S
N803   H804    1.045   .     S
N806   H807    1.045   .     S
N806   H808    1.045   .     S
C809   O811    1.221   .     D
H810   C317    1.084   1_556 S
C812   O814    1.221   .     D
C812   H321    1.084   1_556 S
N815   H816    1.045   .     S
N815   H817    1.045   .     S
N818   H820    1.046   .     S
N818   H819    1.045   .     S
C821   C841    1.434   .     S
C821   O857    1.287   .     A
C821   O859    1.284   .     A
C822   C842    1.443   .     S
C822   O858    1.290   .     A
C822   O860    1.286   .     A
C823   C891    1.485   .     S
C823   C825    1.420   .     A
C823   C831    1.422   .     A
C824   C894    1.485   .     S
C824   C832    1.422   .     A
C824   C826    1.419   .     A
C825   N855    1.365   .     A
C825   H851    1.081   .     S
C826   H852    1.081   .     S
C826   N856    1.364   .     A
C827   N897    1.427   .     S
C827   C829    1.408   .     A
C827   N855    1.370   .     A
C828   N856    1.370   .     A
C828   C830    1.411   .     A
C828   N900    1.432   .     S
C829   H853    1.084   .     S
C829   C831    1.403   .     A
C830   H854    1.083   .     S
C830   C832    1.403   .     A
C832   C339    1.516   1_556 S
C833   O861    1.272   .     A
C833   C835    1.401   .     S
C833   O863    1.281   .     A
C834   C836    1.402   .     S
C834   O864    1.279   .     A
C834   O862    1.273   .     A
C836   C917    1.352   .     S
C836   C952    1.501   .     S
C837   H849    1.085   .     S
C837   C847    1.392   .     A
C837   C839    1.384   .     A
C838   H850    1.084   .     S
C838   C840    1.385   .     A
C838   C848    1.391   .     A
C839   C841    1.404   .     A
C839   N873    1.434   .     S
C840   N876    1.434   .     S
C840   C842    1.408   .     A
C841   C843    1.407   .     A
C842   C844    1.411   .     A
C843   N879    1.436   .     S
C843   C845    1.392   .     A
C844   C846    1.392   .     A
C844   N882    1.435   .     S
C845   N885    1.435   .     S
C845   C847    1.405   .     A
C846   C848    1.403   .     A
C846   N888    1.436   .     S
C848   C601    1.434   1_565 S
N855   Zn866   2.009   .     S
N856   Zn865   2.009   .     S
O857   Zn865   1.998   .     S
O858   Zn866   1.998   .     S
O859   Zn866   1.996   .     S
O860   Zn865   1.996   .     S
O861   Zn865   1.984   .     S
O862   Zn866   1.984   .     S
O863   Zn866   1.979   .     S
O864   Zn865   1.979   .     S
C867   O869    1.222   .     D
C867   C917    1.498   .     S
C867   H950    1.086   .     S
C870   H871    1.082   .     S
O872   C952    1.222   .     S
N873   H875    1.046   .     S
N873   H874    1.046   .     S
N876   H877    1.046   .     S
N876   H878    1.046   .     S
N879   H880    1.046   .     S
N879   H881    1.046   .     S
N882   H884    1.046   .     S
N882   H883    1.046   .     S
N885   H887    1.045   .     S
N885   H886    1.045   .     S
N888   H889    1.045   .     S
N888   H890    1.045   .     S
C891   O893    1.221   .     D
H892   C399    1.084   1_556 S
C894   O896    1.221   .     D
C894   H403    1.084   1_556 S
N897   H898    1.045   .     S
N897   H899    1.045   .     S
N900   H902    1.046   .     S
N900   H901    1.045   .     S
C903   C923    1.434   .     S
C903   O939    1.287   .     A
C903   O941    1.284   .     A
C904   C924    1.443   .     S
C904   O940    1.290   .     A
C904   O942    1.286   .     A
C905   C973    1.485   .     S
C905   C907    1.420   .     A
C905   C913    1.422   .     A
C906   C976    1.485   .     S
C906   C914    1.422   .     A
C906   C908    1.419   .     A
C907   N937    1.365   .     A
C907   H933    1.081   .     S
C908   H934    1.081   .     S
C908   N938    1.364   .     A
C909   N979    1.427   .     S
C909   C911    1.408   .     A
C909   N937    1.370   .     A
C910   N938    1.370   .     A
C910   C912    1.411   .     A
C910   N982    1.432   .     S
C911   H935    1.084   .     S
C911   C913    1.403   .     A
C912   H936    1.083   .     S
C912   C914    1.403   .     A
C914   C421    1.516   1_556 S
C915   O943    1.272   .     A
C915   C917    1.401   .     S
C915   O945    1.281   .     A
C916   C918    1.402   .     S
C916   O946    1.279   .     A
C916   O944    1.273   .     A
C918   C753    1.352   1_655 S
C918   C788    1.501   1_655 S
C919   H931    1.085   .     S
C919   C929    1.392   .     A
C919   C921    1.384   .     A
C920   H932    1.084   .     S
C920   C922    1.385   .     A
C920   C930    1.391   .     A
C921   C923    1.404   .     A
C921   N955    1.434   .     S
C922   N958    1.434   .     S
C922   C924    1.408   .     A
C923   C925    1.407   .     A
C924   C926    1.411   .     A
C925   N961    1.436   .     S
C925   C927    1.392   .     A
C926   C928    1.392   .     A
C926   N964    1.435   .     S
C927   N967    1.435   .     S
C927   C929    1.405   .     A
C928   C930    1.403   .     A
C928   N970    1.436   .     S
C930   C683    1.434   1_565 S
N937   Zn948   2.009   .     S
N938   Zn947   2.009   .     S
O939   Zn947   1.998   .     S
O940   Zn948   1.998   .     S
O941   Zn948   1.996   .     S
O942   Zn947   1.996   .     S
O943   Zn947   1.984   .     S
O944   Zn948   1.984   .     S
O945   Zn948   1.979   .     S
O946   Zn947   1.979   .     S
C949   O951    1.222   .     D
C949   C753    1.498   1_655 S
C949   H786    1.086   1_655 S
C952   H953    1.082   .     S
O954   C788    1.222   1_655 S
N955   H957    1.046   .     S
N955   H956    1.046   .     S
N958   H959    1.046   .     S
N958   H960    1.046   .     S
N961   H962    1.046   .     S
N961   H963    1.046   .     S
N964   H966    1.046   .     S
N964   H965    1.046   .     S
N967   H969    1.045   .     S
N967   H968    1.045   .     S
N970   H971    1.045   .     S
N970   H972    1.045   .     S
C973   O975    1.221   .     D
H974   C481    1.084   1_556 S
C976   O978    1.221   .     D
C976   H485    1.084   1_556 S
N979   H980    1.045   .     S
N979   H981    1.045   .     S
N982   H984    1.046   .     S
N982   H983    1.045   .     S
