data_str_m3_o2_o10_pcu_sym.66
_audit_creation_date              2020-01-03
_audit_creation_method            'Materials Studio'
_symmetry_space_group_name_H-M    'P1'
_symmetry_Int_Tables_number       1
_symmetry_cell_setting            triclinic
loop_
_symmetry_equiv_pos_as_xyz
  x,y,z
_cell_length_a                    25.7669
_cell_length_b                    29.9151
_cell_length_c                    28.3530
_cell_angle_alpha                 90.4959
_cell_angle_beta                  98.6569
_cell_angle_gamma                 89.9845
loop_
_atom_site_label
_atom_site_type_symbol
_atom_site_fract_x
_atom_site_fract_y
_atom_site_fract_z
_atom_site_U_iso_or_equiv
_atom_site_adp_type
_atom_site_occupancy
C1     C     0.16544   0.16396   0.24961   0.00000  Uiso   1.00
C2     C     0.14122   0.21609   0.44359   0.00000  Uiso   1.00
C3     C     0.16657   0.25007   0.02664   0.00000  Uiso   1.00
C4     C     0.16654   0.25008   0.47328   0.00000  Uiso   1.00
C5     C     0.06701   0.24999   0.23753   0.00000  Uiso   1.00
C6     C     0.26633   0.25005   0.26247   0.00000  Uiso   1.00
C7     C     0.01199   0.24996   0.23080   0.00000  Uiso   1.00
C8     C     0.32136   0.25015   0.26919   0.00000  Uiso   1.00
C9     C     0.19178   0.04628   0.28325   0.00000  Uiso   1.00
C10    C     0.19094   0.45383   0.22314   0.00000  Uiso   1.00
C11    C     0.19385   0.09227   0.28337   0.00000  Uiso   1.00
C12    C     0.16544   0.33605   0.25007   0.00000  Uiso   1.00
C13    C     0.19297   0.40784   0.22341   0.00000  Uiso   1.00
C14    C     0.16134   0.11606   0.24851   0.00000  Uiso   1.00
C15    C     0.16130   0.38395   0.25016   0.00000  Uiso   1.00
C16    C     0.12512   0.09399   0.21369   0.00000  Uiso   1.00
C17    C     0.12600   0.40594   0.27613   0.00000  Uiso   1.00
C18    C     0.12308   0.04730   0.21368   0.00000  Uiso   1.00
C19    C     0.12394   0.45262   0.27568   0.00000  Uiso   1.00
C20    C     0.15691   0.02405   0.24853   0.00000  Uiso   1.00
C21    C     0.15693   0.47596   0.24925   0.00000  Uiso   1.00
C22    C     0.08886   0.11894   0.17955   0.00000  Uiso   1.00
C23    C     0.12401   0.23258   0.04662   0.00000  Uiso   1.00
C24    C     0.09080   0.38088   0.30151   0.00000  Uiso   1.00
C25    C     0.08650   0.02324   0.17852   0.00000  Uiso   1.00
C26    C     0.08819   0.47659   0.30177   0.00000  Uiso   1.00
C27    C     0.19185   0.28409   0.45112   0.00000  Uiso   1.00
C28    C     0.12491   0.23280   0.09636   0.00000  Uiso   1.00
C29    C     0.19152   0.28336   0.40145   0.00000  Uiso   1.00
C30    C     0.20832   0.26732   0.10803   0.00000  Uiso   1.00
C31    C     0.14165   0.21675   0.39404   0.00000  Uiso   1.00
C32    C     0.20915   0.26756   0.05853   0.00000  Uiso   1.00
H33    H     0.32469   0.24972   0.19437   0.00000  Uiso   1.00
H34    H     0.21109   0.30969   0.38498   0.00000  Uiso   1.00
H35    H     0.24126   0.28103   0.13192   0.00000  Uiso   1.00
H36    H     0.12199   0.19046   0.37174   0.00000  Uiso   1.00
H37    H     0.24336   0.28083   0.04555   0.00000  Uiso   1.00
H38    H     0.12179   0.18867   0.45845   0.00000  Uiso   1.00
H39    H     0.00867   0.25038   0.30562   0.00000  Uiso   1.00
H40    H     0.21752   0.02785   0.31001   0.00000  Uiso   1.00
H41    H     0.21603   0.47233   0.20278   0.00000  Uiso   1.00
H42    H     0.22140   0.10936   0.31021   0.00000  Uiso   1.00
H43    H     0.21986   0.39084   0.20337   0.00000  Uiso   1.00
H44    H     0.08974   0.21939   0.02406   0.00000  Uiso   1.00
H45    H     0.21121   0.31154   0.47179   0.00000  Uiso   1.00
H46    H     0.09189   0.21936   0.11104   0.00000  Uiso   1.00
N47    N     0.16667   0.24999   0.12624   0.00000  Uiso   1.00
N48    N     0.16667   0.25001   0.37377   0.00000  Uiso   1.00
N49    N     0.05985   0.13879   0.15238   0.00000  Uiso   1.00
N50    N     0.06272   0.36088   0.32169   0.00000  Uiso   1.00
N51    N     0.05734   0.00399   0.15052   0.00000  Uiso   1.00
N52    N     0.05967   0.49576   0.32253   0.00000  Uiso   1.00
O53    O     0.16667   0.18453   0.28974   0.00000  Uiso   1.00
O54    O     0.16666   0.31547   0.21026   0.00000  Uiso   1.00
O55    O     0.16667   0.18453   0.21026   0.00000  Uiso   1.00
O56    O     0.16666   0.31547   0.28974   0.00000  Uiso   1.00
O57    O     0.09058   0.25000   0.28045   0.00000  Uiso   1.00
O58    O     0.24275   0.25000   0.21956   0.00000  Uiso   1.00
O59    O     0.09058   0.25000   0.20097   0.00000  Uiso   1.00
O60    O     0.24275   0.25000   0.29904   0.00000  Uiso   1.00
Zn61   Zn    0.16667   0.25001   0.30307   0.00000  Uiso   1.00
Zn62   Zn    0.16667   0.25000   0.19693   0.00000  Uiso   1.00
C63    C     0.49877   0.16396   0.24961   0.00000  Uiso   1.00
C64    C     0.47455   0.21609   0.44359   0.00000  Uiso   1.00
C65    C     0.49990   0.25007   0.02664   0.00000  Uiso   1.00
C66    C     0.49987   0.25008   0.47328   0.00000  Uiso   1.00
C67    C     0.40034   0.24999   0.23753   0.00000  Uiso   1.00
C68    C     0.59967   0.25005   0.26247   0.00000  Uiso   1.00
C69    C     0.34532   0.24996   0.23080   0.00000  Uiso   1.00
C70    C     0.65469   0.25015   0.26919   0.00000  Uiso   1.00
C71    C     0.52511   0.04628   0.28325   0.00000  Uiso   1.00
C72    C     0.52427   0.45383   0.22314   0.00000  Uiso   1.00
C73    C     0.52719   0.09227   0.28337   0.00000  Uiso   1.00
C74    C     0.49877   0.33605   0.25007   0.00000  Uiso   1.00
C75    C     0.52630   0.40784   0.22341   0.00000  Uiso   1.00
C76    C     0.49468   0.11606   0.24851   0.00000  Uiso   1.00
C77    C     0.49464   0.38395   0.25016   0.00000  Uiso   1.00
C78    C     0.45845   0.09399   0.21369   0.00000  Uiso   1.00
C79    C     0.45933   0.40594   0.27613   0.00000  Uiso   1.00
C80    C     0.45641   0.04730   0.21368   0.00000  Uiso   1.00
C81    C     0.45727   0.45262   0.27568   0.00000  Uiso   1.00
C82    C     0.49024   0.02405   0.24853   0.00000  Uiso   1.00
C83    C     0.49027   0.47596   0.24925   0.00000  Uiso   1.00
C84    C     0.42220   0.11894   0.17955   0.00000  Uiso   1.00
C85    C     0.45734   0.23258   0.04662   0.00000  Uiso   1.00
C86    C     0.42413   0.38088   0.30151   0.00000  Uiso   1.00
C87    C     0.41984   0.02324   0.17852   0.00000  Uiso   1.00
C88    C     0.42152   0.47659   0.30177   0.00000  Uiso   1.00
C89    C     0.52518   0.28409   0.45112   0.00000  Uiso   1.00
C90    C     0.45824   0.23280   0.09636   0.00000  Uiso   1.00
C91    C     0.52485   0.28336   0.40145   0.00000  Uiso   1.00
C92    C     0.54166   0.26732   0.10803   0.00000  Uiso   1.00
C93    C     0.47498   0.21675   0.39404   0.00000  Uiso   1.00
C94    C     0.54248   0.26756   0.05853   0.00000  Uiso   1.00
H95    H     0.65802   0.24972   0.19437   0.00000  Uiso   1.00
H96    H     0.54442   0.30969   0.38498   0.00000  Uiso   1.00
H97    H     0.57459   0.28103   0.13192   0.00000  Uiso   1.00
H98    H     0.45532   0.19046   0.37174   0.00000  Uiso   1.00
H99    H     0.57669   0.28083   0.04555   0.00000  Uiso   1.00
H100   H     0.45512   0.18867   0.45845   0.00000  Uiso   1.00
H101   H     0.34201   0.25038   0.30562   0.00000  Uiso   1.00
H102   H     0.55085   0.02785   0.31001   0.00000  Uiso   1.00
H103   H     0.54936   0.47233   0.20278   0.00000  Uiso   1.00
H104   H     0.55473   0.10936   0.31021   0.00000  Uiso   1.00
H105   H     0.55320   0.39084   0.20337   0.00000  Uiso   1.00
H106   H     0.42307   0.21939   0.02406   0.00000  Uiso   1.00
H107   H     0.54454   0.31154   0.47179   0.00000  Uiso   1.00
H108   H     0.42523   0.21936   0.11104   0.00000  Uiso   1.00
N109   N     0.50000   0.24999   0.12624   0.00000  Uiso   1.00
N110   N     0.50000   0.25001   0.37377   0.00000  Uiso   1.00
N111   N     0.39318   0.13879   0.15238   0.00000  Uiso   1.00
N112   N     0.39606   0.36088   0.32169   0.00000  Uiso   1.00
N113   N     0.39067   0.00399   0.15052   0.00000  Uiso   1.00
N114   N     0.39300   0.49576   0.32253   0.00000  Uiso   1.00
O115   O     0.50000   0.18453   0.28974   0.00000  Uiso   1.00
O116   O     0.50000   0.31547   0.21026   0.00000  Uiso   1.00
O117   O     0.50000   0.18453   0.21026   0.00000  Uiso   1.00
O118   O     0.50000   0.31547   0.28974   0.00000  Uiso   1.00
O119   O     0.42392   0.25000   0.28045   0.00000  Uiso   1.00
O120   O     0.57608   0.25000   0.21956   0.00000  Uiso   1.00
O121   O     0.42392   0.25000   0.20097   0.00000  Uiso   1.00
O122   O     0.57608   0.25000   0.29904   0.00000  Uiso   1.00
Zn123  Zn    0.50000   0.25001   0.30307   0.00000  Uiso   1.00
Zn124  Zn    0.50000   0.25000   0.19693   0.00000  Uiso   1.00
C125   C     0.83211   0.16396   0.24961   0.00000  Uiso   1.00
C126   C     0.80789   0.21609   0.44359   0.00000  Uiso   1.00
C127   C     0.83323   0.25007   0.02664   0.00000  Uiso   1.00
C128   C     0.83321   0.25008   0.47328   0.00000  Uiso   1.00
C129   C     0.73367   0.24999   0.23753   0.00000  Uiso   1.00
C130   C     0.93300   0.25005   0.26247   0.00000  Uiso   1.00
C131   C     0.67865   0.24996   0.23080   0.00000  Uiso   1.00
C132   C     0.98803   0.25015   0.26919   0.00000  Uiso   1.00
C133   C     0.85845   0.04628   0.28325   0.00000  Uiso   1.00
C134   C     0.85760   0.45383   0.22314   0.00000  Uiso   1.00
C135   C     0.86052   0.09227   0.28337   0.00000  Uiso   1.00
C136   C     0.83210   0.33605   0.25007   0.00000  Uiso   1.00
C137   C     0.85964   0.40784   0.22341   0.00000  Uiso   1.00
C138   C     0.82801   0.11606   0.24851   0.00000  Uiso   1.00
C139   C     0.82797   0.38395   0.25016   0.00000  Uiso   1.00
C140   C     0.79179   0.09399   0.21369   0.00000  Uiso   1.00
C141   C     0.79266   0.40594   0.27613   0.00000  Uiso   1.00
C142   C     0.78974   0.04730   0.21368   0.00000  Uiso   1.00
C143   C     0.79061   0.45262   0.27568   0.00000  Uiso   1.00
C144   C     0.82357   0.02405   0.24853   0.00000  Uiso   1.00
C145   C     0.82360   0.47596   0.24925   0.00000  Uiso   1.00
C146   C     0.75553   0.11894   0.17955   0.00000  Uiso   1.00
C147   C     0.79068   0.23258   0.04662   0.00000  Uiso   1.00
C148   C     0.75747   0.38088   0.30151   0.00000  Uiso   1.00
C149   C     0.75317   0.02324   0.17852   0.00000  Uiso   1.00
C150   C     0.75486   0.47659   0.30177   0.00000  Uiso   1.00
C151   C     0.85851   0.28409   0.45112   0.00000  Uiso   1.00
C152   C     0.79157   0.23280   0.09636   0.00000  Uiso   1.00
C153   C     0.85818   0.28336   0.40145   0.00000  Uiso   1.00
C154   C     0.87499   0.26732   0.10803   0.00000  Uiso   1.00
C155   C     0.80831   0.21675   0.39404   0.00000  Uiso   1.00
C156   C     0.87581   0.26756   0.05853   0.00000  Uiso   1.00
H157   H     0.99135   0.24972   0.19437   0.00000  Uiso   1.00
H158   H     0.87776   0.30969   0.38498   0.00000  Uiso   1.00
H159   H     0.90792   0.28103   0.13192   0.00000  Uiso   1.00
H160   H     0.78866   0.19046   0.37174   0.00000  Uiso   1.00
H161   H     0.91002   0.28083   0.04555   0.00000  Uiso   1.00
H162   H     0.78845   0.18867   0.45845   0.00000  Uiso   1.00
H163   H     0.67534   0.25038   0.30562   0.00000  Uiso   1.00
H164   H     0.88419   0.02785   0.31001   0.00000  Uiso   1.00
H165   H     0.88269   0.47233   0.20278   0.00000  Uiso   1.00
H166   H     0.88806   0.10936   0.31021   0.00000  Uiso   1.00
H167   H     0.88653   0.39084   0.20337   0.00000  Uiso   1.00
H168   H     0.75641   0.21939   0.02406   0.00000  Uiso   1.00
H169   H     0.87787   0.31154   0.47179   0.00000  Uiso   1.00
H170   H     0.75856   0.21936   0.11104   0.00000  Uiso   1.00
N171   N     0.83333   0.24999   0.12624   0.00000  Uiso   1.00
N172   N     0.83333   0.25001   0.37377   0.00000  Uiso   1.00
N173   N     0.72651   0.13879   0.15238   0.00000  Uiso   1.00
N174   N     0.72939   0.36088   0.32169   0.00000  Uiso   1.00
N175   N     0.72401   0.00399   0.15052   0.00000  Uiso   1.00
N176   N     0.72634   0.49576   0.32253   0.00000  Uiso   1.00
O177   O     0.83334   0.18453   0.28974   0.00000  Uiso   1.00
O178   O     0.83333   0.31547   0.21026   0.00000  Uiso   1.00
O179   O     0.83334   0.18453   0.21026   0.00000  Uiso   1.00
O180   O     0.83333   0.31547   0.28974   0.00000  Uiso   1.00
O181   O     0.75725   0.25000   0.28045   0.00000  Uiso   1.00
O182   O     0.90942   0.25000   0.21956   0.00000  Uiso   1.00
O183   O     0.75725   0.25000   0.20097   0.00000  Uiso   1.00
O184   O     0.90942   0.25000   0.29904   0.00000  Uiso   1.00
Zn185  Zn    0.83333   0.25001   0.30307   0.00000  Uiso   1.00
Zn186  Zn    0.83333   0.25000   0.19693   0.00000  Uiso   1.00
C187   C     0.16544   0.66396   0.24961   0.00000  Uiso   1.00
C188   C     0.14122   0.71609   0.44359   0.00000  Uiso   1.00
C189   C     0.16657   0.75007   0.02664   0.00000  Uiso   1.00
C190   C     0.16654   0.75008   0.47328   0.00000  Uiso   1.00
C191   C     0.06701   0.74999   0.23753   0.00000  Uiso   1.00
C192   C     0.26633   0.75005   0.26247   0.00000  Uiso   1.00
C193   C     0.01199   0.74996   0.23080   0.00000  Uiso   1.00
C194   C     0.32136   0.75015   0.26919   0.00000  Uiso   1.00
C195   C     0.19178   0.54628   0.28325   0.00000  Uiso   1.00
C196   C     0.19094   0.95383   0.22314   0.00000  Uiso   1.00
C197   C     0.19385   0.59227   0.28337   0.00000  Uiso   1.00
C198   C     0.16544   0.83605   0.25007   0.00000  Uiso   1.00
C199   C     0.19297   0.90784   0.22341   0.00000  Uiso   1.00
C200   C     0.16134   0.61606   0.24851   0.00000  Uiso   1.00
C201   C     0.16130   0.88395   0.25016   0.00000  Uiso   1.00
C202   C     0.12512   0.59399   0.21369   0.00000  Uiso   1.00
C203   C     0.12600   0.90594   0.27613   0.00000  Uiso   1.00
C204   C     0.12308   0.54730   0.21368   0.00000  Uiso   1.00
C205   C     0.12394   0.95262   0.27568   0.00000  Uiso   1.00
C206   C     0.15691   0.52405   0.24853   0.00000  Uiso   1.00
C207   C     0.15693   0.97596   0.24925   0.00000  Uiso   1.00
C208   C     0.08886   0.61894   0.17955   0.00000  Uiso   1.00
C209   C     0.12401   0.73258   0.04662   0.00000  Uiso   1.00
C210   C     0.09080   0.88088   0.30151   0.00000  Uiso   1.00
C211   C     0.08650   0.52324   0.17852   0.00000  Uiso   1.00
C212   C     0.08819   0.97659   0.30177   0.00000  Uiso   1.00
C213   C     0.19185   0.78409   0.45112   0.00000  Uiso   1.00
C214   C     0.12491   0.73280   0.09636   0.00000  Uiso   1.00
C215   C     0.19152   0.78336   0.40145   0.00000  Uiso   1.00
C216   C     0.20832   0.76732   0.10803   0.00000  Uiso   1.00
C217   C     0.14165   0.71675   0.39404   0.00000  Uiso   1.00
C218   C     0.20915   0.76756   0.05853   0.00000  Uiso   1.00
H219   H     0.32469   0.74972   0.19437   0.00000  Uiso   1.00
H220   H     0.21109   0.80969   0.38498   0.00000  Uiso   1.00
H221   H     0.24126   0.78103   0.13192   0.00000  Uiso   1.00
H222   H     0.12199   0.69046   0.37174   0.00000  Uiso   1.00
H223   H     0.24336   0.78083   0.04555   0.00000  Uiso   1.00
H224   H     0.12179   0.68867   0.45845   0.00000  Uiso   1.00
H225   H     0.00867   0.75038   0.30562   0.00000  Uiso   1.00
H226   H     0.21752   0.52785   0.31001   0.00000  Uiso   1.00
H227   H     0.21603   0.97233   0.20278   0.00000  Uiso   1.00
H228   H     0.22140   0.60936   0.31021   0.00000  Uiso   1.00
H229   H     0.21986   0.89084   0.20337   0.00000  Uiso   1.00
H230   H     0.08974   0.71939   0.02406   0.00000  Uiso   1.00
H231   H     0.21121   0.81154   0.47179   0.00000  Uiso   1.00
H232   H     0.09189   0.71936   0.11104   0.00000  Uiso   1.00
N233   N     0.16667   0.74999   0.12624   0.00000  Uiso   1.00
N234   N     0.16667   0.75001   0.37377   0.00000  Uiso   1.00
N235   N     0.05985   0.63879   0.15238   0.00000  Uiso   1.00
N236   N     0.06272   0.86088   0.32169   0.00000  Uiso   1.00
N237   N     0.05734   0.50399   0.15052   0.00000  Uiso   1.00
N238   N     0.05967   0.99576   0.32253   0.00000  Uiso   1.00
O239   O     0.16667   0.68453   0.28974   0.00000  Uiso   1.00
O240   O     0.16666   0.81547   0.21026   0.00000  Uiso   1.00
O241   O     0.16667   0.68453   0.21026   0.00000  Uiso   1.00
O242   O     0.16666   0.81547   0.28974   0.00000  Uiso   1.00
O243   O     0.09058   0.75000   0.28045   0.00000  Uiso   1.00
O244   O     0.24275   0.75000   0.21956   0.00000  Uiso   1.00
O245   O     0.09058   0.75000   0.20097   0.00000  Uiso   1.00
O246   O     0.24275   0.75000   0.29904   0.00000  Uiso   1.00
Zn247  Zn    0.16667   0.75001   0.30307   0.00000  Uiso   1.00
Zn248  Zn    0.16667   0.75000   0.19693   0.00000  Uiso   1.00
C249   C     0.49877   0.66396   0.24961   0.00000  Uiso   1.00
C250   C     0.47455   0.71609   0.44359   0.00000  Uiso   1.00
C251   C     0.49990   0.75007   0.02664   0.00000  Uiso   1.00
C252   C     0.49987   0.75008   0.47328   0.00000  Uiso   1.00
C253   C     0.40034   0.74999   0.23753   0.00000  Uiso   1.00
C254   C     0.59967   0.75005   0.26247   0.00000  Uiso   1.00
C255   C     0.34532   0.74996   0.23080   0.00000  Uiso   1.00
C256   C     0.65469   0.75015   0.26919   0.00000  Uiso   1.00
C257   C     0.52511   0.54628   0.28325   0.00000  Uiso   1.00
C258   C     0.52427   0.95383   0.22314   0.00000  Uiso   1.00
C259   C     0.52719   0.59227   0.28337   0.00000  Uiso   1.00
C260   C     0.49877   0.83605   0.25007   0.00000  Uiso   1.00
C261   C     0.52630   0.90784   0.22341   0.00000  Uiso   1.00
C262   C     0.49468   0.61606   0.24851   0.00000  Uiso   1.00
C263   C     0.49464   0.88395   0.25016   0.00000  Uiso   1.00
C264   C     0.45845   0.59399   0.21369   0.00000  Uiso   1.00
C265   C     0.45933   0.90594   0.27613   0.00000  Uiso   1.00
C266   C     0.45641   0.54730   0.21368   0.00000  Uiso   1.00
C267   C     0.45727   0.95262   0.27568   0.00000  Uiso   1.00
C268   C     0.49024   0.52405   0.24853   0.00000  Uiso   1.00
C269   C     0.49027   0.97596   0.24925   0.00000  Uiso   1.00
C270   C     0.42220   0.61894   0.17955   0.00000  Uiso   1.00
C271   C     0.45734   0.73258   0.04662   0.00000  Uiso   1.00
C272   C     0.42413   0.88088   0.30151   0.00000  Uiso   1.00
C273   C     0.41984   0.52324   0.17852   0.00000  Uiso   1.00
C274   C     0.42152   0.97659   0.30177   0.00000  Uiso   1.00
C275   C     0.52518   0.78409   0.45112   0.00000  Uiso   1.00
C276   C     0.45824   0.73280   0.09636   0.00000  Uiso   1.00
C277   C     0.52485   0.78336   0.40145   0.00000  Uiso   1.00
C278   C     0.54166   0.76732   0.10803   0.00000  Uiso   1.00
C279   C     0.47498   0.71675   0.39404   0.00000  Uiso   1.00
C280   C     0.54248   0.76756   0.05853   0.00000  Uiso   1.00
H281   H     0.65802   0.74972   0.19437   0.00000  Uiso   1.00
H282   H     0.54442   0.80969   0.38498   0.00000  Uiso   1.00
H283   H     0.57459   0.78103   0.13192   0.00000  Uiso   1.00
H284   H     0.45532   0.69046   0.37174   0.00000  Uiso   1.00
H285   H     0.57669   0.78083   0.04555   0.00000  Uiso   1.00
H286   H     0.45512   0.68867   0.45845   0.00000  Uiso   1.00
H287   H     0.34201   0.75038   0.30562   0.00000  Uiso   1.00
H288   H     0.55085   0.52785   0.31001   0.00000  Uiso   1.00
H289   H     0.54936   0.97233   0.20278   0.00000  Uiso   1.00
H290   H     0.55473   0.60936   0.31021   0.00000  Uiso   1.00
H291   H     0.55320   0.89084   0.20337   0.00000  Uiso   1.00
H292   H     0.42307   0.71939   0.02406   0.00000  Uiso   1.00
H293   H     0.54454   0.81154   0.47179   0.00000  Uiso   1.00
H294   H     0.42523   0.71936   0.11104   0.00000  Uiso   1.00
N295   N     0.50000   0.74999   0.12624   0.00000  Uiso   1.00
N296   N     0.50000   0.75001   0.37377   0.00000  Uiso   1.00
N297   N     0.39318   0.63879   0.15238   0.00000  Uiso   1.00
N298   N     0.39606   0.86088   0.32169   0.00000  Uiso   1.00
N299   N     0.39067   0.50399   0.15052   0.00000  Uiso   1.00
N300   N     0.39300   0.99576   0.32253   0.00000  Uiso   1.00
O301   O     0.50000   0.68453   0.28974   0.00000  Uiso   1.00
O302   O     0.50000   0.81547   0.21026   0.00000  Uiso   1.00
O303   O     0.50000   0.68453   0.21026   0.00000  Uiso   1.00
O304   O     0.50000   0.81547   0.28974   0.00000  Uiso   1.00
O305   O     0.42392   0.75000   0.28045   0.00000  Uiso   1.00
O306   O     0.57608   0.75000   0.21956   0.00000  Uiso   1.00
O307   O     0.42392   0.75000   0.20097   0.00000  Uiso   1.00
O308   O     0.57608   0.75000   0.29904   0.00000  Uiso   1.00
Zn309  Zn    0.50000   0.75001   0.30307   0.00000  Uiso   1.00
Zn310  Zn    0.50000   0.75000   0.19693   0.00000  Uiso   1.00
C311   C     0.83211   0.66396   0.24961   0.00000  Uiso   1.00
C312   C     0.80789   0.71609   0.44359   0.00000  Uiso   1.00
C313   C     0.83323   0.75007   0.02664   0.00000  Uiso   1.00
C314   C     0.83321   0.75008   0.47328   0.00000  Uiso   1.00
C315   C     0.73367   0.74999   0.23753   0.00000  Uiso   1.00
C316   C     0.93300   0.75005   0.26247   0.00000  Uiso   1.00
C317   C     0.67865   0.74996   0.23080   0.00000  Uiso   1.00
C318   C     0.98803   0.75015   0.26919   0.00000  Uiso   1.00
C319   C     0.85845   0.54628   0.28325   0.00000  Uiso   1.00
C320   C     0.85760   0.95383   0.22314   0.00000  Uiso   1.00
C321   C     0.86052   0.59227   0.28337   0.00000  Uiso   1.00
C322   C     0.83210   0.83605   0.25007   0.00000  Uiso   1.00
C323   C     0.85964   0.90784   0.22341   0.00000  Uiso   1.00
C324   C     0.82801   0.61606   0.24851   0.00000  Uiso   1.00
C325   C     0.82797   0.88395   0.25016   0.00000  Uiso   1.00
C326   C     0.79179   0.59399   0.21369   0.00000  Uiso   1.00
C327   C     0.79266   0.90594   0.27613   0.00000  Uiso   1.00
C328   C     0.78974   0.54730   0.21368   0.00000  Uiso   1.00
C329   C     0.79061   0.95262   0.27568   0.00000  Uiso   1.00
C330   C     0.82357   0.52405   0.24853   0.00000  Uiso   1.00
C331   C     0.82360   0.97596   0.24925   0.00000  Uiso   1.00
C332   C     0.75553   0.61894   0.17955   0.00000  Uiso   1.00
C333   C     0.79068   0.73258   0.04662   0.00000  Uiso   1.00
C334   C     0.75747   0.88088   0.30151   0.00000  Uiso   1.00
C335   C     0.75317   0.52324   0.17852   0.00000  Uiso   1.00
C336   C     0.75486   0.97659   0.30177   0.00000  Uiso   1.00
C337   C     0.85851   0.78409   0.45112   0.00000  Uiso   1.00
C338   C     0.79157   0.73280   0.09636   0.00000  Uiso   1.00
C339   C     0.85818   0.78336   0.40145   0.00000  Uiso   1.00
C340   C     0.87499   0.76732   0.10803   0.00000  Uiso   1.00
C341   C     0.80831   0.71675   0.39404   0.00000  Uiso   1.00
C342   C     0.87581   0.76756   0.05853   0.00000  Uiso   1.00
H343   H     0.99135   0.74972   0.19437   0.00000  Uiso   1.00
H344   H     0.87776   0.80969   0.38498   0.00000  Uiso   1.00
H345   H     0.90792   0.78103   0.13192   0.00000  Uiso   1.00
H346   H     0.78866   0.69046   0.37174   0.00000  Uiso   1.00
H347   H     0.91002   0.78083   0.04555   0.00000  Uiso   1.00
H348   H     0.78845   0.68867   0.45845   0.00000  Uiso   1.00
H349   H     0.67534   0.75038   0.30562   0.00000  Uiso   1.00
H350   H     0.88419   0.52785   0.31001   0.00000  Uiso   1.00
H351   H     0.88269   0.97233   0.20278   0.00000  Uiso   1.00
H352   H     0.88806   0.60936   0.31021   0.00000  Uiso   1.00
H353   H     0.88653   0.89084   0.20337   0.00000  Uiso   1.00
H354   H     0.75641   0.71939   0.02406   0.00000  Uiso   1.00
H355   H     0.87787   0.81154   0.47179   0.00000  Uiso   1.00
H356   H     0.75856   0.71936   0.11104   0.00000  Uiso   1.00
N357   N     0.83333   0.74999   0.12624   0.00000  Uiso   1.00
N358   N     0.83333   0.75001   0.37377   0.00000  Uiso   1.00
N359   N     0.72651   0.63879   0.15238   0.00000  Uiso   1.00
N360   N     0.72939   0.86088   0.32169   0.00000  Uiso   1.00
N361   N     0.72401   0.50399   0.15052   0.00000  Uiso   1.00
N362   N     0.72634   0.99576   0.32253   0.00000  Uiso   1.00
O363   O     0.83334   0.68453   0.28974   0.00000  Uiso   1.00
O364   O     0.83333   0.81547   0.21026   0.00000  Uiso   1.00
O365   O     0.83334   0.68453   0.21026   0.00000  Uiso   1.00
O366   O     0.83333   0.81547   0.28974   0.00000  Uiso   1.00
O367   O     0.75725   0.75000   0.28045   0.00000  Uiso   1.00
O368   O     0.90942   0.75000   0.21956   0.00000  Uiso   1.00
O369   O     0.75725   0.75000   0.20097   0.00000  Uiso   1.00
O370   O     0.90942   0.75000   0.29904   0.00000  Uiso   1.00
Zn371  Zn    0.83333   0.75001   0.30307   0.00000  Uiso   1.00
Zn372  Zn    0.83333   0.75000   0.19693   0.00000  Uiso   1.00
C373   C     0.16544   0.16396   0.74961   0.00000  Uiso   1.00
C374   C     0.14122   0.21609   0.94359   0.00000  Uiso   1.00
C375   C     0.16657   0.25007   0.52664   0.00000  Uiso   1.00
C376   C     0.16654   0.25008   0.97328   0.00000  Uiso   1.00
C377   C     0.06701   0.24999   0.73753   0.00000  Uiso   1.00
C378   C     0.26633   0.25005   0.76247   0.00000  Uiso   1.00
C379   C     0.01199   0.24996   0.73080   0.00000  Uiso   1.00
C380   C     0.32136   0.25015   0.76919   0.00000  Uiso   1.00
C381   C     0.19178   0.04628   0.78325   0.00000  Uiso   1.00
C382   C     0.19094   0.45383   0.72314   0.00000  Uiso   1.00
C383   C     0.19385   0.09227   0.78337   0.00000  Uiso   1.00
C384   C     0.16544   0.33605   0.75007   0.00000  Uiso   1.00
C385   C     0.19297   0.40784   0.72341   0.00000  Uiso   1.00
C386   C     0.16134   0.11606   0.74851   0.00000  Uiso   1.00
C387   C     0.16130   0.38395   0.75016   0.00000  Uiso   1.00
C388   C     0.12512   0.09399   0.71369   0.00000  Uiso   1.00
C389   C     0.12600   0.40594   0.77613   0.00000  Uiso   1.00
C390   C     0.12308   0.04730   0.71368   0.00000  Uiso   1.00
C391   C     0.12394   0.45262   0.77568   0.00000  Uiso   1.00
C392   C     0.15691   0.02405   0.74853   0.00000  Uiso   1.00
C393   C     0.15693   0.47596   0.74925   0.00000  Uiso   1.00
C394   C     0.08886   0.11894   0.67955   0.00000  Uiso   1.00
C395   C     0.12401   0.23258   0.54662   0.00000  Uiso   1.00
C396   C     0.09080   0.38088   0.80151   0.00000  Uiso   1.00
C397   C     0.08650   0.02324   0.67852   0.00000  Uiso   1.00
C398   C     0.08819   0.47659   0.80177   0.00000  Uiso   1.00
C399   C     0.19185   0.28409   0.95112   0.00000  Uiso   1.00
C400   C     0.12491   0.23280   0.59636   0.00000  Uiso   1.00
C401   C     0.19152   0.28336   0.90145   0.00000  Uiso   1.00
C402   C     0.20832   0.26732   0.60803   0.00000  Uiso   1.00
C403   C     0.14165   0.21675   0.89404   0.00000  Uiso   1.00
C404   C     0.20915   0.26756   0.55853   0.00000  Uiso   1.00
H405   H     0.32469   0.24972   0.69437   0.00000  Uiso   1.00
H406   H     0.21109   0.30969   0.88498   0.00000  Uiso   1.00
H407   H     0.24126   0.28103   0.63192   0.00000  Uiso   1.00
H408   H     0.12199   0.19046   0.87174   0.00000  Uiso   1.00
H409   H     0.24336   0.28083   0.54555   0.00000  Uiso   1.00
H410   H     0.12179   0.18867   0.95845   0.00000  Uiso   1.00
H411   H     0.00867   0.25038   0.80562   0.00000  Uiso   1.00
H412   H     0.21752   0.02785   0.81001   0.00000  Uiso   1.00
H413   H     0.21603   0.47233   0.70278   0.00000  Uiso   1.00
H414   H     0.22140   0.10936   0.81021   0.00000  Uiso   1.00
H415   H     0.21986   0.39084   0.70337   0.00000  Uiso   1.00
H416   H     0.08974   0.21939   0.52406   0.00000  Uiso   1.00
H417   H     0.21121   0.31154   0.97179   0.00000  Uiso   1.00
H418   H     0.09189   0.21936   0.61104   0.00000  Uiso   1.00
N419   N     0.16667   0.24999   0.62624   0.00000  Uiso   1.00
N420   N     0.16667   0.25001   0.87377   0.00000  Uiso   1.00
N421   N     0.05985   0.13879   0.65238   0.00000  Uiso   1.00
N422   N     0.06272   0.36088   0.82169   0.00000  Uiso   1.00
N423   N     0.05734   0.00399   0.65052   0.00000  Uiso   1.00
N424   N     0.05967   0.49576   0.82253   0.00000  Uiso   1.00
O425   O     0.16667   0.18453   0.78974   0.00000  Uiso   1.00
O426   O     0.16666   0.31547   0.71026   0.00000  Uiso   1.00
O427   O     0.16667   0.18453   0.71026   0.00000  Uiso   1.00
O428   O     0.16666   0.31547   0.78974   0.00000  Uiso   1.00
O429   O     0.09058   0.25000   0.78045   0.00000  Uiso   1.00
O430   O     0.24275   0.25000   0.71956   0.00000  Uiso   1.00
O431   O     0.09058   0.25000   0.70097   0.00000  Uiso   1.00
O432   O     0.24275   0.25000   0.79904   0.00000  Uiso   1.00
Zn433  Zn    0.16667   0.25001   0.80307   0.00000  Uiso   1.00
Zn434  Zn    0.16667   0.25000   0.69693   0.00000  Uiso   1.00
C435   C     0.49877   0.16396   0.74961   0.00000  Uiso   1.00
C436   C     0.47455   0.21609   0.94359   0.00000  Uiso   1.00
C437   C     0.49990   0.25007   0.52664   0.00000  Uiso   1.00
C438   C     0.49987   0.25008   0.97328   0.00000  Uiso   1.00
C439   C     0.40034   0.24999   0.73753   0.00000  Uiso   1.00
C440   C     0.59967   0.25005   0.76247   0.00000  Uiso   1.00
C441   C     0.34532   0.24996   0.73080   0.00000  Uiso   1.00
C442   C     0.65469   0.25015   0.76919   0.00000  Uiso   1.00
C443   C     0.52511   0.04628   0.78325   0.00000  Uiso   1.00
C444   C     0.52427   0.45383   0.72314   0.00000  Uiso   1.00
C445   C     0.52719   0.09227   0.78337   0.00000  Uiso   1.00
C446   C     0.49877   0.33605   0.75007   0.00000  Uiso   1.00
C447   C     0.52630   0.40784   0.72341   0.00000  Uiso   1.00
C448   C     0.49468   0.11606   0.74851   0.00000  Uiso   1.00
C449   C     0.49464   0.38395   0.75016   0.00000  Uiso   1.00
C450   C     0.45845   0.09399   0.71369   0.00000  Uiso   1.00
C451   C     0.45933   0.40594   0.77613   0.00000  Uiso   1.00
C452   C     0.45641   0.04730   0.71368   0.00000  Uiso   1.00
C453   C     0.45727   0.45262   0.77568   0.00000  Uiso   1.00
C454   C     0.49024   0.02405   0.74853   0.00000  Uiso   1.00
C455   C     0.49027   0.47596   0.74925   0.00000  Uiso   1.00
C456   C     0.42220   0.11894   0.67955   0.00000  Uiso   1.00
C457   C     0.45734   0.23258   0.54662   0.00000  Uiso   1.00
C458   C     0.42413   0.38088   0.80151   0.00000  Uiso   1.00
C459   C     0.41984   0.02324   0.67852   0.00000  Uiso   1.00
C460   C     0.42152   0.47659   0.80177   0.00000  Uiso   1.00
C461   C     0.52518   0.28409   0.95112   0.00000  Uiso   1.00
C462   C     0.45824   0.23280   0.59636   0.00000  Uiso   1.00
C463   C     0.52485   0.28336   0.90145   0.00000  Uiso   1.00
C464   C     0.54166   0.26732   0.60803   0.00000  Uiso   1.00
C465   C     0.47498   0.21675   0.89404   0.00000  Uiso   1.00
C466   C     0.54248   0.26756   0.55853   0.00000  Uiso   1.00
H467   H     0.65802   0.24972   0.69437   0.00000  Uiso   1.00
H468   H     0.54442   0.30969   0.88498   0.00000  Uiso   1.00
H469   H     0.57459   0.28103   0.63192   0.00000  Uiso   1.00
H470   H     0.45532   0.19046   0.87174   0.00000  Uiso   1.00
H471   H     0.57669   0.28083   0.54555   0.00000  Uiso   1.00
H472   H     0.45512   0.18867   0.95845   0.00000  Uiso   1.00
H473   H     0.34201   0.25038   0.80562   0.00000  Uiso   1.00
H474   H     0.55085   0.02785   0.81001   0.00000  Uiso   1.00
H475   H     0.54936   0.47233   0.70278   0.00000  Uiso   1.00
H476   H     0.55473   0.10936   0.81021   0.00000  Uiso   1.00
H477   H     0.55320   0.39084   0.70337   0.00000  Uiso   1.00
H478   H     0.42307   0.21939   0.52406   0.00000  Uiso   1.00
H479   H     0.54454   0.31154   0.97179   0.00000  Uiso   1.00
H480   H     0.42523   0.21936   0.61104   0.00000  Uiso   1.00
N481   N     0.50000   0.24999   0.62624   0.00000  Uiso   1.00
N482   N     0.50000   0.25001   0.87377   0.00000  Uiso   1.00
N483   N     0.39318   0.13879   0.65238   0.00000  Uiso   1.00
N484   N     0.39606   0.36088   0.82169   0.00000  Uiso   1.00
N485   N     0.39067   0.00399   0.65052   0.00000  Uiso   1.00
N486   N     0.39300   0.49576   0.82253   0.00000  Uiso   1.00
O487   O     0.50000   0.18453   0.78974   0.00000  Uiso   1.00
O488   O     0.50000   0.31547   0.71026   0.00000  Uiso   1.00
O489   O     0.50000   0.18453   0.71026   0.00000  Uiso   1.00
O490   O     0.50000   0.31547   0.78974   0.00000  Uiso   1.00
O491   O     0.42392   0.25000   0.78045   0.00000  Uiso   1.00
O492   O     0.57608   0.25000   0.71956   0.00000  Uiso   1.00
O493   O     0.42392   0.25000   0.70097   0.00000  Uiso   1.00
O494   O     0.57608   0.25000   0.79904   0.00000  Uiso   1.00
Zn495  Zn    0.50000   0.25001   0.80307   0.00000  Uiso   1.00
Zn496  Zn    0.50000   0.25000   0.69693   0.00000  Uiso   1.00
C497   C     0.83211   0.16396   0.74961   0.00000  Uiso   1.00
C498   C     0.80789   0.21609   0.94359   0.00000  Uiso   1.00
C499   C     0.83323   0.25007   0.52664   0.00000  Uiso   1.00
C500   C     0.83321   0.25008   0.97328   0.00000  Uiso   1.00
C501   C     0.73367   0.24999   0.73753   0.00000  Uiso   1.00
C502   C     0.93300   0.25005   0.76247   0.00000  Uiso   1.00
C503   C     0.67865   0.24996   0.73080   0.00000  Uiso   1.00
C504   C     0.98803   0.25015   0.76919   0.00000  Uiso   1.00
C505   C     0.85845   0.04628   0.78325   0.00000  Uiso   1.00
C506   C     0.85760   0.45383   0.72314   0.00000  Uiso   1.00
C507   C     0.86052   0.09227   0.78337   0.00000  Uiso   1.00
C508   C     0.83210   0.33605   0.75007   0.00000  Uiso   1.00
C509   C     0.85964   0.40784   0.72341   0.00000  Uiso   1.00
C510   C     0.82801   0.11606   0.74851   0.00000  Uiso   1.00
C511   C     0.82797   0.38395   0.75016   0.00000  Uiso   1.00
C512   C     0.79179   0.09399   0.71369   0.00000  Uiso   1.00
C513   C     0.79266   0.40594   0.77613   0.00000  Uiso   1.00
C514   C     0.78974   0.04730   0.71368   0.00000  Uiso   1.00
C515   C     0.79061   0.45262   0.77568   0.00000  Uiso   1.00
C516   C     0.82357   0.02405   0.74853   0.00000  Uiso   1.00
C517   C     0.82360   0.47596   0.74925   0.00000  Uiso   1.00
C518   C     0.75553   0.11894   0.67955   0.00000  Uiso   1.00
C519   C     0.79068   0.23258   0.54662   0.00000  Uiso   1.00
C520   C     0.75747   0.38088   0.80151   0.00000  Uiso   1.00
C521   C     0.75317   0.02324   0.67852   0.00000  Uiso   1.00
C522   C     0.75486   0.47659   0.80177   0.00000  Uiso   1.00
C523   C     0.85851   0.28409   0.95112   0.00000  Uiso   1.00
C524   C     0.79157   0.23280   0.59636   0.00000  Uiso   1.00
C525   C     0.85818   0.28336   0.90145   0.00000  Uiso   1.00
C526   C     0.87499   0.26732   0.60803   0.00000  Uiso   1.00
C527   C     0.80831   0.21675   0.89404   0.00000  Uiso   1.00
C528   C     0.87581   0.26756   0.55853   0.00000  Uiso   1.00
H529   H     0.99135   0.24972   0.69437   0.00000  Uiso   1.00
H530   H     0.87776   0.30969   0.88498   0.00000  Uiso   1.00
H531   H     0.90792   0.28103   0.63192   0.00000  Uiso   1.00
H532   H     0.78866   0.19046   0.87174   0.00000  Uiso   1.00
H533   H     0.91002   0.28083   0.54555   0.00000  Uiso   1.00
H534   H     0.78845   0.18867   0.95845   0.00000  Uiso   1.00
H535   H     0.67534   0.25038   0.80562   0.00000  Uiso   1.00
H536   H     0.88419   0.02785   0.81001   0.00000  Uiso   1.00
H537   H     0.88269   0.47233   0.70278   0.00000  Uiso   1.00
H538   H     0.88806   0.10936   0.81021   0.00000  Uiso   1.00
H539   H     0.88653   0.39084   0.70337   0.00000  Uiso   1.00
H540   H     0.75641   0.21939   0.52406   0.00000  Uiso   1.00
H541   H     0.87787   0.31154   0.97179   0.00000  Uiso   1.00
H542   H     0.75856   0.21936   0.61104   0.00000  Uiso   1.00
N543   N     0.83333   0.24999   0.62624   0.00000  Uiso   1.00
N544   N     0.83333   0.25001   0.87377   0.00000  Uiso   1.00
N545   N     0.72651   0.13879   0.65238   0.00000  Uiso   1.00
N546   N     0.72939   0.36088   0.82169   0.00000  Uiso   1.00
N547   N     0.72401   0.00399   0.65052   0.00000  Uiso   1.00
N548   N     0.72634   0.49576   0.82253   0.00000  Uiso   1.00
O549   O     0.83334   0.18453   0.78974   0.00000  Uiso   1.00
O550   O     0.83333   0.31547   0.71026   0.00000  Uiso   1.00
O551   O     0.83334   0.18453   0.71026   0.00000  Uiso   1.00
O552   O     0.83333   0.31547   0.78974   0.00000  Uiso   1.00
O553   O     0.75725   0.25000   0.78045   0.00000  Uiso   1.00
O554   O     0.90942   0.25000   0.71956   0.00000  Uiso   1.00
O555   O     0.75725   0.25000   0.70097   0.00000  Uiso   1.00
O556   O     0.90942   0.25000   0.79904   0.00000  Uiso   1.00
Zn557  Zn    0.83333   0.25001   0.80307   0.00000  Uiso   1.00
Zn558  Zn    0.83333   0.25000   0.69693   0.00000  Uiso   1.00
C559   C     0.16544   0.66396   0.74961   0.00000  Uiso   1.00
C560   C     0.14122   0.71609   0.94359   0.00000  Uiso   1.00
C561   C     0.16657   0.75007   0.52664   0.00000  Uiso   1.00
C562   C     0.16654   0.75008   0.97328   0.00000  Uiso   1.00
C563   C     0.06701   0.74999   0.73753   0.00000  Uiso   1.00
C564   C     0.26633   0.75005   0.76247   0.00000  Uiso   1.00
C565   C     0.01199   0.74996   0.73080   0.00000  Uiso   1.00
C566   C     0.32136   0.75015   0.76919   0.00000  Uiso   1.00
C567   C     0.19178   0.54628   0.78325   0.00000  Uiso   1.00
C568   C     0.19094   0.95383   0.72314   0.00000  Uiso   1.00
C569   C     0.19385   0.59227   0.78337   0.00000  Uiso   1.00
C570   C     0.16544   0.83605   0.75007   0.00000  Uiso   1.00
C571   C     0.19297   0.90784   0.72341   0.00000  Uiso   1.00
C572   C     0.16134   0.61606   0.74851   0.00000  Uiso   1.00
C573   C     0.16130   0.88395   0.75016   0.00000  Uiso   1.00
C574   C     0.12512   0.59399   0.71369   0.00000  Uiso   1.00
C575   C     0.12600   0.90594   0.77613   0.00000  Uiso   1.00
C576   C     0.12308   0.54730   0.71368   0.00000  Uiso   1.00
C577   C     0.12394   0.95262   0.77568   0.00000  Uiso   1.00
C578   C     0.15691   0.52405   0.74853   0.00000  Uiso   1.00
C579   C     0.15693   0.97596   0.74925   0.00000  Uiso   1.00
C580   C     0.08886   0.61894   0.67955   0.00000  Uiso   1.00
C581   C     0.12401   0.73258   0.54662   0.00000  Uiso   1.00
C582   C     0.09080   0.88088   0.80151   0.00000  Uiso   1.00
C583   C     0.08650   0.52324   0.67852   0.00000  Uiso   1.00
C584   C     0.08819   0.97659   0.80177   0.00000  Uiso   1.00
C585   C     0.19185   0.78409   0.95112   0.00000  Uiso   1.00
C586   C     0.12491   0.73280   0.59636   0.00000  Uiso   1.00
C587   C     0.19152   0.78336   0.90145   0.00000  Uiso   1.00
C588   C     0.20832   0.76732   0.60803   0.00000  Uiso   1.00
C589   C     0.14165   0.71675   0.89404   0.00000  Uiso   1.00
C590   C     0.20915   0.76756   0.55853   0.00000  Uiso   1.00
H591   H     0.32469   0.74972   0.69437   0.00000  Uiso   1.00
H592   H     0.21109   0.80969   0.88498   0.00000  Uiso   1.00
H593   H     0.24126   0.78103   0.63192   0.00000  Uiso   1.00
H594   H     0.12199   0.69046   0.87174   0.00000  Uiso   1.00
H595   H     0.24336   0.78083   0.54555   0.00000  Uiso   1.00
H596   H     0.12179   0.68867   0.95845   0.00000  Uiso   1.00
H597   H     0.00867   0.75038   0.80562   0.00000  Uiso   1.00
H598   H     0.21752   0.52785   0.81001   0.00000  Uiso   1.00
H599   H     0.21603   0.97233   0.70278   0.00000  Uiso   1.00
H600   H     0.22140   0.60936   0.81021   0.00000  Uiso   1.00
H601   H     0.21986   0.89084   0.70337   0.00000  Uiso   1.00
H602   H     0.08974   0.71939   0.52406   0.00000  Uiso   1.00
H603   H     0.21121   0.81154   0.97179   0.00000  Uiso   1.00
H604   H     0.09189   0.71936   0.61104   0.00000  Uiso   1.00
N605   N     0.16667   0.74999   0.62624   0.00000  Uiso   1.00
N606   N     0.16667   0.75001   0.87377   0.00000  Uiso   1.00
N607   N     0.05985   0.63879   0.65238   0.00000  Uiso   1.00
N608   N     0.06272   0.86088   0.82169   0.00000  Uiso   1.00
N609   N     0.05734   0.50399   0.65052   0.00000  Uiso   1.00
N610   N     0.05967   0.99576   0.82253   0.00000  Uiso   1.00
O611   O     0.16667   0.68453   0.78974   0.00000  Uiso   1.00
O612   O     0.16666   0.81547   0.71026   0.00000  Uiso   1.00
O613   O     0.16667   0.68453   0.71026   0.00000  Uiso   1.00
O614   O     0.16666   0.81547   0.78974   0.00000  Uiso   1.00
O615   O     0.09058   0.75000   0.78045   0.00000  Uiso   1.00
O616   O     0.24275   0.75000   0.71956   0.00000  Uiso   1.00
O617   O     0.09058   0.75000   0.70097   0.00000  Uiso   1.00
O618   O     0.24275   0.75000   0.79904   0.00000  Uiso   1.00
Zn619  Zn    0.16667   0.75001   0.80307   0.00000  Uiso   1.00
Zn620  Zn    0.16667   0.75000   0.69693   0.00000  Uiso   1.00
C621   C     0.49877   0.66396   0.74961   0.00000  Uiso   1.00
C622   C     0.47455   0.71609   0.94359   0.00000  Uiso   1.00
C623   C     0.49990   0.75007   0.52664   0.00000  Uiso   1.00
C624   C     0.49987   0.75008   0.97328   0.00000  Uiso   1.00
C625   C     0.40034   0.74999   0.73753   0.00000  Uiso   1.00
C626   C     0.59967   0.75005   0.76247   0.00000  Uiso   1.00
C627   C     0.34532   0.74996   0.73080   0.00000  Uiso   1.00
C628   C     0.65469   0.75015   0.76919   0.00000  Uiso   1.00
C629   C     0.52511   0.54628   0.78325   0.00000  Uiso   1.00
C630   C     0.52427   0.95383   0.72314   0.00000  Uiso   1.00
C631   C     0.52719   0.59227   0.78337   0.00000  Uiso   1.00
C632   C     0.49877   0.83605   0.75007   0.00000  Uiso   1.00
C633   C     0.52630   0.90784   0.72341   0.00000  Uiso   1.00
C634   C     0.49468   0.61606   0.74851   0.00000  Uiso   1.00
C635   C     0.49464   0.88395   0.75016   0.00000  Uiso   1.00
C636   C     0.45845   0.59399   0.71369   0.00000  Uiso   1.00
C637   C     0.45933   0.90594   0.77613   0.00000  Uiso   1.00
C638   C     0.45641   0.54730   0.71368   0.00000  Uiso   1.00
C639   C     0.45727   0.95262   0.77568   0.00000  Uiso   1.00
C640   C     0.49024   0.52405   0.74853   0.00000  Uiso   1.00
C641   C     0.49027   0.97596   0.74925   0.00000  Uiso   1.00
C642   C     0.42220   0.61894   0.67955   0.00000  Uiso   1.00
C643   C     0.45734   0.73258   0.54662   0.00000  Uiso   1.00
C644   C     0.42413   0.88088   0.80151   0.00000  Uiso   1.00
C645   C     0.41984   0.52324   0.67852   0.00000  Uiso   1.00
C646   C     0.42152   0.97659   0.80177   0.00000  Uiso   1.00
C647   C     0.52518   0.78409   0.95112   0.00000  Uiso   1.00
C648   C     0.45824   0.73280   0.59636   0.00000  Uiso   1.00
C649   C     0.52485   0.78336   0.90145   0.00000  Uiso   1.00
C650   C     0.54166   0.76732   0.60803   0.00000  Uiso   1.00
C651   C     0.47498   0.71675   0.89404   0.00000  Uiso   1.00
C652   C     0.54248   0.76756   0.55853   0.00000  Uiso   1.00
H653   H     0.65802   0.74972   0.69437   0.00000  Uiso   1.00
H654   H     0.54442   0.80969   0.88498   0.00000  Uiso   1.00
H655   H     0.57459   0.78103   0.63192   0.00000  Uiso   1.00
H656   H     0.45532   0.69046   0.87174   0.00000  Uiso   1.00
H657   H     0.57669   0.78083   0.54555   0.00000  Uiso   1.00
H658   H     0.45512   0.68867   0.95845   0.00000  Uiso   1.00
H659   H     0.34201   0.75038   0.80562   0.00000  Uiso   1.00
H660   H     0.55085   0.52785   0.81001   0.00000  Uiso   1.00
H661   H     0.54936   0.97233   0.70278   0.00000  Uiso   1.00
H662   H     0.55473   0.60936   0.81021   0.00000  Uiso   1.00
H663   H     0.55320   0.89084   0.70337   0.00000  Uiso   1.00
H664   H     0.42307   0.71939   0.52406   0.00000  Uiso   1.00
H665   H     0.54454   0.81154   0.97179   0.00000  Uiso   1.00
H666   H     0.42523   0.71936   0.61104   0.00000  Uiso   1.00
N667   N     0.50000   0.74999   0.62624   0.00000  Uiso   1.00
N668   N     0.50000   0.75001   0.87377   0.00000  Uiso   1.00
N669   N     0.39318   0.63879   0.65238   0.00000  Uiso   1.00
N670   N     0.39606   0.86088   0.82169   0.00000  Uiso   1.00
N671   N     0.39067   0.50399   0.65052   0.00000  Uiso   1.00
N672   N     0.39300   0.99576   0.82253   0.00000  Uiso   1.00
O673   O     0.50000   0.68453   0.78974   0.00000  Uiso   1.00
O674   O     0.50000   0.81547   0.71026   0.00000  Uiso   1.00
O675   O     0.50000   0.68453   0.71026   0.00000  Uiso   1.00
O676   O     0.50000   0.81547   0.78974   0.00000  Uiso   1.00
O677   O     0.42392   0.75000   0.78045   0.00000  Uiso   1.00
O678   O     0.57608   0.75000   0.71956   0.00000  Uiso   1.00
O679   O     0.42392   0.75000   0.70097   0.00000  Uiso   1.00
O680   O     0.57608   0.75000   0.79904   0.00000  Uiso   1.00
Zn681  Zn    0.50000   0.75001   0.80307   0.00000  Uiso   1.00
Zn682  Zn    0.50000   0.75000   0.69693   0.00000  Uiso   1.00
C683   C     0.83211   0.66396   0.74961   0.00000  Uiso   1.00
C684   C     0.80789   0.71609   0.94359   0.00000  Uiso   1.00
C685   C     0.83323   0.75007   0.52664   0.00000  Uiso   1.00
C686   C     0.83321   0.75008   0.97328   0.00000  Uiso   1.00
C687   C     0.73367   0.74999   0.73753   0.00000  Uiso   1.00
C688   C     0.93300   0.75005   0.76247   0.00000  Uiso   1.00
C689   C     0.67865   0.74996   0.73080   0.00000  Uiso   1.00
C690   C     0.98803   0.75015   0.76919   0.00000  Uiso   1.00
C691   C     0.85845   0.54628   0.78325   0.00000  Uiso   1.00
C692   C     0.85760   0.95383   0.72314   0.00000  Uiso   1.00
C693   C     0.86052   0.59227   0.78337   0.00000  Uiso   1.00
C694   C     0.83210   0.83605   0.75007   0.00000  Uiso   1.00
C695   C     0.85964   0.90784   0.72341   0.00000  Uiso   1.00
C696   C     0.82801   0.61606   0.74851   0.00000  Uiso   1.00
C697   C     0.82797   0.88395   0.75016   0.00000  Uiso   1.00
C698   C     0.79179   0.59399   0.71369   0.00000  Uiso   1.00
C699   C     0.79266   0.90594   0.77613   0.00000  Uiso   1.00
C700   C     0.78974   0.54730   0.71368   0.00000  Uiso   1.00
C701   C     0.79061   0.95262   0.77568   0.00000  Uiso   1.00
C702   C     0.82357   0.52405   0.74853   0.00000  Uiso   1.00
C703   C     0.82360   0.97596   0.74925   0.00000  Uiso   1.00
C704   C     0.75553   0.61894   0.67955   0.00000  Uiso   1.00
C705   C     0.79068   0.73258   0.54662   0.00000  Uiso   1.00
C706   C     0.75747   0.88088   0.80151   0.00000  Uiso   1.00
C707   C     0.75317   0.52324   0.67852   0.00000  Uiso   1.00
C708   C     0.75486   0.97659   0.80177   0.00000  Uiso   1.00
C709   C     0.85851   0.78409   0.95112   0.00000  Uiso   1.00
C710   C     0.79157   0.73280   0.59636   0.00000  Uiso   1.00
C711   C     0.85818   0.78336   0.90145   0.00000  Uiso   1.00
C712   C     0.87499   0.76732   0.60803   0.00000  Uiso   1.00
C713   C     0.80831   0.71675   0.89404   0.00000  Uiso   1.00
C714   C     0.87581   0.76756   0.55853   0.00000  Uiso   1.00
H715   H     0.99135   0.74972   0.69437   0.00000  Uiso   1.00
H716   H     0.87776   0.80969   0.88498   0.00000  Uiso   1.00
H717   H     0.90792   0.78103   0.63192   0.00000  Uiso   1.00
H718   H     0.78866   0.69046   0.87174   0.00000  Uiso   1.00
H719   H     0.91002   0.78083   0.54555   0.00000  Uiso   1.00
H720   H     0.78845   0.68867   0.95845   0.00000  Uiso   1.00
H721   H     0.67534   0.75038   0.80562   0.00000  Uiso   1.00
H722   H     0.88419   0.52785   0.81001   0.00000  Uiso   1.00
H723   H     0.88269   0.97233   0.70278   0.00000  Uiso   1.00
H724   H     0.88806   0.60936   0.81021   0.00000  Uiso   1.00
H725   H     0.88653   0.89084   0.70337   0.00000  Uiso   1.00
H726   H     0.75641   0.71939   0.52406   0.00000  Uiso   1.00
H727   H     0.87787   0.81154   0.97179   0.00000  Uiso   1.00
H728   H     0.75856   0.71936   0.61104   0.00000  Uiso   1.00
N729   N     0.83333   0.74999   0.62624   0.00000  Uiso   1.00
N730   N     0.83333   0.75001   0.87377   0.00000  Uiso   1.00
N731   N     0.72651   0.63879   0.65238   0.00000  Uiso   1.00
N732   N     0.72939   0.86088   0.82169   0.00000  Uiso   1.00
N733   N     0.72401   0.50399   0.65052   0.00000  Uiso   1.00
N734   N     0.72634   0.99576   0.82253   0.00000  Uiso   1.00
O735   O     0.83334   0.68453   0.78974   0.00000  Uiso   1.00
O736   O     0.83333   0.81547   0.71026   0.00000  Uiso   1.00
O737   O     0.83334   0.68453   0.71026   0.00000  Uiso   1.00
O738   O     0.83333   0.81547   0.78974   0.00000  Uiso   1.00
O739   O     0.75725   0.75000   0.78045   0.00000  Uiso   1.00
O740   O     0.90942   0.75000   0.71956   0.00000  Uiso   1.00
O741   O     0.75725   0.75000   0.70097   0.00000  Uiso   1.00
O742   O     0.90942   0.75000   0.79904   0.00000  Uiso   1.00
Zn743  Zn    0.83333   0.75001   0.80307   0.00000  Uiso   1.00
Zn744  Zn    0.83333   0.75000   0.69693   0.00000  Uiso   1.00
loop_
_geom_bond_atom_site_label_1
_geom_bond_atom_site_label_2
_geom_bond_distance
_geom_bond_site_symmetry_2
_ccdc_geom_bond_type
C1     O55     1.283   .     A
C1     O53     1.285   .     A
C1     C14     1.436   .     S
C2     C4      1.410   .     A
C2     H38     1.082   .     S
C2     C31     1.407   .     A
C3     C23     1.410   .     A
C3     C32     1.410   .     A
C3     C376    1.513   1_554 S
C4     C27     1.411   .     A
C4     C375    1.513   .     S
C5     O57     1.276   .     A
C5     C7      1.402   .     S
C5     O59     1.278   .     A
C6     O60     1.278   .     A
C6     C8      1.402   .     S
C6     O58     1.276   .     A
C7     C132    1.330   1_455 S
C7     H157    1.088   1_455 S
C8     C69     1.330   .     S
C8     H101    1.088   .     S
C9     C20     1.393   .     A
C9     C11     1.377   .     A
C9     H40     1.084   .     S
C10    H41     1.084   .     S
C10    C21     1.393   .     A
C10    C13     1.377   .     A
C11    C14     1.395   .     A
C11    H42     1.084   .     S
C12    C15     1.437   .     S
C12    O56     1.283   .     A
C12    O54     1.286   .     A
C13    C15     1.396   .     A
C13    H43     1.084   .     S
C14    C16     1.412   .     A
C15    C17     1.413   .     A
C16    C18     1.398   .     A
C16    C22     1.451   .     S
C17    C19     1.398   .     A
C17    C24     1.452   .     S
C18    C25     1.451   .     S
C18    C20     1.404   .     A
C19    C26     1.451   .     S
C19    C21     1.405   .     A
C20    C207    1.439   1_545 S
C21    C206    1.439   .     S
C22    N49     1.157   .     T
C23    C28     1.407   .     A
C23    H44     1.082   .     S
C24    N50     1.157   .     T
C25    N51     1.157   .     T
C26    N52     1.157   .     T
C27    C29     1.407   .     A
C27    H45     1.082   .     S
C28    N47     1.363   .     A
C28    H46     1.081   .     S
C29    N48     1.363   .     A
C29    H34     1.082   .     S
C30    C32     1.407   .     A
C30    H35     1.081   .     S
C30    N47     1.363   .     A
C31    H36     1.082   .     S
C31    N48     1.363   .     A
C32    H37     1.082   .     S
H33    C69     1.088   .     S
H39    C132    1.088   1_455 S
N47    Zn62    2.004   .     S
N48    Zn61    2.004   .     S
O53    Zn61    1.991   .     S
O54    Zn62    1.991   .     S
O55    Zn62    1.998   .     S
O56    Zn61    1.998   .     S
O57    Zn61    1.969   .     S
O58    Zn62    1.969   .     S
O59    Zn62    1.981   .     S
O60    Zn61    1.981   .     S
C63    O117    1.283   .     A
C63    O115    1.285   .     A
C63    C76     1.436   .     S
C64    C66     1.410   .     A
C64    H100    1.082   .     S
C64    C93     1.407   .     A
C65    C85     1.410   .     A
C65    C94     1.410   .     A
C65    C438    1.513   1_554 S
C66    C89     1.411   .     A
C66    C437    1.513   .     S
C67    O119    1.276   .     A
C67    C69     1.402   .     S
C67    O121    1.278   .     A
C68    O122    1.278   .     A
C68    C70     1.402   .     S
C68    O120    1.276   .     A
C70    C131    1.330   .     S
C70    H163    1.088   .     S
C71    C82     1.393   .     A
C71    C73     1.377   .     A
C71    H102    1.084   .     S
C72    H103    1.084   .     S
C72    C83     1.393   .     A
C72    C75     1.377   .     A
C73    C76     1.395   .     A
C73    H104    1.084   .     S
C74    C77     1.437   .     S
C74    O118    1.283   .     A
C74    O116    1.286   .     A
C75    C77     1.396   .     A
C75    H105    1.084   .     S
C76    C78     1.412   .     A
C77    C79     1.413   .     A
C78    C80     1.398   .     A
C78    C84     1.451   .     S
C79    C81     1.398   .     A
C79    C86     1.452   .     S
C80    C87     1.451   .     S
C80    C82     1.404   .     A
C81    C88     1.451   .     S
C81    C83     1.405   .     A
C82    C269    1.439   1_545 S
C83    C268    1.439   .     S
C84    N111    1.157   .     T
C85    C90     1.407   .     A
C85    H106    1.082   .     S
C86    N112    1.157   .     T
C87    N113    1.157   .     T
C88    N114    1.157   .     T
C89    C91     1.407   .     A
C89    H107    1.082   .     S
C90    N109    1.363   .     A
C90    H108    1.081   .     S
C91    N110    1.363   .     A
C91    H96     1.082   .     S
C92    C94     1.407   .     A
C92    H97     1.081   .     S
C92    N109    1.363   .     A
C93    H98     1.082   .     S
C93    N110    1.363   .     A
C94    H99     1.082   .     S
H95    C131    1.088   .     S
N109   Zn124   2.004   .     S
N110   Zn123   2.004   .     S
O115   Zn123   1.991   .     S
O116   Zn124   1.991   .     S
O117   Zn124   1.998   .     S
O118   Zn123   1.998   .     S
O119   Zn123   1.969   .     S
O120   Zn124   1.969   .     S
O121   Zn124   1.981   .     S
O122   Zn123   1.981   .     S
C125   O179    1.283   .     A
C125   O177    1.285   .     A
C125   C138    1.436   .     S
C126   C128    1.410   .     A
C126   H162    1.082   .     S
C126   C155    1.407   .     A
C127   C147    1.410   .     A
C127   C156    1.410   .     A
C127   C500    1.513   1_554 S
C128   C151    1.411   .     A
C128   C499    1.513   .     S
C129   O181    1.276   .     A
C129   C131    1.402   .     S
C129   O183    1.278   .     A
C130   O184    1.278   .     A
C130   C132    1.402   .     S
C130   O182    1.276   .     A
C132   C7      1.330   1_655 S
C132   H39     1.088   1_655 S
C133   C144    1.393   .     A
C133   C135    1.377   .     A
C133   H164    1.084   .     S
C134   H165    1.084   .     S
C134   C145    1.393   .     A
C134   C137    1.377   .     A
C135   C138    1.395   .     A
C135   H166    1.084   .     S
C136   C139    1.437   .     S
C136   O180    1.283   .     A
C136   O178    1.286   .     A
C137   C139    1.396   .     A
C137   H167    1.084   .     S
C138   C140    1.412   .     A
C139   C141    1.413   .     A
C140   C142    1.398   .     A
C140   C146    1.451   .     S
C141   C143    1.398   .     A
C141   C148    1.452   .     S
C142   C149    1.451   .     S
C142   C144    1.404   .     A
C143   C150    1.451   .     S
C143   C145    1.405   .     A
C144   C331    1.439   1_545 S
C145   C330    1.439   .     S
C146   N173    1.157   .     T
C147   C152    1.407   .     A
C147   H168    1.082   .     S
C148   N174    1.157   .     T
C149   N175    1.157   .     T
C150   N176    1.157   .     T
C151   C153    1.407   .     A
C151   H169    1.082   .     S
C152   N171    1.363   .     A
C152   H170    1.081   .     S
C153   N172    1.363   .     A
C153   H158    1.082   .     S
C154   C156    1.407   .     A
C154   H159    1.081   .     S
C154   N171    1.363   .     A
C155   H160    1.082   .     S
C155   N172    1.363   .     A
C156   H161    1.082   .     S
H157   C7      1.088   1_655 S
N171   Zn186   2.004   .     S
N172   Zn185   2.004   .     S
O177   Zn185   1.991   .     S
O178   Zn186   1.991   .     S
O179   Zn186   1.998   .     S
O180   Zn185   1.998   .     S
O181   Zn185   1.969   .     S
O182   Zn186   1.969   .     S
O183   Zn186   1.981   .     S
O184   Zn185   1.981   .     S
C187   O241    1.283   .     A
C187   O239    1.285   .     A
C187   C200    1.436   .     S
C188   C190    1.410   .     A
C188   H224    1.082   .     S
C188   C217    1.407   .     A
C189   C209    1.410   .     A
C189   C218    1.410   .     A
C189   C562    1.513   1_554 S
C190   C213    1.411   .     A
C190   C561    1.513   .     S
C191   O243    1.276   .     A
C191   C193    1.402   .     S
C191   O245    1.278   .     A
C192   O246    1.278   .     A
C192   C194    1.402   .     S
C192   O244    1.276   .     A
C193   C318    1.330   1_455 S
C193   H343    1.088   1_455 S
C194   C255    1.330   .     S
C194   H287    1.088   .     S
C195   C206    1.393   .     A
C195   C197    1.377   .     A
C195   H226    1.084   .     S
C196   H227    1.084   .     S
C196   C207    1.393   .     A
C196   C199    1.377   .     A
C197   C200    1.395   .     A
C197   H228    1.084   .     S
C198   C201    1.437   .     S
C198   O242    1.283   .     A
C198   O240    1.286   .     A
C199   C201    1.396   .     A
C199   H229    1.084   .     S
C200   C202    1.412   .     A
C201   C203    1.413   .     A
C202   C204    1.398   .     A
C202   C208    1.451   .     S
C203   C205    1.398   .     A
C203   C210    1.452   .     S
C204   C211    1.451   .     S
C204   C206    1.404   .     A
C205   C212    1.451   .     S
C205   C207    1.405   .     A
C207   C20     1.439   1_565 S
C208   N235    1.157   .     T
C209   C214    1.407   .     A
C209   H230    1.082   .     S
C210   N236    1.157   .     T
C211   N237    1.157   .     T
C212   N238    1.157   .     T
C213   C215    1.407   .     A
C213   H231    1.082   .     S
C214   N233    1.363   .     A
C214   H232    1.081   .     S
C215   N234    1.363   .     A
C215   H220    1.082   .     S
C216   C218    1.407   .     A
C216   H221    1.081   .     S
C216   N233    1.363   .     A
C217   H222    1.082   .     S
C217   N234    1.363   .     A
C218   H223    1.082   .     S
H219   C255    1.088   .     S
H225   C318    1.088   1_455 S
N233   Zn248   2.004   .     S
N234   Zn247   2.004   .     S
O239   Zn247   1.991   .     S
O240   Zn248   1.991   .     S
O241   Zn248   1.998   .     S
O242   Zn247   1.998   .     S
O243   Zn247   1.969   .     S
O244   Zn248   1.969   .     S
O245   Zn248   1.981   .     S
O246   Zn247   1.981   .     S
C249   O303    1.283   .     A
C249   O301    1.285   .     A
C249   C262    1.436   .     S
C250   C252    1.410   .     A
C250   H286    1.082   .     S
C250   C279    1.407   .     A
C251   C271    1.410   .     A
C251   C280    1.410   .     A
C251   C624    1.513   1_554 S
C252   C275    1.411   .     A
C252   C623    1.513   .     S
C253   O305    1.276   .     A
C253   C255    1.402   .     S
C253   O307    1.278   .     A
C254   O308    1.278   .     A
C254   C256    1.402   .     S
C254   O306    1.276   .     A
C256   C317    1.330   .     S
C256   H349    1.088   .     S
C257   C268    1.393   .     A
C257   C259    1.377   .     A
C257   H288    1.084   .     S
C258   H289    1.084   .     S
C258   C269    1.393   .     A
C258   C261    1.377   .     A
C259   C262    1.395   .     A
C259   H290    1.084   .     S
C260   C263    1.437   .     S
C260   O304    1.283   .     A
C260   O302    1.286   .     A
C261   C263    1.396   .     A
C261   H291    1.084   .     S
C262   C264    1.412   .     A
C263   C265    1.413   .     A
C264   C266    1.398   .     A
C264   C270    1.451   .     S
C265   C267    1.398   .     A
C265   C272    1.452   .     S
C266   C273    1.451   .     S
C266   C268    1.404   .     A
C267   C274    1.451   .     S
C267   C269    1.405   .     A
C269   C82     1.439   1_565 S
C270   N297    1.157   .     T
C271   C276    1.407   .     A
C271   H292    1.082   .     S
C272   N298    1.157   .     T
C273   N299    1.157   .     T
C274   N300    1.157   .     T
C275   C277    1.407   .     A
C275   H293    1.082   .     S
C276   N295    1.363   .     A
C276   H294    1.081   .     S
C277   N296    1.363   .     A
C277   H282    1.082   .     S
C278   C280    1.407   .     A
C278   H283    1.081   .     S
C278   N295    1.363   .     A
C279   H284    1.082   .     S
C279   N296    1.363   .     A
C280   H285    1.082   .     S
H281   C317    1.088   .     S
N295   Zn310   2.004   .     S
N296   Zn309   2.004   .     S
O301   Zn309   1.991   .     S
O302   Zn310   1.991   .     S
O303   Zn310   1.998   .     S
O304   Zn309   1.998   .     S
O305   Zn309   1.969   .     S
O306   Zn310   1.969   .     S
O307   Zn310   1.981   .     S
O308   Zn309   1.981   .     S
C311   O365    1.283   .     A
C311   O363    1.285   .     A
C311   C324    1.436   .     S
C312   C314    1.410   .     A
C312   H348    1.082   .     S
C312   C341    1.407   .     A
C313   C333    1.410   .     A
C313   C342    1.410   .     A
C313   C686    1.513   1_554 S
C314   C337    1.411   .     A
C314   C685    1.513   .     S
C315   O367    1.276   .     A
C315   C317    1.402   .     S
C315   O369    1.278   .     A
C316   O370    1.278   .     A
C316   C318    1.402   .     S
C316   O368    1.276   .     A
C318   C193    1.330   1_655 S
C318   H225    1.088   1_655 S
C319   C330    1.393   .     A
C319   C321    1.377   .     A
C319   H350    1.084   .     S
C320   H351    1.084   .     S
C320   C331    1.393   .     A
C320   C323    1.377   .     A
C321   C324    1.395   .     A
C321   H352    1.084   .     S
C322   C325    1.437   .     S
C322   O366    1.283   .     A
C322   O364    1.286   .     A
C323   C325    1.396   .     A
C323   H353    1.084   .     S
C324   C326    1.412   .     A
C325   C327    1.413   .     A
C326   C328    1.398   .     A
C326   C332    1.451   .     S
C327   C329    1.398   .     A
C327   C334    1.452   .     S
C328   C335    1.451   .     S
C328   C330    1.404   .     A
C329   C336    1.451   .     S
C329   C331    1.405   .     A
C331   C144    1.439   1_565 S
C332   N359    1.157   .     T
C333   C338    1.407   .     A
C333   H354    1.082   .     S
C334   N360    1.157   .     T
C335   N361    1.157   .     T
C336   N362    1.157   .     T
C337   C339    1.407   .     A
C337   H355    1.082   .     S
C338   N357    1.363   .     A
C338   H356    1.081   .     S
C339   N358    1.363   .     A
C339   H344    1.082   .     S
C340   C342    1.407   .     A
C340   H345    1.081   .     S
C340   N357    1.363   .     A
C341   H346    1.082   .     S
C341   N358    1.363   .     A
C342   H347    1.082   .     S
H343   C193    1.088   1_655 S
N357   Zn372   2.004   .     S
N358   Zn371   2.004   .     S
O363   Zn371   1.991   .     S
O364   Zn372   1.991   .     S
O365   Zn372   1.998   .     S
O366   Zn371   1.998   .     S
O367   Zn371   1.969   .     S
O368   Zn372   1.969   .     S
O369   Zn372   1.981   .     S
O370   Zn371   1.981   .     S
C373   O427    1.283   .     A
C373   O425    1.285   .     A
C373   C386    1.436   .     S
C374   C376    1.410   .     A
C374   H410    1.082   .     S
C374   C403    1.407   .     A
C375   C395    1.410   .     A
C375   C404    1.410   .     A
C376   C399    1.411   .     A
C376   C3      1.513   1_556 S
C377   O429    1.276   .     A
C377   C379    1.402   .     S
C377   O431    1.278   .     A
C378   O432    1.278   .     A
C378   C380    1.402   .     S
C378   O430    1.276   .     A
C379   C504    1.330   1_455 S
C379   H529    1.088   1_455 S
C380   C441    1.330   .     S
C380   H473    1.088   .     S
C381   C392    1.393   .     A
C381   C383    1.377   .     A
C381   H412    1.084   .     S
C382   H413    1.084   .     S
C382   C393    1.393   .     A
C382   C385    1.377   .     A
C383   C386    1.395   .     A
C383   H414    1.084   .     S
C384   C387    1.437   .     S
C384   O428    1.283   .     A
C384   O426    1.286   .     A
C385   C387    1.396   .     A
C385   H415    1.084   .     S
C386   C388    1.412   .     A
C387   C389    1.413   .     A
C388   C390    1.398   .     A
C388   C394    1.451   .     S
C389   C391    1.398   .     A
C389   C396    1.452   .     S
C390   C397    1.451   .     S
C390   C392    1.404   .     A
C391   C398    1.451   .     S
C391   C393    1.405   .     A
C392   C579    1.439   1_545 S
C393   C578    1.439   .     S
C394   N421    1.157   .     T
C395   C400    1.407   .     A
C395   H416    1.082   .     S
C396   N422    1.157   .     T
C397   N423    1.157   .     T
C398   N424    1.157   .     T
C399   C401    1.407   .     A
C399   H417    1.082   .     S
C400   N419    1.363   .     A
C400   H418    1.081   .     S
C401   N420    1.363   .     A
C401   H406    1.082   .     S
C402   C404    1.407   .     A
C402   H407    1.081   .     S
C402   N419    1.363   .     A
C403   H408    1.082   .     S
C403   N420    1.363   .     A
C404   H409    1.082   .     S
H405   C441    1.088   .     S
H411   C504    1.088   1_455 S
N419   Zn434   2.004   .     S
N420   Zn433   2.004   .     S
O425   Zn433   1.991   .     S
O426   Zn434   1.991   .     S
O427   Zn434   1.998   .     S
O428   Zn433   1.998   .     S
O429   Zn433   1.969   .     S
O430   Zn434   1.969   .     S
O431   Zn434   1.981   .     S
O432   Zn433   1.981   .     S
C435   O489    1.283   .     A
C435   O487    1.285   .     A
C435   C448    1.436   .     S
C436   C438    1.410   .     A
C436   H472    1.082   .     S
C436   C465    1.407   .     A
C437   C457    1.410   .     A
C437   C466    1.410   .     A
C438   C461    1.411   .     A
C438   C65     1.513   1_556 S
C439   O491    1.276   .     A
C439   C441    1.402   .     S
C439   O493    1.278   .     A
C440   O494    1.278   .     A
C440   C442    1.402   .     S
C440   O492    1.276   .     A
C442   C503    1.330   .     S
C442   H535    1.088   .     S
C443   C454    1.393   .     A
C443   C445    1.377   .     A
C443   H474    1.084   .     S
C444   H475    1.084   .     S
C444   C455    1.393   .     A
C444   C447    1.377   .     A
C445   C448    1.395   .     A
C445   H476    1.084   .     S
C446   C449    1.437   .     S
C446   O490    1.283   .     A
C446   O488    1.286   .     A
C447   C449    1.396   .     A
C447   H477    1.084   .     S
C448   C450    1.412   .     A
C449   C451    1.413   .     A
C450   C452    1.398   .     A
C450   C456    1.451   .     S
C451   C453    1.398   .     A
C451   C458    1.452   .     S
C452   C459    1.451   .     S
C452   C454    1.404   .     A
C453   C460    1.451   .     S
C453   C455    1.405   .     A
C454   C641    1.439   1_545 S
C455   C640    1.439   .     S
C456   N483    1.157   .     T
C457   C462    1.407   .     A
C457   H478    1.082   .     S
C458   N484    1.157   .     T
C459   N485    1.157   .     T
C460   N486    1.157   .     T
C461   C463    1.407   .     A
C461   H479    1.082   .     S
C462   N481    1.363   .     A
C462   H480    1.081   .     S
C463   N482    1.363   .     A
C463   H468    1.082   .     S
C464   C466    1.407   .     A
C464   H469    1.081   .     S
C464   N481    1.363   .     A
C465   H470    1.082   .     S
C465   N482    1.363   .     A
C466   H471    1.082   .     S
H467   C503    1.088   .     S
N481   Zn496   2.004   .     S
N482   Zn495   2.004   .     S
O487   Zn495   1.991   .     S
O488   Zn496   1.991   .     S
O489   Zn496   1.998   .     S
O490   Zn495   1.998   .     S
O491   Zn495   1.969   .     S
O492   Zn496   1.969   .     S
O493   Zn496   1.981   .     S
O494   Zn495   1.981   .     S
C497   O551    1.283   .     A
C497   O549    1.285   .     A
C497   C510    1.436   .     S
C498   C500    1.410   .     A
C498   H534    1.082   .     S
C498   C527    1.407   .     A
C499   C519    1.410   .     A
C499   C528    1.410   .     A
C500   C523    1.411   .     A
C500   C127    1.513   1_556 S
C501   O553    1.276   .     A
C501   C503    1.402   .     S
C501   O555    1.278   .     A
C502   O556    1.278   .     A
C502   C504    1.402   .     S
C502   O554    1.276   .     A
C504   C379    1.330   1_655 S
C504   H411    1.088   1_655 S
C505   C516    1.393   .     A
C505   C507    1.377   .     A
C505   H536    1.084   .     S
C506   H537    1.084   .     S
C506   C517    1.393   .     A
C506   C509    1.377   .     A
C507   C510    1.395   .     A
C507   H538    1.084   .     S
C508   C511    1.437   .     S
C508   O552    1.283   .     A
C508   O550    1.286   .     A
C509   C511    1.396   .     A
C509   H539    1.084   .     S
C510   C512    1.412   .     A
C511   C513    1.413   .     A
C512   C514    1.398   .     A
C512   C518    1.451   .     S
C513   C515    1.398   .     A
C513   C520    1.452   .     S
C514   C521    1.451   .     S
C514   C516    1.404   .     A
C515   C522    1.451   .     S
C515   C517    1.405   .     A
C516   C703    1.439   1_545 S
C517   C702    1.439   .     S
C518   N545    1.157   .     T
C519   C524    1.407   .     A
C519   H540    1.082   .     S
C520   N546    1.157   .     T
C521   N547    1.157   .     T
C522   N548    1.157   .     T
C523   C525    1.407   .     A
C523   H541    1.082   .     S
C524   N543    1.363   .     A
C524   H542    1.081   .     S
C525   N544    1.363   .     A
C525   H530    1.082   .     S
C526   C528    1.407   .     A
C526   H531    1.081   .     S
C526   N543    1.363   .     A
C527   H532    1.082   .     S
C527   N544    1.363   .     A
C528   H533    1.082   .     S
H529   C379    1.088   1_655 S
N543   Zn558   2.004   .     S
N544   Zn557   2.004   .     S
O549   Zn557   1.991   .     S
O550   Zn558   1.991   .     S
O551   Zn558   1.998   .     S
O552   Zn557   1.998   .     S
O553   Zn557   1.969   .     S
O554   Zn558   1.969   .     S
O555   Zn558   1.981   .     S
O556   Zn557   1.981   .     S
C559   O613    1.283   .     A
C559   O611    1.285   .     A
C559   C572    1.436   .     S
C560   C562    1.410   .     A
C560   H596    1.082   .     S
C560   C589    1.407   .     A
C561   C581    1.410   .     A
C561   C590    1.410   .     A
C562   C585    1.411   .     A
C562   C189    1.513   1_556 S
C563   O615    1.276   .     A
C563   C565    1.402   .     S
C563   O617    1.278   .     A
C564   O618    1.278   .     A
C564   C566    1.402   .     S
C564   O616    1.276   .     A
C565   C690    1.330   1_455 S
C565   H715    1.088   1_455 S
C566   C627    1.330   .     S
C566   H659    1.088   .     S
C567   C578    1.393   .     A
C567   C569    1.377   .     A
C567   H598    1.084   .     S
C568   H599    1.084   .     S
C568   C579    1.393   .     A
C568   C571    1.377   .     A
C569   C572    1.395   .     A
C569   H600    1.084   .     S
C570   C573    1.437   .     S
C570   O614    1.283   .     A
C570   O612    1.286   .     A
C571   C573    1.396   .     A
C571   H601    1.084   .     S
C572   C574    1.412   .     A
C573   C575    1.413   .     A
C574   C576    1.398   .     A
C574   C580    1.451   .     S
C575   C577    1.398   .     A
C575   C582    1.452   .     S
C576   C583    1.451   .     S
C576   C578    1.404   .     A
C577   C584    1.451   .     S
C577   C579    1.405   .     A
C579   C392    1.439   1_565 S
C580   N607    1.157   .     T
C581   C586    1.407   .     A
C581   H602    1.082   .     S
C582   N608    1.157   .     T
C583   N609    1.157   .     T
C584   N610    1.157   .     T
C585   C587    1.407   .     A
C585   H603    1.082   .     S
C586   N605    1.363   .     A
C586   H604    1.081   .     S
C587   N606    1.363   .     A
C587   H592    1.082   .     S
C588   C590    1.407   .     A
C588   H593    1.081   .     S
C588   N605    1.363   .     A
C589   H594    1.082   .     S
C589   N606    1.363   .     A
C590   H595    1.082   .     S
H591   C627    1.088   .     S
H597   C690    1.088   1_455 S
N605   Zn620   2.004   .     S
N606   Zn619   2.004   .     S
O611   Zn619   1.991   .     S
O612   Zn620   1.991   .     S
O613   Zn620   1.998   .     S
O614   Zn619   1.998   .     S
O615   Zn619   1.969   .     S
O616   Zn620   1.969   .     S
O617   Zn620   1.981   .     S
O618   Zn619   1.981   .     S
C621   O675    1.283   .     A
C621   O673    1.285   .     A
C621   C634    1.436   .     S
C622   C624    1.410   .     A
C622   H658    1.082   .     S
C622   C651    1.407   .     A
C623   C643    1.410   .     A
C623   C652    1.410   .     A
C624   C647    1.411   .     A
C624   C251    1.513   1_556 S
C625   O677    1.276   .     A
C625   C627    1.402   .     S
C625   O679    1.278   .     A
C626   O680    1.278   .     A
C626   C628    1.402   .     S
C626   O678    1.276   .     A
C628   C689    1.330   .     S
C628   H721    1.088   .     S
C629   C640    1.393   .     A
C629   C631    1.377   .     A
C629   H660    1.084   .     S
C630   H661    1.084   .     S
C630   C641    1.393   .     A
C630   C633    1.377   .     A
C631   C634    1.395   .     A
C631   H662    1.084   .     S
C632   C635    1.437   .     S
C632   O676    1.283   .     A
C632   O674    1.286   .     A
C633   C635    1.396   .     A
C633   H663    1.084   .     S
C634   C636    1.412   .     A
C635   C637    1.413   .     A
C636   C638    1.398   .     A
C636   C642    1.451   .     S
C637   C639    1.398   .     A
C637   C644    1.452   .     S
C638   C645    1.451   .     S
C638   C640    1.404   .     A
C639   C646    1.451   .     S
C639   C641    1.405   .     A
C641   C454    1.439   1_565 S
C642   N669    1.157   .     T
C643   C648    1.407   .     A
C643   H664    1.082   .     S
C644   N670    1.157   .     T
C645   N671    1.157   .     T
C646   N672    1.157   .     T
C647   C649    1.407   .     A
C647   H665    1.082   .     S
C648   N667    1.363   .     A
C648   H666    1.081   .     S
C649   N668    1.363   .     A
C649   H654    1.082   .     S
C650   C652    1.407   .     A
C650   H655    1.081   .     S
C650   N667    1.363   .     A
C651   H656    1.082   .     S
C651   N668    1.363   .     A
C652   H657    1.082   .     S
H653   C689    1.088   .     S
N667   Zn682   2.004   .     S
N668   Zn681   2.004   .     S
O673   Zn681   1.991   .     S
O674   Zn682   1.991   .     S
O675   Zn682   1.998   .     S
O676   Zn681   1.998   .     S
O677   Zn681   1.969   .     S
O678   Zn682   1.969   .     S
O679   Zn682   1.981   .     S
O680   Zn681   1.981   .     S
C683   O737    1.283   .     A
C683   O735    1.285   .     A
C683   C696    1.436   .     S
C684   C686    1.410   .     A
C684   H720    1.082   .     S
C684   C713    1.407   .     A
C685   C705    1.410   .     A
C685   C714    1.410   .     A
C686   C709    1.411   .     A
C686   C313    1.513   1_556 S
C687   O739    1.276   .     A
C687   C689    1.402   .     S
C687   O741    1.278   .     A
C688   O742    1.278   .     A
C688   C690    1.402   .     S
C688   O740    1.276   .     A
C690   C565    1.330   1_655 S
C690   H597    1.088   1_655 S
C691   C702    1.393   .     A
C691   C693    1.377   .     A
C691   H722    1.084   .     S
C692   H723    1.084   .     S
C692   C703    1.393   .     A
C692   C695    1.377   .     A
C693   C696    1.395   .     A
C693   H724    1.084   .     S
C694   C697    1.437   .     S
C694   O738    1.283   .     A
C694   O736    1.286   .     A
C695   C697    1.396   .     A
C695   H725    1.084   .     S
C696   C698    1.412   .     A
C697   C699    1.413   .     A
C698   C700    1.398   .     A
C698   C704    1.451   .     S
C699   C701    1.398   .     A
C699   C706    1.452   .     S
C700   C707    1.451   .     S
C700   C702    1.404   .     A
C701   C708    1.451   .     S
C701   C703    1.405   .     A
C703   C516    1.439   1_565 S
C704   N731    1.157   .     T
C705   C710    1.407   .     A
C705   H726    1.082   .     S
C706   N732    1.157   .     T
C707   N733    1.157   .     T
C708   N734    1.157   .     T
C709   C711    1.407   .     A
C709   H727    1.082   .     S
C710   N729    1.363   .     A
C710   H728    1.081   .     S
C711   N730    1.363   .     A
C711   H716    1.082   .     S
C712   C714    1.407   .     A
C712   H717    1.081   .     S
C712   N729    1.363   .     A
C713   H718    1.082   .     S
C713   N730    1.363   .     A
C714   H719    1.082   .     S
H715   C565    1.088   1_655 S
N729   Zn744   2.004   .     S
N730   Zn743   2.004   .     S
O735   Zn743   1.991   .     S
O736   Zn744   1.991   .     S
O737   Zn744   1.998   .     S
O738   Zn743   1.998   .     S
O739   Zn743   1.969   .     S
O740   Zn744   1.969   .     S
O741   Zn744   1.981   .     S
O742   Zn743   1.981   .     S
