data_str_m2_o2_o5_pcu_sym.36
_audit_creation_date              2020-01-03
_audit_creation_method            'Materials Studio'
_symmetry_space_group_name_H-M    'P1'
_symmetry_Int_Tables_number       1
_symmetry_cell_setting            triclinic
loop_
_symmetry_equiv_pos_as_xyz
  x,y,z
_cell_length_a                    30.3510
_cell_length_b                    27.8712
_cell_length_c                    27.3159
_cell_angle_alpha                 90.6115
_cell_angle_beta                  91.7700
_cell_angle_gamma                 91.2130
loop_
_atom_site_label
_atom_site_type_symbol
_atom_site_fract_x
_atom_site_fract_y
_atom_site_fract_z
_atom_site_U_iso_or_equiv
_atom_site_adp_type
_atom_site_occupancy
C1     C     0.16570   0.24959   0.17393   0.00000  Uiso   1.00
C2     C     0.27388   0.44712   0.20136   0.00000  Uiso   1.00
C3     C     0.24950   0.24984   0.07353   0.00000  Uiso   1.00
C4     C     0.24967   0.25013   0.25978   0.00000  Uiso   1.00
C5     C     0.24896   0.02707   0.16689   0.00000  Uiso   1.00
C6     C     0.24902   0.47247   0.16653   0.00000  Uiso   1.00
C7     C     0.24943   0.24977   0.02180   0.00000  Uiso   1.00
C8     C     0.24948   0.25016   0.31149   0.00000  Uiso   1.00
C9     C     0.04902   0.28975   0.17638   0.00000  Uiso   1.00
C10    C     0.45392   0.21889   0.13925   0.00000  Uiso   1.00
C11    C     0.45445   0.27476   0.20905   0.00000  Uiso   1.00
C12    C     0.33532   0.25028   0.16681   0.00000  Uiso   1.00
C13    C     0.04813   0.20343   0.19195   0.00000  Uiso   1.00
C14    C     0.09433   0.29179   0.18622   0.00000  Uiso   1.00
C15    C     0.40745   0.21990   0.13613   0.00000  Uiso   1.00
C16    C     0.40850   0.27781   0.20507   0.00000  Uiso   1.00
C17    C     0.09468   0.20472   0.19573   0.00000  Uiso   1.00
C18    C     0.11811   0.24860   0.18623   0.00000  Uiso   1.00
C19    C     0.38438   0.25012   0.16877   0.00000  Uiso   1.00
C20    C     0.02566   0.24587   0.17977   0.00000  Uiso   1.00
C21    C     0.47709   0.24648   0.17552   0.00000  Uiso   1.00
C22    C     0.33372   0.12304   0.24476   0.00000  Uiso   1.00
C23    C     0.26787   0.10512   0.20569   0.00000  Uiso   1.00
C24    C     0.35656   0.16084   0.27762   0.00000  Uiso   1.00
C25    C     0.19598   0.38275   0.05132   0.00000  Uiso   1.00
C26    C     0.14924   0.39866   0.03895   0.00000  Uiso   1.00
C27    C     0.17475   0.12333   0.07622   0.00000  Uiso   1.00
C28    C     0.16372   0.13554   0.02329   0.00000  Uiso   1.00
C29    C     0.27557   0.38882   0.28809   0.00000  Uiso   1.00
C30    C     0.31387   0.40922   0.31972   0.00000  Uiso   1.00
C31    C     0.02456   0.34082   0.11743   0.00000  Uiso   1.00
C32    C     0.01265   0.39291   0.10943   0.00000  Uiso   1.00
C33    C     0.49779   0.21079   0.07295   0.00000  Uiso   1.00
C34    C     0.22571   0.39366   0.13125   0.00000  Uiso   1.00
C35    C     0.02356   0.17490   0.04358   0.00000  Uiso   1.00
C36    C     0.49127   0.27747   0.28375   0.00000  Uiso   1.00
C37    C     0.01411   0.31137   0.32094   0.00000  Uiso   1.00
C38    C     0.00082   0.15572   0.23630   0.00000  Uiso   1.00
C39    C     0.48373   0.10433   0.24108   0.00000  Uiso   1.00
C40    C     0.23292   0.10348   0.12693   0.00000  Uiso   1.00
C41    C     0.27096   0.39667   0.20363   0.00000  Uiso   1.00
C42    C     0.26506   0.05454   0.20746   0.00000  Uiso   1.00
C43    C     0.22344   0.44463   0.13238   0.00000  Uiso   1.00
C44    C     0.23404   0.05288   0.12602   0.00000  Uiso   1.00
Cu45   Cu    0.25000   0.29821   0.16667   0.00000  Uiso   1.00
Cu46   Cu    0.25000   0.20178   0.16667   0.00000  Uiso   1.00
H47    H     0.27610   0.03771   0.24090   0.00000  Uiso   1.00
H48    H     0.20293   0.35225   0.02651   0.00000  Uiso   1.00
H49    H     0.22038   0.41173   0.04308   0.00000  Uiso   1.00
H50    H     0.13993   0.42851   0.06348   0.00000  Uiso   1.00
H51    H     0.14709   0.41097   0.00044   0.00000  Uiso   1.00
H52    H     0.12558   0.36815   0.04325   0.00000  Uiso   1.00
H53    H     0.15875   0.15024   0.09949   0.00000  Uiso   1.00
H54    H     0.16064   0.08691   0.08336   0.00000  Uiso   1.00
H55    H     0.17869   0.10912   0.33172   0.00000  Uiso   1.00
H56    H     0.12740   0.13463   0.01702   0.00000  Uiso   1.00
H57    H     0.17656   0.17210   0.01511   0.00000  Uiso   1.00
H58    H     0.20082   0.46201   0.10747   0.00000  Uiso   1.00
H59    H     0.26196   0.35716   0.30710   0.00000  Uiso   1.00
H60    H     0.24865   0.41546   0.28594   0.00000  Uiso   1.00
H61    H     0.32999   0.43991   0.30131   0.00000  Uiso   1.00
H62    H     0.30164   0.42176   0.02211   0.00000  Uiso   1.00
H63    H     0.33856   0.38110   0.32665   0.00000  Uiso   1.00
H64    H     0.49829   0.31770   0.09964   0.00000  Uiso   1.00
H65    H     0.05659   0.33460   0.09963   0.00000  Uiso   1.00
H66    H     0.03829   0.41701   0.12695   0.00000  Uiso   1.00
H67    H     0.01053   0.40042   0.06961   0.00000  Uiso   1.00
H68    H     0.48030   0.40021   0.12561   0.00000  Uiso   1.00
H69    H     0.22398   0.03453   0.09233   0.00000  Uiso   1.00
H70    H     0.02191   0.23818   0.08730   0.00000  Uiso   1.00
H71    H     0.47346   0.22844   0.04823   0.00000  Uiso   1.00
H72    H     0.00071   0.14831   0.02515   0.00000  Uiso   1.00
H73    H     0.04271   0.19410   0.01558   0.00000  Uiso   1.00
H74    H     0.04696   0.15581   0.06821   0.00000  Uiso   1.00
H75    H     0.01549   0.25010   0.27405   0.00000  Uiso   1.00
H76    H     0.46254   0.25957   0.30089   0.00000  Uiso   1.00
H77    H     0.49012   0.33676   0.00253   0.00000  Uiso   1.00
H78    H     0.02896   0.29063   0.01803   0.00000  Uiso   1.00
H79    H     0.04093   0.33198   0.30347   0.00000  Uiso   1.00
H80    H     0.29509   0.46569   0.22798   0.00000  Uiso   1.00
H81    H     0.47156   0.17870   0.23477   0.00000  Uiso   1.00
H82    H     0.02097   0.16542   0.26965   0.00000  Uiso   1.00
H83    H     0.01158   0.07916   0.24270   0.00000  Uiso   1.00
H84    H     0.46483   0.10084   0.27508   0.00000  Uiso   1.00
H85    H     0.46166   0.09461   0.20915   0.00000  Uiso   1.00
H86    H     0.17545   0.37344   0.24781   0.00000  Uiso   1.00
H87    H     0.41747   0.12923   0.05712   0.00000  Uiso   1.00
H88    H     0.39944   0.38019   0.20032   0.00000  Uiso   1.00
H89    H     0.10582   0.09222   0.26422   0.00000  Uiso   1.00
H90    H     0.34747   0.12631   0.20754   0.00000  Uiso   1.00
H91    H     0.34137   0.08705   0.25962   0.00000  Uiso   1.00
H92    H     0.34384   0.15819   0.31515   0.00000  Uiso   1.00
H93    H     0.39269   0.15528   0.27887   0.00000  Uiso   1.00
H94    H     0.35009   0.19723   0.26337   0.00000  Uiso   1.00
N95    N     0.25000   0.12934   0.16667   0.00000  Uiso   1.00
N96    N     0.25000   0.37065   0.16667   0.00000  Uiso   1.00
O97    O     0.18573   0.29071   0.16667   0.00000  Uiso   1.00
O98    O     0.19862   0.36565   0.09990   0.00000  Uiso   1.00
O99    O     0.22090   0.12644   0.08421   0.00000  Uiso   1.00
O100   O     0.29091   0.37298   0.24224   0.00000  Uiso   1.00
O101   O     0.02679   0.33196   0.16818   0.00000  Uiso   1.00
O102   O     0.47625   0.18647   0.11085   0.00000  Uiso   1.00
O103   O     0.47785   0.30413   0.24242   0.00000  Uiso   1.00
O104   O     0.02576   0.15940   0.19347   0.00000  Uiso   1.00
O105   O     0.13033   0.37651   0.16196   0.00000  Uiso   1.00
O106   O     0.08435   0.37602   0.23350   0.00000  Uiso   1.00
O107   O     0.16207   0.34090   0.24347   0.00000  Uiso   1.00
O108   O     0.31427   0.20928   0.16666   0.00000  Uiso   1.00
O109   O     0.35433   0.14398   0.11228   0.00000  Uiso   1.00
O110   O     0.34586   0.21634   0.06350   0.00000  Uiso   1.00
O111   O     0.41209   0.16275   0.04725   0.00000  Uiso   1.00
O112   O     0.34121   0.29633   0.26344   0.00000  Uiso   1.00
O113   O     0.41076   0.33526   0.28760   0.00000  Uiso   1.00
O114   O     0.37050   0.36729   0.21048   0.00000  Uiso   1.00
O115   O     0.13291   0.12025   0.17800   0.00000  Uiso   1.00
O116   O     0.16343   0.16798   0.24744   0.00000  Uiso   1.00
O117   O     0.09006   0.12239   0.25784   0.00000  Uiso   1.00
O118   O     0.31427   0.29071   0.16666   0.00000  Uiso   1.00
O119   O     0.18573   0.20928   0.16667   0.00000  Uiso   1.00
O120   O     0.25000   0.29071   0.09613   0.00000  Uiso   1.00
O121   O     0.25000   0.20929   0.23720   0.00000  Uiso   1.00
O122   O     0.25000   0.29071   0.23720   0.00000  Uiso   1.00
O123   O     0.25000   0.20929   0.09613   0.00000  Uiso   1.00
O124   O     0.28778   0.13034   0.24438   0.00000  Uiso   1.00
S125   S     0.11773   0.34822   0.20598   0.00000  Uiso   1.00
S126   S     0.37867   0.18515   0.08941   0.00000  Uiso   1.00
S127   S     0.38240   0.31898   0.24430   0.00000  Uiso   1.00
S128   S     0.12190   0.15318   0.21945   0.00000  Uiso   1.00
C129   C     0.66570   0.24959   0.17393   0.00000  Uiso   1.00
C130   C     0.77388   0.44712   0.20136   0.00000  Uiso   1.00
C131   C     0.74950   0.24984   0.07353   0.00000  Uiso   1.00
C132   C     0.74967   0.25013   0.25978   0.00000  Uiso   1.00
C133   C     0.74896   0.02707   0.16689   0.00000  Uiso   1.00
C134   C     0.74902   0.47247   0.16653   0.00000  Uiso   1.00
C135   C     0.74943   0.24977   0.02180   0.00000  Uiso   1.00
C136   C     0.74948   0.25016   0.31149   0.00000  Uiso   1.00
C137   C     0.54902   0.28975   0.17638   0.00000  Uiso   1.00
C138   C     0.95392   0.21889   0.13925   0.00000  Uiso   1.00
C139   C     0.95445   0.27476   0.20905   0.00000  Uiso   1.00
C140   C     0.83532   0.25028   0.16681   0.00000  Uiso   1.00
C141   C     0.54813   0.20343   0.19195   0.00000  Uiso   1.00
C142   C     0.59433   0.29179   0.18622   0.00000  Uiso   1.00
C143   C     0.90745   0.21990   0.13613   0.00000  Uiso   1.00
C144   C     0.90850   0.27781   0.20507   0.00000  Uiso   1.00
C145   C     0.59468   0.20472   0.19573   0.00000  Uiso   1.00
C146   C     0.61811   0.24860   0.18623   0.00000  Uiso   1.00
C147   C     0.88438   0.25012   0.16877   0.00000  Uiso   1.00
C148   C     0.52566   0.24587   0.17977   0.00000  Uiso   1.00
C149   C     0.97709   0.24648   0.17552   0.00000  Uiso   1.00
C150   C     0.83372   0.12304   0.24476   0.00000  Uiso   1.00
C151   C     0.76787   0.10512   0.20569   0.00000  Uiso   1.00
C152   C     0.85656   0.16084   0.27762   0.00000  Uiso   1.00
C153   C     0.69598   0.38275   0.05132   0.00000  Uiso   1.00
C154   C     0.64924   0.39866   0.03895   0.00000  Uiso   1.00
C155   C     0.67475   0.12333   0.07622   0.00000  Uiso   1.00
C156   C     0.66372   0.13554   0.02329   0.00000  Uiso   1.00
C157   C     0.77557   0.38882   0.28809   0.00000  Uiso   1.00
C158   C     0.81387   0.40922   0.31972   0.00000  Uiso   1.00
C159   C     0.52456   0.34082   0.11743   0.00000  Uiso   1.00
C160   C     0.51265   0.39291   0.10943   0.00000  Uiso   1.00
C161   C     0.99779   0.21079   0.07295   0.00000  Uiso   1.00
C162   C     0.72571   0.39366   0.13125   0.00000  Uiso   1.00
C163   C     0.52356   0.17490   0.04358   0.00000  Uiso   1.00
C164   C     0.99127   0.27747   0.28375   0.00000  Uiso   1.00
C165   C     0.51411   0.31137   0.32094   0.00000  Uiso   1.00
C166   C     0.50082   0.15572   0.23630   0.00000  Uiso   1.00
C167   C     0.98373   0.10433   0.24108   0.00000  Uiso   1.00
C168   C     0.73292   0.10348   0.12693   0.00000  Uiso   1.00
C169   C     0.77096   0.39667   0.20363   0.00000  Uiso   1.00
C170   C     0.76506   0.05454   0.20746   0.00000  Uiso   1.00
C171   C     0.72344   0.44463   0.13238   0.00000  Uiso   1.00
C172   C     0.73404   0.05288   0.12602   0.00000  Uiso   1.00
Cu173  Cu    0.75000   0.29821   0.16667   0.00000  Uiso   1.00
Cu174  Cu    0.75000   0.20178   0.16667   0.00000  Uiso   1.00
H175   H     0.77610   0.03771   0.24090   0.00000  Uiso   1.00
H176   H     0.70293   0.35225   0.02651   0.00000  Uiso   1.00
H177   H     0.72038   0.41173   0.04308   0.00000  Uiso   1.00
H178   H     0.63993   0.42851   0.06348   0.00000  Uiso   1.00
H179   H     0.64709   0.41097   0.00044   0.00000  Uiso   1.00
H180   H     0.62558   0.36815   0.04325   0.00000  Uiso   1.00
H181   H     0.65875   0.15024   0.09949   0.00000  Uiso   1.00
H182   H     0.66064   0.08691   0.08336   0.00000  Uiso   1.00
H183   H     0.67869   0.10912   0.33172   0.00000  Uiso   1.00
H184   H     0.62740   0.13463   0.01702   0.00000  Uiso   1.00
H185   H     0.67656   0.17210   0.01511   0.00000  Uiso   1.00
H186   H     0.70082   0.46201   0.10747   0.00000  Uiso   1.00
H187   H     0.76196   0.35716   0.30710   0.00000  Uiso   1.00
H188   H     0.74865   0.41546   0.28594   0.00000  Uiso   1.00
H189   H     0.82999   0.43991   0.30131   0.00000  Uiso   1.00
H190   H     0.80164   0.42176   0.02211   0.00000  Uiso   1.00
H191   H     0.83856   0.38110   0.32665   0.00000  Uiso   1.00
H192   H     0.99829   0.31770   0.09964   0.00000  Uiso   1.00
H193   H     0.55659   0.33460   0.09963   0.00000  Uiso   1.00
H194   H     0.53829   0.41701   0.12695   0.00000  Uiso   1.00
H195   H     0.51053   0.40042   0.06961   0.00000  Uiso   1.00
H196   H     0.98030   0.40021   0.12561   0.00000  Uiso   1.00
H197   H     0.72398   0.03453   0.09233   0.00000  Uiso   1.00
H198   H     0.52191   0.23818   0.08730   0.00000  Uiso   1.00
H199   H     0.97346   0.22844   0.04823   0.00000  Uiso   1.00
H200   H     0.50071   0.14831   0.02515   0.00000  Uiso   1.00
H201   H     0.54271   0.19410   0.01558   0.00000  Uiso   1.00
H202   H     0.54696   0.15581   0.06821   0.00000  Uiso   1.00
H203   H     0.51549   0.25010   0.27405   0.00000  Uiso   1.00
H204   H     0.96254   0.25957   0.30089   0.00000  Uiso   1.00
H205   H     0.99012   0.33676   0.00253   0.00000  Uiso   1.00
H206   H     0.52896   0.29063   0.01803   0.00000  Uiso   1.00
H207   H     0.54093   0.33198   0.30347   0.00000  Uiso   1.00
H208   H     0.79509   0.46569   0.22798   0.00000  Uiso   1.00
H209   H     0.97156   0.17870   0.23477   0.00000  Uiso   1.00
H210   H     0.52097   0.16542   0.26965   0.00000  Uiso   1.00
H211   H     0.51158   0.07916   0.24270   0.00000  Uiso   1.00
H212   H     0.96483   0.10084   0.27508   0.00000  Uiso   1.00
H213   H     0.96166   0.09461   0.20915   0.00000  Uiso   1.00
H214   H     0.67545   0.37344   0.24781   0.00000  Uiso   1.00
H215   H     0.91747   0.12923   0.05712   0.00000  Uiso   1.00
H216   H     0.89944   0.38019   0.20032   0.00000  Uiso   1.00
H217   H     0.60582   0.09222   0.26422   0.00000  Uiso   1.00
H218   H     0.84747   0.12631   0.20754   0.00000  Uiso   1.00
H219   H     0.84137   0.08705   0.25962   0.00000  Uiso   1.00
H220   H     0.84384   0.15819   0.31515   0.00000  Uiso   1.00
H221   H     0.89269   0.15528   0.27887   0.00000  Uiso   1.00
H222   H     0.85009   0.19723   0.26337   0.00000  Uiso   1.00
N223   N     0.75000   0.12934   0.16667   0.00000  Uiso   1.00
N224   N     0.75000   0.37065   0.16667   0.00000  Uiso   1.00
O225   O     0.68573   0.29071   0.16667   0.00000  Uiso   1.00
O226   O     0.69862   0.36565   0.09990   0.00000  Uiso   1.00
O227   O     0.72090   0.12644   0.08421   0.00000  Uiso   1.00
O228   O     0.79091   0.37298   0.24224   0.00000  Uiso   1.00
O229   O     0.52679   0.33196   0.16818   0.00000  Uiso   1.00
O230   O     0.97625   0.18647   0.11085   0.00000  Uiso   1.00
O231   O     0.97785   0.30413   0.24242   0.00000  Uiso   1.00
O232   O     0.52576   0.15940   0.19347   0.00000  Uiso   1.00
O233   O     0.63033   0.37651   0.16196   0.00000  Uiso   1.00
O234   O     0.58435   0.37602   0.23350   0.00000  Uiso   1.00
O235   O     0.66207   0.34090   0.24347   0.00000  Uiso   1.00
O236   O     0.81427   0.20928   0.16666   0.00000  Uiso   1.00
O237   O     0.85433   0.14398   0.11228   0.00000  Uiso   1.00
O238   O     0.84586   0.21634   0.06350   0.00000  Uiso   1.00
O239   O     0.91209   0.16275   0.04725   0.00000  Uiso   1.00
O240   O     0.84121   0.29633   0.26344   0.00000  Uiso   1.00
O241   O     0.91076   0.33526   0.28760   0.00000  Uiso   1.00
O242   O     0.87050   0.36729   0.21048   0.00000  Uiso   1.00
O243   O     0.63291   0.12025   0.17800   0.00000  Uiso   1.00
O244   O     0.66343   0.16798   0.24744   0.00000  Uiso   1.00
O245   O     0.59006   0.12239   0.25784   0.00000  Uiso   1.00
O246   O     0.81427   0.29071   0.16666   0.00000  Uiso   1.00
O247   O     0.68573   0.20928   0.16667   0.00000  Uiso   1.00
O248   O     0.75000   0.29071   0.09613   0.00000  Uiso   1.00
O249   O     0.75000   0.20929   0.23720   0.00000  Uiso   1.00
O250   O     0.75000   0.29071   0.23720   0.00000  Uiso   1.00
O251   O     0.75000   0.20929   0.09613   0.00000  Uiso   1.00
O252   O     0.78778   0.13034   0.24438   0.00000  Uiso   1.00
S253   S     0.61773   0.34822   0.20598   0.00000  Uiso   1.00
S254   S     0.87867   0.18515   0.08941   0.00000  Uiso   1.00
S255   S     0.88240   0.31898   0.24430   0.00000  Uiso   1.00
S256   S     0.62190   0.15318   0.21945   0.00000  Uiso   1.00
C257   C     0.16570   0.74959   0.17393   0.00000  Uiso   1.00
C258   C     0.27388   0.94712   0.20136   0.00000  Uiso   1.00
C259   C     0.24950   0.74984   0.07353   0.00000  Uiso   1.00
C260   C     0.24967   0.75013   0.25978   0.00000  Uiso   1.00
C261   C     0.24896   0.52707   0.16689   0.00000  Uiso   1.00
C262   C     0.24902   0.97247   0.16653   0.00000  Uiso   1.00
C263   C     0.24943   0.74977   0.02180   0.00000  Uiso   1.00
C264   C     0.24948   0.75016   0.31149   0.00000  Uiso   1.00
C265   C     0.04902   0.78975   0.17638   0.00000  Uiso   1.00
C266   C     0.45392   0.71889   0.13925   0.00000  Uiso   1.00
C267   C     0.45445   0.77476   0.20905   0.00000  Uiso   1.00
C268   C     0.33532   0.75028   0.16681   0.00000  Uiso   1.00
C269   C     0.04813   0.70343   0.19195   0.00000  Uiso   1.00
C270   C     0.09433   0.79179   0.18622   0.00000  Uiso   1.00
C271   C     0.40745   0.71990   0.13613   0.00000  Uiso   1.00
C272   C     0.40850   0.77781   0.20507   0.00000  Uiso   1.00
C273   C     0.09468   0.70472   0.19573   0.00000  Uiso   1.00
C274   C     0.11811   0.74860   0.18623   0.00000  Uiso   1.00
C275   C     0.38438   0.75012   0.16877   0.00000  Uiso   1.00
C276   C     0.02566   0.74587   0.17977   0.00000  Uiso   1.00
C277   C     0.47709   0.74648   0.17552   0.00000  Uiso   1.00
C278   C     0.33372   0.62304   0.24476   0.00000  Uiso   1.00
C279   C     0.26787   0.60512   0.20569   0.00000  Uiso   1.00
C280   C     0.35656   0.66084   0.27762   0.00000  Uiso   1.00
C281   C     0.19598   0.88275   0.05132   0.00000  Uiso   1.00
C282   C     0.14924   0.89866   0.03895   0.00000  Uiso   1.00
C283   C     0.17475   0.62333   0.07622   0.00000  Uiso   1.00
C284   C     0.16372   0.63554   0.02329   0.00000  Uiso   1.00
C285   C     0.27557   0.88882   0.28809   0.00000  Uiso   1.00
C286   C     0.31387   0.90922   0.31972   0.00000  Uiso   1.00
C287   C     0.02456   0.84082   0.11743   0.00000  Uiso   1.00
C288   C     0.01265   0.89291   0.10943   0.00000  Uiso   1.00
C289   C     0.49779   0.71079   0.07295   0.00000  Uiso   1.00
C290   C     0.22571   0.89366   0.13125   0.00000  Uiso   1.00
C291   C     0.02356   0.67490   0.04358   0.00000  Uiso   1.00
C292   C     0.49127   0.77747   0.28375   0.00000  Uiso   1.00
C293   C     0.01411   0.81137   0.32094   0.00000  Uiso   1.00
C294   C     0.00082   0.65572   0.23630   0.00000  Uiso   1.00
C295   C     0.48373   0.60433   0.24108   0.00000  Uiso   1.00
C296   C     0.23292   0.60348   0.12693   0.00000  Uiso   1.00
C297   C     0.27096   0.89667   0.20363   0.00000  Uiso   1.00
C298   C     0.26506   0.55454   0.20746   0.00000  Uiso   1.00
C299   C     0.22344   0.94463   0.13238   0.00000  Uiso   1.00
C300   C     0.23404   0.55288   0.12602   0.00000  Uiso   1.00
Cu301  Cu    0.25000   0.79821   0.16667   0.00000  Uiso   1.00
Cu302  Cu    0.25000   0.70178   0.16667   0.00000  Uiso   1.00
H303   H     0.27610   0.53771   0.24090   0.00000  Uiso   1.00
H304   H     0.20293   0.85225   0.02651   0.00000  Uiso   1.00
H305   H     0.22038   0.91173   0.04308   0.00000  Uiso   1.00
H306   H     0.13993   0.92851   0.06348   0.00000  Uiso   1.00
H307   H     0.14709   0.91097   0.00044   0.00000  Uiso   1.00
H308   H     0.12558   0.86815   0.04325   0.00000  Uiso   1.00
H309   H     0.15875   0.65024   0.09949   0.00000  Uiso   1.00
H310   H     0.16064   0.58691   0.08336   0.00000  Uiso   1.00
H311   H     0.17869   0.60912   0.33172   0.00000  Uiso   1.00
H312   H     0.12740   0.63463   0.01702   0.00000  Uiso   1.00
H313   H     0.17656   0.67210   0.01511   0.00000  Uiso   1.00
H314   H     0.20082   0.96201   0.10747   0.00000  Uiso   1.00
H315   H     0.26196   0.85716   0.30710   0.00000  Uiso   1.00
H316   H     0.24865   0.91546   0.28594   0.00000  Uiso   1.00
H317   H     0.32999   0.93991   0.30131   0.00000  Uiso   1.00
H318   H     0.30164   0.92176   0.02211   0.00000  Uiso   1.00
H319   H     0.33856   0.88110   0.32665   0.00000  Uiso   1.00
H320   H     0.49829   0.81770   0.09964   0.00000  Uiso   1.00
H321   H     0.05659   0.83460   0.09963   0.00000  Uiso   1.00
H322   H     0.03829   0.91701   0.12695   0.00000  Uiso   1.00
H323   H     0.01053   0.90042   0.06961   0.00000  Uiso   1.00
H324   H     0.48030   0.90021   0.12561   0.00000  Uiso   1.00
H325   H     0.22398   0.53453   0.09233   0.00000  Uiso   1.00
H326   H     0.02191   0.73818   0.08730   0.00000  Uiso   1.00
H327   H     0.47346   0.72844   0.04823   0.00000  Uiso   1.00
H328   H     0.00071   0.64831   0.02515   0.00000  Uiso   1.00
H329   H     0.04271   0.69410   0.01558   0.00000  Uiso   1.00
H330   H     0.04696   0.65581   0.06821   0.00000  Uiso   1.00
H331   H     0.01549   0.75010   0.27405   0.00000  Uiso   1.00
H332   H     0.46254   0.75957   0.30089   0.00000  Uiso   1.00
H333   H     0.49012   0.83676   0.00253   0.00000  Uiso   1.00
H334   H     0.02896   0.79063   0.01803   0.00000  Uiso   1.00
H335   H     0.04093   0.83198   0.30347   0.00000  Uiso   1.00
H336   H     0.29509   0.96569   0.22798   0.00000  Uiso   1.00
H337   H     0.47156   0.67870   0.23477   0.00000  Uiso   1.00
H338   H     0.02097   0.66542   0.26965   0.00000  Uiso   1.00
H339   H     0.01158   0.57916   0.24270   0.00000  Uiso   1.00
H340   H     0.46483   0.60084   0.27508   0.00000  Uiso   1.00
H341   H     0.46166   0.59461   0.20915   0.00000  Uiso   1.00
H342   H     0.17545   0.87344   0.24781   0.00000  Uiso   1.00
H343   H     0.41747   0.62923   0.05712   0.00000  Uiso   1.00
H344   H     0.39944   0.88019   0.20032   0.00000  Uiso   1.00
H345   H     0.10582   0.59222   0.26422   0.00000  Uiso   1.00
H346   H     0.34747   0.62631   0.20754   0.00000  Uiso   1.00
H347   H     0.34137   0.58705   0.25962   0.00000  Uiso   1.00
H348   H     0.34384   0.65819   0.31515   0.00000  Uiso   1.00
H349   H     0.39269   0.65528   0.27887   0.00000  Uiso   1.00
H350   H     0.35009   0.69723   0.26337   0.00000  Uiso   1.00
N351   N     0.25000   0.62934   0.16667   0.00000  Uiso   1.00
N352   N     0.25000   0.87065   0.16667   0.00000  Uiso   1.00
O353   O     0.18573   0.79071   0.16667   0.00000  Uiso   1.00
O354   O     0.19862   0.86565   0.09990   0.00000  Uiso   1.00
O355   O     0.22090   0.62644   0.08421   0.00000  Uiso   1.00
O356   O     0.29091   0.87298   0.24224   0.00000  Uiso   1.00
O357   O     0.02679   0.83196   0.16818   0.00000  Uiso   1.00
O358   O     0.47625   0.68647   0.11085   0.00000  Uiso   1.00
O359   O     0.47785   0.80413   0.24242   0.00000  Uiso   1.00
O360   O     0.02576   0.65940   0.19347   0.00000  Uiso   1.00
O361   O     0.13033   0.87651   0.16196   0.00000  Uiso   1.00
O362   O     0.08435   0.87602   0.23350   0.00000  Uiso   1.00
O363   O     0.16207   0.84090   0.24347   0.00000  Uiso   1.00
O364   O     0.31427   0.70928   0.16666   0.00000  Uiso   1.00
O365   O     0.35433   0.64398   0.11228   0.00000  Uiso   1.00
O366   O     0.34586   0.71634   0.06350   0.00000  Uiso   1.00
O367   O     0.41209   0.66275   0.04725   0.00000  Uiso   1.00
O368   O     0.34121   0.79633   0.26344   0.00000  Uiso   1.00
O369   O     0.41076   0.83526   0.28760   0.00000  Uiso   1.00
O370   O     0.37050   0.86729   0.21048   0.00000  Uiso   1.00
O371   O     0.13291   0.62025   0.17800   0.00000  Uiso   1.00
O372   O     0.16343   0.66798   0.24744   0.00000  Uiso   1.00
O373   O     0.09006   0.62239   0.25784   0.00000  Uiso   1.00
O374   O     0.31427   0.79071   0.16666   0.00000  Uiso   1.00
O375   O     0.18573   0.70928   0.16667   0.00000  Uiso   1.00
O376   O     0.25000   0.79071   0.09613   0.00000  Uiso   1.00
O377   O     0.25000   0.70929   0.23720   0.00000  Uiso   1.00
O378   O     0.25000   0.79071   0.23720   0.00000  Uiso   1.00
O379   O     0.25000   0.70929   0.09613   0.00000  Uiso   1.00
O380   O     0.28778   0.63034   0.24438   0.00000  Uiso   1.00
S381   S     0.11773   0.84822   0.20598   0.00000  Uiso   1.00
S382   S     0.37867   0.68515   0.08941   0.00000  Uiso   1.00
S383   S     0.38240   0.81898   0.24430   0.00000  Uiso   1.00
S384   S     0.12190   0.65318   0.21945   0.00000  Uiso   1.00
C385   C     0.66570   0.74959   0.17393   0.00000  Uiso   1.00
C386   C     0.77388   0.94712   0.20136   0.00000  Uiso   1.00
C387   C     0.74950   0.74984   0.07353   0.00000  Uiso   1.00
C388   C     0.74967   0.75013   0.25978   0.00000  Uiso   1.00
C389   C     0.74896   0.52707   0.16689   0.00000  Uiso   1.00
C390   C     0.74902   0.97247   0.16653   0.00000  Uiso   1.00
C391   C     0.74943   0.74977   0.02180   0.00000  Uiso   1.00
C392   C     0.74948   0.75016   0.31149   0.00000  Uiso   1.00
C393   C     0.54902   0.78975   0.17638   0.00000  Uiso   1.00
C394   C     0.95392   0.71889   0.13925   0.00000  Uiso   1.00
C395   C     0.95445   0.77476   0.20905   0.00000  Uiso   1.00
C396   C     0.83532   0.75028   0.16681   0.00000  Uiso   1.00
C397   C     0.54813   0.70343   0.19195   0.00000  Uiso   1.00
C398   C     0.59433   0.79179   0.18622   0.00000  Uiso   1.00
C399   C     0.90745   0.71990   0.13613   0.00000  Uiso   1.00
C400   C     0.90850   0.77781   0.20507   0.00000  Uiso   1.00
C401   C     0.59468   0.70472   0.19573   0.00000  Uiso   1.00
C402   C     0.61811   0.74860   0.18623   0.00000  Uiso   1.00
C403   C     0.88438   0.75012   0.16877   0.00000  Uiso   1.00
C404   C     0.52566   0.74587   0.17977   0.00000  Uiso   1.00
C405   C     0.97709   0.74648   0.17552   0.00000  Uiso   1.00
C406   C     0.83372   0.62304   0.24476   0.00000  Uiso   1.00
C407   C     0.76787   0.60512   0.20569   0.00000  Uiso   1.00
C408   C     0.85656   0.66084   0.27762   0.00000  Uiso   1.00
C409   C     0.69598   0.88275   0.05132   0.00000  Uiso   1.00
C410   C     0.64924   0.89866   0.03895   0.00000  Uiso   1.00
C411   C     0.67475   0.62333   0.07622   0.00000  Uiso   1.00
C412   C     0.66372   0.63554   0.02329   0.00000  Uiso   1.00
C413   C     0.77557   0.88882   0.28809   0.00000  Uiso   1.00
C414   C     0.81387   0.90922   0.31972   0.00000  Uiso   1.00
C415   C     0.52456   0.84082   0.11743   0.00000  Uiso   1.00
C416   C     0.51265   0.89291   0.10943   0.00000  Uiso   1.00
C417   C     0.99779   0.71079   0.07295   0.00000  Uiso   1.00
C418   C     0.72571   0.89366   0.13125   0.00000  Uiso   1.00
C419   C     0.52356   0.67490   0.04358   0.00000  Uiso   1.00
C420   C     0.99127   0.77747   0.28375   0.00000  Uiso   1.00
C421   C     0.51411   0.81137   0.32094   0.00000  Uiso   1.00
C422   C     0.50082   0.65572   0.23630   0.00000  Uiso   1.00
C423   C     0.98373   0.60433   0.24108   0.00000  Uiso   1.00
C424   C     0.73292   0.60348   0.12693   0.00000  Uiso   1.00
C425   C     0.77096   0.89667   0.20363   0.00000  Uiso   1.00
C426   C     0.76506   0.55454   0.20746   0.00000  Uiso   1.00
C427   C     0.72344   0.94463   0.13238   0.00000  Uiso   1.00
C428   C     0.73404   0.55288   0.12602   0.00000  Uiso   1.00
Cu429  Cu    0.75000   0.79821   0.16667   0.00000  Uiso   1.00
Cu430  Cu    0.75000   0.70178   0.16667   0.00000  Uiso   1.00
H431   H     0.77610   0.53771   0.24090   0.00000  Uiso   1.00
H432   H     0.70293   0.85225   0.02651   0.00000  Uiso   1.00
H433   H     0.72038   0.91173   0.04308   0.00000  Uiso   1.00
H434   H     0.63993   0.92851   0.06348   0.00000  Uiso   1.00
H435   H     0.64709   0.91097   0.00044   0.00000  Uiso   1.00
H436   H     0.62558   0.86815   0.04325   0.00000  Uiso   1.00
H437   H     0.65875   0.65024   0.09949   0.00000  Uiso   1.00
H438   H     0.66064   0.58691   0.08336   0.00000  Uiso   1.00
H439   H     0.67869   0.60912   0.33172   0.00000  Uiso   1.00
H440   H     0.62740   0.63463   0.01702   0.00000  Uiso   1.00
H441   H     0.67656   0.67210   0.01511   0.00000  Uiso   1.00
H442   H     0.70082   0.96201   0.10747   0.00000  Uiso   1.00
H443   H     0.76196   0.85716   0.30710   0.00000  Uiso   1.00
H444   H     0.74865   0.91546   0.28594   0.00000  Uiso   1.00
H445   H     0.82999   0.93991   0.30131   0.00000  Uiso   1.00
H446   H     0.80164   0.92176   0.02211   0.00000  Uiso   1.00
H447   H     0.83856   0.88110   0.32665   0.00000  Uiso   1.00
H448   H     0.99829   0.81770   0.09964   0.00000  Uiso   1.00
H449   H     0.55659   0.83460   0.09963   0.00000  Uiso   1.00
H450   H     0.53829   0.91701   0.12695   0.00000  Uiso   1.00
H451   H     0.51053   0.90042   0.06961   0.00000  Uiso   1.00
H452   H     0.98030   0.90021   0.12561   0.00000  Uiso   1.00
H453   H     0.72398   0.53453   0.09233   0.00000  Uiso   1.00
H454   H     0.52191   0.73818   0.08730   0.00000  Uiso   1.00
H455   H     0.97346   0.72844   0.04823   0.00000  Uiso   1.00
H456   H     0.50071   0.64831   0.02515   0.00000  Uiso   1.00
H457   H     0.54271   0.69410   0.01558   0.00000  Uiso   1.00
H458   H     0.54696   0.65581   0.06821   0.00000  Uiso   1.00
H459   H     0.51549   0.75010   0.27405   0.00000  Uiso   1.00
H460   H     0.96254   0.75957   0.30089   0.00000  Uiso   1.00
H461   H     0.99012   0.83676   0.00253   0.00000  Uiso   1.00
H462   H     0.52896   0.79063   0.01803   0.00000  Uiso   1.00
H463   H     0.54093   0.83198   0.30347   0.00000  Uiso   1.00
H464   H     0.79509   0.96569   0.22798   0.00000  Uiso   1.00
H465   H     0.97156   0.67870   0.23477   0.00000  Uiso   1.00
H466   H     0.52097   0.66542   0.26965   0.00000  Uiso   1.00
H467   H     0.51158   0.57916   0.24270   0.00000  Uiso   1.00
H468   H     0.96483   0.60084   0.27508   0.00000  Uiso   1.00
H469   H     0.96166   0.59461   0.20915   0.00000  Uiso   1.00
H470   H     0.67545   0.87344   0.24781   0.00000  Uiso   1.00
H471   H     0.91747   0.62923   0.05712   0.00000  Uiso   1.00
H472   H     0.89944   0.88019   0.20032   0.00000  Uiso   1.00
H473   H     0.60582   0.59222   0.26422   0.00000  Uiso   1.00
H474   H     0.84747   0.62631   0.20754   0.00000  Uiso   1.00
H475   H     0.84137   0.58705   0.25962   0.00000  Uiso   1.00
H476   H     0.84384   0.65819   0.31515   0.00000  Uiso   1.00
H477   H     0.89269   0.65528   0.27887   0.00000  Uiso   1.00
H478   H     0.85009   0.69723   0.26337   0.00000  Uiso   1.00
N479   N     0.75000   0.62934   0.16667   0.00000  Uiso   1.00
N480   N     0.75000   0.87065   0.16667   0.00000  Uiso   1.00
O481   O     0.68573   0.79071   0.16667   0.00000  Uiso   1.00
O482   O     0.69862   0.86565   0.09990   0.00000  Uiso   1.00
O483   O     0.72090   0.62644   0.08421   0.00000  Uiso   1.00
O484   O     0.79091   0.87298   0.24224   0.00000  Uiso   1.00
O485   O     0.52679   0.83196   0.16818   0.00000  Uiso   1.00
O486   O     0.97625   0.68647   0.11085   0.00000  Uiso   1.00
O487   O     0.97785   0.80413   0.24242   0.00000  Uiso   1.00
O488   O     0.52576   0.65940   0.19347   0.00000  Uiso   1.00
O489   O     0.63033   0.87651   0.16196   0.00000  Uiso   1.00
O490   O     0.58435   0.87602   0.23350   0.00000  Uiso   1.00
O491   O     0.66207   0.84090   0.24347   0.00000  Uiso   1.00
O492   O     0.81427   0.70928   0.16666   0.00000  Uiso   1.00
O493   O     0.85433   0.64398   0.11228   0.00000  Uiso   1.00
O494   O     0.84586   0.71634   0.06350   0.00000  Uiso   1.00
O495   O     0.91209   0.66275   0.04725   0.00000  Uiso   1.00
O496   O     0.84121   0.79633   0.26344   0.00000  Uiso   1.00
O497   O     0.91076   0.83526   0.28760   0.00000  Uiso   1.00
O498   O     0.87050   0.86729   0.21048   0.00000  Uiso   1.00
O499   O     0.63291   0.62025   0.17800   0.00000  Uiso   1.00
O500   O     0.66343   0.66798   0.24744   0.00000  Uiso   1.00
O501   O     0.59006   0.62239   0.25784   0.00000  Uiso   1.00
O502   O     0.81427   0.79071   0.16666   0.00000  Uiso   1.00
O503   O     0.68573   0.70928   0.16667   0.00000  Uiso   1.00
O504   O     0.75000   0.79071   0.09613   0.00000  Uiso   1.00
O505   O     0.75000   0.70929   0.23720   0.00000  Uiso   1.00
O506   O     0.75000   0.79071   0.23720   0.00000  Uiso   1.00
O507   O     0.75000   0.70929   0.09613   0.00000  Uiso   1.00
O508   O     0.78778   0.63034   0.24438   0.00000  Uiso   1.00
S509   S     0.61773   0.84822   0.20598   0.00000  Uiso   1.00
S510   S     0.87867   0.68515   0.08941   0.00000  Uiso   1.00
S511   S     0.88240   0.81898   0.24430   0.00000  Uiso   1.00
S512   S     0.62190   0.65318   0.21945   0.00000  Uiso   1.00
C513   C     0.16570   0.24959   0.50726   0.00000  Uiso   1.00
C514   C     0.27388   0.44712   0.53469   0.00000  Uiso   1.00
C515   C     0.24950   0.24984   0.40686   0.00000  Uiso   1.00
C516   C     0.24967   0.25013   0.59311   0.00000  Uiso   1.00
C517   C     0.24896   0.02707   0.50023   0.00000  Uiso   1.00
C518   C     0.24902   0.47247   0.49986   0.00000  Uiso   1.00
C519   C     0.24943   0.24977   0.35514   0.00000  Uiso   1.00
C520   C     0.24948   0.25016   0.64482   0.00000  Uiso   1.00
C521   C     0.04902   0.28975   0.50972   0.00000  Uiso   1.00
C522   C     0.45392   0.21889   0.47259   0.00000  Uiso   1.00
C523   C     0.45445   0.27476   0.54238   0.00000  Uiso   1.00
C524   C     0.33532   0.25028   0.50015   0.00000  Uiso   1.00
C525   C     0.04813   0.20343   0.52528   0.00000  Uiso   1.00
C526   C     0.09433   0.29179   0.51955   0.00000  Uiso   1.00
C527   C     0.40745   0.21990   0.46947   0.00000  Uiso   1.00
C528   C     0.40850   0.27781   0.53840   0.00000  Uiso   1.00
C529   C     0.09468   0.20472   0.52907   0.00000  Uiso   1.00
C530   C     0.11811   0.24860   0.51957   0.00000  Uiso   1.00
C531   C     0.38438   0.25012   0.50210   0.00000  Uiso   1.00
C532   C     0.02566   0.24587   0.51310   0.00000  Uiso   1.00
C533   C     0.47709   0.24648   0.50885   0.00000  Uiso   1.00
C534   C     0.33372   0.12304   0.57809   0.00000  Uiso   1.00
C535   C     0.26787   0.10512   0.53902   0.00000  Uiso   1.00
C536   C     0.35656   0.16084   0.61096   0.00000  Uiso   1.00
C537   C     0.19598   0.38275   0.38465   0.00000  Uiso   1.00
C538   C     0.14924   0.39866   0.37228   0.00000  Uiso   1.00
C539   C     0.17475   0.12333   0.40955   0.00000  Uiso   1.00
C540   C     0.16372   0.13554   0.35662   0.00000  Uiso   1.00
C541   C     0.27557   0.38882   0.62143   0.00000  Uiso   1.00
C542   C     0.31387   0.40922   0.65305   0.00000  Uiso   1.00
C543   C     0.02456   0.34082   0.45077   0.00000  Uiso   1.00
C544   C     0.01265   0.39291   0.44277   0.00000  Uiso   1.00
C545   C     0.49779   0.21079   0.40629   0.00000  Uiso   1.00
C546   C     0.22571   0.39366   0.46459   0.00000  Uiso   1.00
C547   C     0.02356   0.17490   0.37691   0.00000  Uiso   1.00
C548   C     0.49127   0.27747   0.61708   0.00000  Uiso   1.00
C549   C     0.01411   0.31137   0.65428   0.00000  Uiso   1.00
C550   C     0.00082   0.15572   0.56963   0.00000  Uiso   1.00
C551   C     0.48373   0.10433   0.57442   0.00000  Uiso   1.00
C552   C     0.23292   0.10348   0.46026   0.00000  Uiso   1.00
C553   C     0.27096   0.39667   0.53696   0.00000  Uiso   1.00
C554   C     0.26506   0.05454   0.54079   0.00000  Uiso   1.00
C555   C     0.22344   0.44463   0.46571   0.00000  Uiso   1.00
C556   C     0.23404   0.05288   0.45935   0.00000  Uiso   1.00
Cu557  Cu    0.25000   0.29821   0.50000   0.00000  Uiso   1.00
Cu558  Cu    0.25000   0.20178   0.50000   0.00000  Uiso   1.00
H559   H     0.27610   0.03771   0.57423   0.00000  Uiso   1.00
H560   H     0.20293   0.35225   0.35984   0.00000  Uiso   1.00
H561   H     0.22038   0.41173   0.37641   0.00000  Uiso   1.00
H562   H     0.13993   0.42851   0.39681   0.00000  Uiso   1.00
H563   H     0.14709   0.41097   0.33377   0.00000  Uiso   1.00
H564   H     0.12558   0.36815   0.37658   0.00000  Uiso   1.00
H565   H     0.15875   0.15024   0.43282   0.00000  Uiso   1.00
H566   H     0.16064   0.08691   0.41669   0.00000  Uiso   1.00
H567   H     0.17869   0.10912   0.66505   0.00000  Uiso   1.00
H568   H     0.12740   0.13463   0.35036   0.00000  Uiso   1.00
H569   H     0.17656   0.17210   0.34844   0.00000  Uiso   1.00
H570   H     0.20082   0.46201   0.44080   0.00000  Uiso   1.00
H571   H     0.26196   0.35716   0.64044   0.00000  Uiso   1.00
H572   H     0.24865   0.41546   0.61928   0.00000  Uiso   1.00
H573   H     0.32999   0.43991   0.63464   0.00000  Uiso   1.00
H574   H     0.30164   0.42176   0.35544   0.00000  Uiso   1.00
H575   H     0.33856   0.38110   0.65999   0.00000  Uiso   1.00
H576   H     0.49829   0.31770   0.43298   0.00000  Uiso   1.00
H577   H     0.05659   0.33460   0.43297   0.00000  Uiso   1.00
H578   H     0.03829   0.41701   0.46028   0.00000  Uiso   1.00
H579   H     0.01053   0.40042   0.40294   0.00000  Uiso   1.00
H580   H     0.48030   0.40021   0.45894   0.00000  Uiso   1.00
H581   H     0.22398   0.03453   0.42567   0.00000  Uiso   1.00
H582   H     0.02191   0.23818   0.42063   0.00000  Uiso   1.00
H583   H     0.47346   0.22844   0.38156   0.00000  Uiso   1.00
H584   H     0.00071   0.14831   0.35849   0.00000  Uiso   1.00
H585   H     0.04271   0.19410   0.34891   0.00000  Uiso   1.00
H586   H     0.04696   0.15581   0.40154   0.00000  Uiso   1.00
H587   H     0.01549   0.25010   0.60738   0.00000  Uiso   1.00
H588   H     0.46254   0.25957   0.63422   0.00000  Uiso   1.00
H589   H     0.49012   0.33676   0.33586   0.00000  Uiso   1.00
H590   H     0.02896   0.29063   0.35136   0.00000  Uiso   1.00
H591   H     0.04093   0.33198   0.63680   0.00000  Uiso   1.00
H592   H     0.29509   0.46569   0.56132   0.00000  Uiso   1.00
H593   H     0.47156   0.17870   0.56810   0.00000  Uiso   1.00
H594   H     0.02097   0.16542   0.60298   0.00000  Uiso   1.00
H595   H     0.01158   0.07916   0.57603   0.00000  Uiso   1.00
H596   H     0.46483   0.10084   0.60841   0.00000  Uiso   1.00
H597   H     0.46166   0.09461   0.54248   0.00000  Uiso   1.00
H598   H     0.17545   0.37344   0.58115   0.00000  Uiso   1.00
H599   H     0.41747   0.12923   0.39045   0.00000  Uiso   1.00
H600   H     0.39944   0.38019   0.53366   0.00000  Uiso   1.00
H601   H     0.10582   0.09222   0.59755   0.00000  Uiso   1.00
H602   H     0.34747   0.12631   0.54087   0.00000  Uiso   1.00
H603   H     0.34137   0.08705   0.59295   0.00000  Uiso   1.00
H604   H     0.34384   0.15819   0.64848   0.00000  Uiso   1.00
H605   H     0.39269   0.15528   0.61220   0.00000  Uiso   1.00
H606   H     0.35009   0.19723   0.59670   0.00000  Uiso   1.00
N607   N     0.25000   0.12934   0.50000   0.00000  Uiso   1.00
N608   N     0.25000   0.37065   0.50000   0.00000  Uiso   1.00
O609   O     0.18573   0.29071   0.50000   0.00000  Uiso   1.00
O610   O     0.19862   0.36565   0.43324   0.00000  Uiso   1.00
O611   O     0.22090   0.12644   0.41754   0.00000  Uiso   1.00
O612   O     0.29091   0.37298   0.57557   0.00000  Uiso   1.00
O613   O     0.02679   0.33196   0.50151   0.00000  Uiso   1.00
O614   O     0.47625   0.18647   0.44418   0.00000  Uiso   1.00
O615   O     0.47785   0.30413   0.57576   0.00000  Uiso   1.00
O616   O     0.02576   0.15940   0.52681   0.00000  Uiso   1.00
O617   O     0.13033   0.37651   0.49529   0.00000  Uiso   1.00
O618   O     0.08435   0.37602   0.56683   0.00000  Uiso   1.00
O619   O     0.16207   0.34090   0.57680   0.00000  Uiso   1.00
O620   O     0.31427   0.20928   0.50000   0.00000  Uiso   1.00
O621   O     0.35433   0.14398   0.44561   0.00000  Uiso   1.00
O622   O     0.34586   0.21634   0.39684   0.00000  Uiso   1.00
O623   O     0.41209   0.16275   0.38058   0.00000  Uiso   1.00
O624   O     0.34121   0.29633   0.59678   0.00000  Uiso   1.00
O625   O     0.41076   0.33526   0.62093   0.00000  Uiso   1.00
O626   O     0.37050   0.36729   0.54381   0.00000  Uiso   1.00
O627   O     0.13291   0.12025   0.51133   0.00000  Uiso   1.00
O628   O     0.16343   0.16798   0.58077   0.00000  Uiso   1.00
O629   O     0.09006   0.12239   0.59118   0.00000  Uiso   1.00
O630   O     0.31427   0.29071   0.50000   0.00000  Uiso   1.00
O631   O     0.18573   0.20928   0.50000   0.00000  Uiso   1.00
O632   O     0.25000   0.29071   0.42946   0.00000  Uiso   1.00
O633   O     0.25000   0.20929   0.57054   0.00000  Uiso   1.00
O634   O     0.25000   0.29071   0.57054   0.00000  Uiso   1.00
O635   O     0.25000   0.20929   0.42946   0.00000  Uiso   1.00
O636   O     0.28778   0.13034   0.57771   0.00000  Uiso   1.00
S637   S     0.11773   0.34822   0.53932   0.00000  Uiso   1.00
S638   S     0.37867   0.18515   0.42275   0.00000  Uiso   1.00
S639   S     0.38240   0.31898   0.57763   0.00000  Uiso   1.00
S640   S     0.12190   0.15318   0.55278   0.00000  Uiso   1.00
C641   C     0.66570   0.24959   0.50726   0.00000  Uiso   1.00
C642   C     0.77388   0.44712   0.53469   0.00000  Uiso   1.00
C643   C     0.74950   0.24984   0.40686   0.00000  Uiso   1.00
C644   C     0.74967   0.25013   0.59311   0.00000  Uiso   1.00
C645   C     0.74896   0.02707   0.50023   0.00000  Uiso   1.00
C646   C     0.74902   0.47247   0.49986   0.00000  Uiso   1.00
C647   C     0.74943   0.24977   0.35514   0.00000  Uiso   1.00
C648   C     0.74948   0.25016   0.64482   0.00000  Uiso   1.00
C649   C     0.54902   0.28975   0.50972   0.00000  Uiso   1.00
C650   C     0.95392   0.21889   0.47259   0.00000  Uiso   1.00
C651   C     0.95445   0.27476   0.54238   0.00000  Uiso   1.00
C652   C     0.83532   0.25028   0.50015   0.00000  Uiso   1.00
C653   C     0.54813   0.20343   0.52528   0.00000  Uiso   1.00
C654   C     0.59433   0.29179   0.51955   0.00000  Uiso   1.00
C655   C     0.90745   0.21990   0.46947   0.00000  Uiso   1.00
C656   C     0.90850   0.27781   0.53840   0.00000  Uiso   1.00
C657   C     0.59468   0.20472   0.52907   0.00000  Uiso   1.00
C658   C     0.61811   0.24860   0.51957   0.00000  Uiso   1.00
C659   C     0.88438   0.25012   0.50210   0.00000  Uiso   1.00
C660   C     0.52566   0.24587   0.51310   0.00000  Uiso   1.00
C661   C     0.97709   0.24648   0.50885   0.00000  Uiso   1.00
C662   C     0.83372   0.12304   0.57809   0.00000  Uiso   1.00
C663   C     0.76787   0.10512   0.53902   0.00000  Uiso   1.00
C664   C     0.85656   0.16084   0.61096   0.00000  Uiso   1.00
C665   C     0.69598   0.38275   0.38465   0.00000  Uiso   1.00
C666   C     0.64924   0.39866   0.37228   0.00000  Uiso   1.00
C667   C     0.67475   0.12333   0.40955   0.00000  Uiso   1.00
C668   C     0.66372   0.13554   0.35662   0.00000  Uiso   1.00
C669   C     0.77557   0.38882   0.62143   0.00000  Uiso   1.00
C670   C     0.81387   0.40922   0.65305   0.00000  Uiso   1.00
C671   C     0.52456   0.34082   0.45077   0.00000  Uiso   1.00
C672   C     0.51265   0.39291   0.44277   0.00000  Uiso   1.00
C673   C     0.99779   0.21079   0.40629   0.00000  Uiso   1.00
C674   C     0.72571   0.39366   0.46459   0.00000  Uiso   1.00
C675   C     0.52356   0.17490   0.37691   0.00000  Uiso   1.00
C676   C     0.99127   0.27747   0.61708   0.00000  Uiso   1.00
C677   C     0.51411   0.31137   0.65428   0.00000  Uiso   1.00
C678   C     0.50082   0.15572   0.56963   0.00000  Uiso   1.00
C679   C     0.98373   0.10433   0.57442   0.00000  Uiso   1.00
C680   C     0.73292   0.10348   0.46026   0.00000  Uiso   1.00
C681   C     0.77096   0.39667   0.53696   0.00000  Uiso   1.00
C682   C     0.76506   0.05454   0.54079   0.00000  Uiso   1.00
C683   C     0.72344   0.44463   0.46571   0.00000  Uiso   1.00
C684   C     0.73404   0.05288   0.45935   0.00000  Uiso   1.00
Cu685  Cu    0.75000   0.29821   0.50000   0.00000  Uiso   1.00
Cu686  Cu    0.75000   0.20178   0.50000   0.00000  Uiso   1.00
H687   H     0.77610   0.03771   0.57423   0.00000  Uiso   1.00
H688   H     0.70293   0.35225   0.35984   0.00000  Uiso   1.00
H689   H     0.72038   0.41173   0.37641   0.00000  Uiso   1.00
H690   H     0.63993   0.42851   0.39681   0.00000  Uiso   1.00
H691   H     0.64709   0.41097   0.33377   0.00000  Uiso   1.00
H692   H     0.62558   0.36815   0.37658   0.00000  Uiso   1.00
H693   H     0.65875   0.15024   0.43282   0.00000  Uiso   1.00
H694   H     0.66064   0.08691   0.41669   0.00000  Uiso   1.00
H695   H     0.67869   0.10912   0.66505   0.00000  Uiso   1.00
H696   H     0.62740   0.13463   0.35036   0.00000  Uiso   1.00
H697   H     0.67656   0.17210   0.34844   0.00000  Uiso   1.00
H698   H     0.70082   0.46201   0.44080   0.00000  Uiso   1.00
H699   H     0.76196   0.35716   0.64044   0.00000  Uiso   1.00
H700   H     0.74865   0.41546   0.61928   0.00000  Uiso   1.00
H701   H     0.82999   0.43991   0.63464   0.00000  Uiso   1.00
H702   H     0.80164   0.42176   0.35544   0.00000  Uiso   1.00
H703   H     0.83856   0.38110   0.65999   0.00000  Uiso   1.00
H704   H     0.99829   0.31770   0.43298   0.00000  Uiso   1.00
H705   H     0.55659   0.33460   0.43297   0.00000  Uiso   1.00
H706   H     0.53829   0.41701   0.46028   0.00000  Uiso   1.00
H707   H     0.51053   0.40042   0.40294   0.00000  Uiso   1.00
H708   H     0.98030   0.40021   0.45894   0.00000  Uiso   1.00
H709   H     0.72398   0.03453   0.42567   0.00000  Uiso   1.00
H710   H     0.52191   0.23818   0.42063   0.00000  Uiso   1.00
H711   H     0.97346   0.22844   0.38156   0.00000  Uiso   1.00
H712   H     0.50071   0.14831   0.35849   0.00000  Uiso   1.00
H713   H     0.54271   0.19410   0.34891   0.00000  Uiso   1.00
H714   H     0.54696   0.15581   0.40154   0.00000  Uiso   1.00
H715   H     0.51549   0.25010   0.60738   0.00000  Uiso   1.00
H716   H     0.96254   0.25957   0.63422   0.00000  Uiso   1.00
H717   H     0.99012   0.33676   0.33586   0.00000  Uiso   1.00
H718   H     0.52896   0.29063   0.35136   0.00000  Uiso   1.00
H719   H     0.54093   0.33198   0.63680   0.00000  Uiso   1.00
H720   H     0.79509   0.46569   0.56132   0.00000  Uiso   1.00
H721   H     0.97156   0.17870   0.56810   0.00000  Uiso   1.00
H722   H     0.52097   0.16542   0.60298   0.00000  Uiso   1.00
H723   H     0.51158   0.07916   0.57603   0.00000  Uiso   1.00
H724   H     0.96483   0.10084   0.60841   0.00000  Uiso   1.00
H725   H     0.96166   0.09461   0.54248   0.00000  Uiso   1.00
H726   H     0.67545   0.37344   0.58115   0.00000  Uiso   1.00
H727   H     0.91747   0.12923   0.39045   0.00000  Uiso   1.00
H728   H     0.89944   0.38019   0.53366   0.00000  Uiso   1.00
H729   H     0.60582   0.09222   0.59755   0.00000  Uiso   1.00
H730   H     0.84747   0.12631   0.54087   0.00000  Uiso   1.00
H731   H     0.84137   0.08705   0.59295   0.00000  Uiso   1.00
H732   H     0.84384   0.15819   0.64848   0.00000  Uiso   1.00
H733   H     0.89269   0.15528   0.61220   0.00000  Uiso   1.00
H734   H     0.85009   0.19723   0.59670   0.00000  Uiso   1.00
N735   N     0.75000   0.12934   0.50000   0.00000  Uiso   1.00
N736   N     0.75000   0.37065   0.50000   0.00000  Uiso   1.00
O737   O     0.68573   0.29071   0.50000   0.00000  Uiso   1.00
O738   O     0.69862   0.36565   0.43324   0.00000  Uiso   1.00
O739   O     0.72090   0.12644   0.41754   0.00000  Uiso   1.00
O740   O     0.79091   0.37298   0.57557   0.00000  Uiso   1.00
O741   O     0.52679   0.33196   0.50151   0.00000  Uiso   1.00
O742   O     0.97625   0.18647   0.44418   0.00000  Uiso   1.00
O743   O     0.97785   0.30413   0.57576   0.00000  Uiso   1.00
O744   O     0.52576   0.15940   0.52681   0.00000  Uiso   1.00
O745   O     0.63033   0.37651   0.49529   0.00000  Uiso   1.00
O746   O     0.58435   0.37602   0.56683   0.00000  Uiso   1.00
O747   O     0.66207   0.34090   0.57680   0.00000  Uiso   1.00
O748   O     0.81427   0.20928   0.50000   0.00000  Uiso   1.00
O749   O     0.85433   0.14398   0.44561   0.00000  Uiso   1.00
O750   O     0.84586   0.21634   0.39684   0.00000  Uiso   1.00
O751   O     0.91209   0.16275   0.38058   0.00000  Uiso   1.00
O752   O     0.84121   0.29633   0.59678   0.00000  Uiso   1.00
O753   O     0.91076   0.33526   0.62093   0.00000  Uiso   1.00
O754   O     0.87050   0.36729   0.54381   0.00000  Uiso   1.00
O755   O     0.63291   0.12025   0.51133   0.00000  Uiso   1.00
O756   O     0.66343   0.16798   0.58077   0.00000  Uiso   1.00
O757   O     0.59006   0.12239   0.59118   0.00000  Uiso   1.00
O758   O     0.81427   0.29071   0.50000   0.00000  Uiso   1.00
O759   O     0.68573   0.20928   0.50000   0.00000  Uiso   1.00
O760   O     0.75000   0.29071   0.42946   0.00000  Uiso   1.00
O761   O     0.75000   0.20929   0.57054   0.00000  Uiso   1.00
O762   O     0.75000   0.29071   0.57054   0.00000  Uiso   1.00
O763   O     0.75000   0.20929   0.42946   0.00000  Uiso   1.00
O764   O     0.78778   0.13034   0.57771   0.00000  Uiso   1.00
S765   S     0.61773   0.34822   0.53932   0.00000  Uiso   1.00
S766   S     0.87867   0.18515   0.42275   0.00000  Uiso   1.00
S767   S     0.88240   0.31898   0.57763   0.00000  Uiso   1.00
S768   S     0.62190   0.15318   0.55278   0.00000  Uiso   1.00
C769   C     0.16570   0.74959   0.50726   0.00000  Uiso   1.00
C770   C     0.27388   0.94712   0.53469   0.00000  Uiso   1.00
C771   C     0.24950   0.74984   0.40686   0.00000  Uiso   1.00
C772   C     0.24967   0.75013   0.59311   0.00000  Uiso   1.00
C773   C     0.24896   0.52707   0.50023   0.00000  Uiso   1.00
C774   C     0.24902   0.97247   0.49986   0.00000  Uiso   1.00
C775   C     0.24943   0.74977   0.35514   0.00000  Uiso   1.00
C776   C     0.24948   0.75016   0.64482   0.00000  Uiso   1.00
C777   C     0.04902   0.78975   0.50972   0.00000  Uiso   1.00
C778   C     0.45392   0.71889   0.47259   0.00000  Uiso   1.00
C779   C     0.45445   0.77476   0.54238   0.00000  Uiso   1.00
C780   C     0.33532   0.75028   0.50015   0.00000  Uiso   1.00
C781   C     0.04813   0.70343   0.52528   0.00000  Uiso   1.00
C782   C     0.09433   0.79179   0.51955   0.00000  Uiso   1.00
C783   C     0.40745   0.71990   0.46947   0.00000  Uiso   1.00
C784   C     0.40850   0.77781   0.53840   0.00000  Uiso   1.00
C785   C     0.09468   0.70472   0.52907   0.00000  Uiso   1.00
C786   C     0.11811   0.74860   0.51957   0.00000  Uiso   1.00
C787   C     0.38438   0.75012   0.50210   0.00000  Uiso   1.00
C788   C     0.02566   0.74587   0.51310   0.00000  Uiso   1.00
C789   C     0.47709   0.74648   0.50885   0.00000  Uiso   1.00
C790   C     0.33372   0.62304   0.57809   0.00000  Uiso   1.00
C791   C     0.26787   0.60512   0.53902   0.00000  Uiso   1.00
C792   C     0.35656   0.66084   0.61096   0.00000  Uiso   1.00
C793   C     0.19598   0.88275   0.38465   0.00000  Uiso   1.00
C794   C     0.14924   0.89866   0.37228   0.00000  Uiso   1.00
C795   C     0.17475   0.62333   0.40955   0.00000  Uiso   1.00
C796   C     0.16372   0.63554   0.35662   0.00000  Uiso   1.00
C797   C     0.27557   0.88882   0.62143   0.00000  Uiso   1.00
C798   C     0.31387   0.90922   0.65305   0.00000  Uiso   1.00
C799   C     0.02456   0.84082   0.45077   0.00000  Uiso   1.00
C800   C     0.01265   0.89291   0.44277   0.00000  Uiso   1.00
C801   C     0.49779   0.71079   0.40629   0.00000  Uiso   1.00
C802   C     0.22571   0.89366   0.46459   0.00000  Uiso   1.00
C803   C     0.02356   0.67490   0.37691   0.00000  Uiso   1.00
C804   C     0.49127   0.77747   0.61708   0.00000  Uiso   1.00
C805   C     0.01411   0.81137   0.65428   0.00000  Uiso   1.00
C806   C     0.00082   0.65572   0.56963   0.00000  Uiso   1.00
C807   C     0.48373   0.60433   0.57442   0.00000  Uiso   1.00
C808   C     0.23292   0.60348   0.46026   0.00000  Uiso   1.00
C809   C     0.27096   0.89667   0.53696   0.00000  Uiso   1.00
C810   C     0.26506   0.55454   0.54079   0.00000  Uiso   1.00
C811   C     0.22344   0.94463   0.46571   0.00000  Uiso   1.00
C812   C     0.23404   0.55288   0.45935   0.00000  Uiso   1.00
Cu813  Cu    0.25000   0.79821   0.50000   0.00000  Uiso   1.00
Cu814  Cu    0.25000   0.70178   0.50000   0.00000  Uiso   1.00
H815   H     0.27610   0.53771   0.57423   0.00000  Uiso   1.00
H816   H     0.20293   0.85225   0.35984   0.00000  Uiso   1.00
H817   H     0.22038   0.91173   0.37641   0.00000  Uiso   1.00
H818   H     0.13993   0.92851   0.39681   0.00000  Uiso   1.00
H819   H     0.14709   0.91097   0.33377   0.00000  Uiso   1.00
H820   H     0.12558   0.86815   0.37658   0.00000  Uiso   1.00
H821   H     0.15875   0.65024   0.43282   0.00000  Uiso   1.00
H822   H     0.16064   0.58691   0.41669   0.00000  Uiso   1.00
H823   H     0.17869   0.60912   0.66505   0.00000  Uiso   1.00
H824   H     0.12740   0.63463   0.35036   0.00000  Uiso   1.00
H825   H     0.17656   0.67210   0.34844   0.00000  Uiso   1.00
H826   H     0.20082   0.96201   0.44080   0.00000  Uiso   1.00
H827   H     0.26196   0.85716   0.64044   0.00000  Uiso   1.00
H828   H     0.24865   0.91546   0.61928   0.00000  Uiso   1.00
H829   H     0.32999   0.93991   0.63464   0.00000  Uiso   1.00
H830   H     0.30164   0.92176   0.35544   0.00000  Uiso   1.00
H831   H     0.33856   0.88110   0.65999   0.00000  Uiso   1.00
H832   H     0.49829   0.81770   0.43298   0.00000  Uiso   1.00
H833   H     0.05659   0.83460   0.43297   0.00000  Uiso   1.00
H834   H     0.03829   0.91701   0.46028   0.00000  Uiso   1.00
H835   H     0.01053   0.90042   0.40294   0.00000  Uiso   1.00
H836   H     0.48030   0.90021   0.45894   0.00000  Uiso   1.00
H837   H     0.22398   0.53453   0.42567   0.00000  Uiso   1.00
H838   H     0.02191   0.73818   0.42063   0.00000  Uiso   1.00
H839   H     0.47346   0.72844   0.38156   0.00000  Uiso   1.00
H840   H     0.00071   0.64831   0.35849   0.00000  Uiso   1.00
H841   H     0.04271   0.69410   0.34891   0.00000  Uiso   1.00
H842   H     0.04696   0.65581   0.40154   0.00000  Uiso   1.00
H843   H     0.01549   0.75010   0.60738   0.00000  Uiso   1.00
H844   H     0.46254   0.75957   0.63422   0.00000  Uiso   1.00
H845   H     0.49012   0.83676   0.33586   0.00000  Uiso   1.00
H846   H     0.02896   0.79063   0.35136   0.00000  Uiso   1.00
H847   H     0.04093   0.83198   0.63680   0.00000  Uiso   1.00
H848   H     0.29509   0.96569   0.56132   0.00000  Uiso   1.00
H849   H     0.47156   0.67870   0.56810   0.00000  Uiso   1.00
H850   H     0.02097   0.66542   0.60298   0.00000  Uiso   1.00
H851   H     0.01158   0.57916   0.57603   0.00000  Uiso   1.00
H852   H     0.46483   0.60084   0.60841   0.00000  Uiso   1.00
H853   H     0.46166   0.59461   0.54248   0.00000  Uiso   1.00
H854   H     0.17545   0.87344   0.58115   0.00000  Uiso   1.00
H855   H     0.41747   0.62923   0.39045   0.00000  Uiso   1.00
H856   H     0.39944   0.88019   0.53366   0.00000  Uiso   1.00
H857   H     0.10582   0.59222   0.59755   0.00000  Uiso   1.00
H858   H     0.34747   0.62631   0.54087   0.00000  Uiso   1.00
H859   H     0.34137   0.58705   0.59295   0.00000  Uiso   1.00
H860   H     0.34384   0.65819   0.64848   0.00000  Uiso   1.00
H861   H     0.39269   0.65528   0.61220   0.00000  Uiso   1.00
H862   H     0.35009   0.69723   0.59670   0.00000  Uiso   1.00
N863   N     0.25000   0.62934   0.50000   0.00000  Uiso   1.00
N864   N     0.25000   0.87065   0.50000   0.00000  Uiso   1.00
O865   O     0.18573   0.79071   0.50000   0.00000  Uiso   1.00
O866   O     0.19862   0.86565   0.43324   0.00000  Uiso   1.00
O867   O     0.22090   0.62644   0.41754   0.00000  Uiso   1.00
O868   O     0.29091   0.87298   0.57557   0.00000  Uiso   1.00
O869   O     0.02679   0.83196   0.50151   0.00000  Uiso   1.00
O870   O     0.47625   0.68647   0.44418   0.00000  Uiso   1.00
O871   O     0.47785   0.80413   0.57576   0.00000  Uiso   1.00
O872   O     0.02576   0.65940   0.52681   0.00000  Uiso   1.00
O873   O     0.13033   0.87651   0.49529   0.00000  Uiso   1.00
O874   O     0.08435   0.87602   0.56683   0.00000  Uiso   1.00
O875   O     0.16207   0.84090   0.57680   0.00000  Uiso   1.00
O876   O     0.31427   0.70928   0.50000   0.00000  Uiso   1.00
O877   O     0.35433   0.64398   0.44561   0.00000  Uiso   1.00
O878   O     0.34586   0.71634   0.39684   0.00000  Uiso   1.00
O879   O     0.41209   0.66275   0.38058   0.00000  Uiso   1.00
O880   O     0.34121   0.79633   0.59678   0.00000  Uiso   1.00
O881   O     0.41076   0.83526   0.62093   0.00000  Uiso   1.00
O882   O     0.37050   0.86729   0.54381   0.00000  Uiso   1.00
O883   O     0.13291   0.62025   0.51133   0.00000  Uiso   1.00
O884   O     0.16343   0.66798   0.58077   0.00000  Uiso   1.00
O885   O     0.09006   0.62239   0.59118   0.00000  Uiso   1.00
O886   O     0.31427   0.79071   0.50000   0.00000  Uiso   1.00
O887   O     0.18573   0.70928   0.50000   0.00000  Uiso   1.00
O888   O     0.25000   0.79071   0.42946   0.00000  Uiso   1.00
O889   O     0.25000   0.70929   0.57054   0.00000  Uiso   1.00
O890   O     0.25000   0.79071   0.57054   0.00000  Uiso   1.00
O891   O     0.25000   0.70929   0.42946   0.00000  Uiso   1.00
O892   O     0.28778   0.63034   0.57771   0.00000  Uiso   1.00
S893   S     0.11773   0.84822   0.53932   0.00000  Uiso   1.00
S894   S     0.37867   0.68515   0.42275   0.00000  Uiso   1.00
S895   S     0.38240   0.81898   0.57763   0.00000  Uiso   1.00
S896   S     0.12190   0.65318   0.55278   0.00000  Uiso   1.00
C897   C     0.66570   0.74959   0.50726   0.00000  Uiso   1.00
C898   C     0.77388   0.94712   0.53469   0.00000  Uiso   1.00
C899   C     0.74950   0.74984   0.40686   0.00000  Uiso   1.00
C900   C     0.74967   0.75013   0.59311   0.00000  Uiso   1.00
C901   C     0.74896   0.52707   0.50023   0.00000  Uiso   1.00
C902   C     0.74902   0.97247   0.49986   0.00000  Uiso   1.00
C903   C     0.74943   0.74977   0.35514   0.00000  Uiso   1.00
C904   C     0.74948   0.75016   0.64482   0.00000  Uiso   1.00
C905   C     0.54902   0.78975   0.50972   0.00000  Uiso   1.00
C906   C     0.95392   0.71889   0.47259   0.00000  Uiso   1.00
C907   C     0.95445   0.77476   0.54238   0.00000  Uiso   1.00
C908   C     0.83532   0.75028   0.50015   0.00000  Uiso   1.00
C909   C     0.54813   0.70343   0.52528   0.00000  Uiso   1.00
C910   C     0.59433   0.79179   0.51955   0.00000  Uiso   1.00
C911   C     0.90745   0.71990   0.46947   0.00000  Uiso   1.00
C912   C     0.90850   0.77781   0.53840   0.00000  Uiso   1.00
C913   C     0.59468   0.70472   0.52907   0.00000  Uiso   1.00
C914   C     0.61811   0.74860   0.51957   0.00000  Uiso   1.00
C915   C     0.88438   0.75012   0.50210   0.00000  Uiso   1.00
C916   C     0.52566   0.74587   0.51310   0.00000  Uiso   1.00
C917   C     0.97709   0.74648   0.50885   0.00000  Uiso   1.00
C918   C     0.83372   0.62304   0.57809   0.00000  Uiso   1.00
C919   C     0.76787   0.60512   0.53902   0.00000  Uiso   1.00
C920   C     0.85656   0.66084   0.61096   0.00000  Uiso   1.00
C921   C     0.69598   0.88275   0.38465   0.00000  Uiso   1.00
C922   C     0.64924   0.89866   0.37228   0.00000  Uiso   1.00
C923   C     0.67475   0.62333   0.40955   0.00000  Uiso   1.00
C924   C     0.66372   0.63554   0.35662   0.00000  Uiso   1.00
C925   C     0.77557   0.88882   0.62143   0.00000  Uiso   1.00
C926   C     0.81387   0.90922   0.65305   0.00000  Uiso   1.00
C927   C     0.52456   0.84082   0.45077   0.00000  Uiso   1.00
C928   C     0.51265   0.89291   0.44277   0.00000  Uiso   1.00
C929   C     0.99779   0.71079   0.40629   0.00000  Uiso   1.00
C930   C     0.72571   0.89366   0.46459   0.00000  Uiso   1.00
C931   C     0.52356   0.67490   0.37691   0.00000  Uiso   1.00
C932   C     0.99127   0.77747   0.61708   0.00000  Uiso   1.00
C933   C     0.51411   0.81137   0.65428   0.00000  Uiso   1.00
C934   C     0.50082   0.65572   0.56963   0.00000  Uiso   1.00
C935   C     0.98373   0.60433   0.57442   0.00000  Uiso   1.00
C936   C     0.73292   0.60348   0.46026   0.00000  Uiso   1.00
C937   C     0.77096   0.89667   0.53696   0.00000  Uiso   1.00
C938   C     0.76506   0.55454   0.54079   0.00000  Uiso   1.00
C939   C     0.72344   0.94463   0.46571   0.00000  Uiso   1.00
C940   C     0.73404   0.55288   0.45935   0.00000  Uiso   1.00
Cu941  Cu    0.75000   0.79821   0.50000   0.00000  Uiso   1.00
Cu942  Cu    0.75000   0.70178   0.50000   0.00000  Uiso   1.00
H943   H     0.77610   0.53771   0.57423   0.00000  Uiso   1.00
H944   H     0.70293   0.85225   0.35984   0.00000  Uiso   1.00
H945   H     0.72038   0.91173   0.37641   0.00000  Uiso   1.00
H946   H     0.63993   0.92851   0.39681   0.00000  Uiso   1.00
H947   H     0.64709   0.91097   0.33377   0.00000  Uiso   1.00
H948   H     0.62558   0.86815   0.37658   0.00000  Uiso   1.00
H949   H     0.65875   0.65024   0.43282   0.00000  Uiso   1.00
H950   H     0.66064   0.58691   0.41669   0.00000  Uiso   1.00
H951   H     0.67869   0.60912   0.66505   0.00000  Uiso   1.00
H952   H     0.62740   0.63463   0.35036   0.00000  Uiso   1.00
H953   H     0.67656   0.67210   0.34844   0.00000  Uiso   1.00
H954   H     0.70082   0.96201   0.44080   0.00000  Uiso   1.00
H955   H     0.76196   0.85716   0.64044   0.00000  Uiso   1.00
H956   H     0.74865   0.91546   0.61928   0.00000  Uiso   1.00
H957   H     0.82999   0.93991   0.63464   0.00000  Uiso   1.00
H958   H     0.80164   0.92176   0.35544   0.00000  Uiso   1.00
H959   H     0.83856   0.88110   0.65999   0.00000  Uiso   1.00
H960   H     0.99829   0.81770   0.43298   0.00000  Uiso   1.00
H961   H     0.55659   0.83460   0.43297   0.00000  Uiso   1.00
H962   H     0.53829   0.91701   0.46028   0.00000  Uiso   1.00
H963   H     0.51053   0.90042   0.40294   0.00000  Uiso   1.00
H964   H     0.98030   0.90021   0.45894   0.00000  Uiso   1.00
H965   H     0.72398   0.53453   0.42567   0.00000  Uiso   1.00
H966   H     0.52191   0.73818   0.42063   0.00000  Uiso   1.00
H967   H     0.97346   0.72844   0.38156   0.00000  Uiso   1.00
H968   H     0.50071   0.64831   0.35849   0.00000  Uiso   1.00
H969   H     0.54271   0.69410   0.34891   0.00000  Uiso   1.00
H970   H     0.54696   0.65581   0.40154   0.00000  Uiso   1.00
H971   H     0.51549   0.75010   0.60738   0.00000  Uiso   1.00
H972   H     0.96254   0.75957   0.63422   0.00000  Uiso   1.00
H973   H     0.99012   0.83676   0.33586   0.00000  Uiso   1.00
H974   H     0.52896   0.79063   0.35136   0.00000  Uiso   1.00
H975   H     0.54093   0.83198   0.63680   0.00000  Uiso   1.00
H976   H     0.79509   0.96569   0.56132   0.00000  Uiso   1.00
H977   H     0.97156   0.67870   0.56810   0.00000  Uiso   1.00
H978   H     0.52097   0.66542   0.60298   0.00000  Uiso   1.00
H979   H     0.51158   0.57916   0.57603   0.00000  Uiso   1.00
H980   H     0.96483   0.60084   0.60841   0.00000  Uiso   1.00
H981   H     0.96166   0.59461   0.54248   0.00000  Uiso   1.00
H982   H     0.67545   0.87344   0.58115   0.00000  Uiso   1.00
H983   H     0.91747   0.62923   0.39045   0.00000  Uiso   1.00
H984   H     0.89944   0.88019   0.53366   0.00000  Uiso   1.00
H985   H     0.60582   0.59222   0.59755   0.00000  Uiso   1.00
H986   H     0.84747   0.62631   0.54087   0.00000  Uiso   1.00
H987   H     0.84137   0.58705   0.59295   0.00000  Uiso   1.00
H988   H     0.84384   0.65819   0.64848   0.00000  Uiso   1.00
H989   H     0.89269   0.65528   0.61220   0.00000  Uiso   1.00
H990   H     0.85009   0.69723   0.59670   0.00000  Uiso   1.00
N991   N     0.75000   0.62934   0.50000   0.00000  Uiso   1.00
N992   N     0.75000   0.87065   0.50000   0.00000  Uiso   1.00
O993   O     0.68573   0.79071   0.50000   0.00000  Uiso   1.00
O994   O     0.69862   0.86565   0.43324   0.00000  Uiso   1.00
O995   O     0.72090   0.62644   0.41754   0.00000  Uiso   1.00
O996   O     0.79091   0.87298   0.57557   0.00000  Uiso   1.00
O997   O     0.52679   0.83196   0.50151   0.00000  Uiso   1.00
O998   O     0.97625   0.68647   0.44418   0.00000  Uiso   1.00
O999   O     0.97785   0.80413   0.57576   0.00000  Uiso   1.00
O1000  O     0.52576   0.65940   0.52681   0.00000  Uiso   1.00
O1001  O     0.63033   0.87651   0.49529   0.00000  Uiso   1.00
O1002  O     0.58435   0.87602   0.56683   0.00000  Uiso   1.00
O1003  O     0.66207   0.84090   0.57680   0.00000  Uiso   1.00
O1004  O     0.81427   0.70928   0.50000   0.00000  Uiso   1.00
O1005  O     0.85433   0.64398   0.44561   0.00000  Uiso   1.00
O1006  O     0.84586   0.71634   0.39684   0.00000  Uiso   1.00
O1007  O     0.91209   0.66275   0.38058   0.00000  Uiso   1.00
O1008  O     0.84121   0.79633   0.59678   0.00000  Uiso   1.00
O1009  O     0.91076   0.83526   0.62093   0.00000  Uiso   1.00
O1010  O     0.87050   0.86729   0.54381   0.00000  Uiso   1.00
O1011  O     0.63291   0.62025   0.51133   0.00000  Uiso   1.00
O1012  O     0.66343   0.66798   0.58077   0.00000  Uiso   1.00
O1013  O     0.59006   0.62239   0.59118   0.00000  Uiso   1.00
O1014  O     0.81427   0.79071   0.50000   0.00000  Uiso   1.00
O1015  O     0.68573   0.70928   0.50000   0.00000  Uiso   1.00
O1016  O     0.75000   0.79071   0.42946   0.00000  Uiso   1.00
O1017  O     0.75000   0.70929   0.57054   0.00000  Uiso   1.00
O1018  O     0.75000   0.79071   0.57054   0.00000  Uiso   1.00
O1019  O     0.75000   0.70929   0.42946   0.00000  Uiso   1.00
O1020  O     0.78778   0.63034   0.57771   0.00000  Uiso   1.00
S1021  S     0.61773   0.84822   0.53932   0.00000  Uiso   1.00
S1022  S     0.87867   0.68515   0.42275   0.00000  Uiso   1.00
S1023  S     0.88240   0.81898   0.57763   0.00000  Uiso   1.00
S1024  S     0.62190   0.65318   0.55278   0.00000  Uiso   1.00
C1025  C     0.16570   0.24959   0.84060   0.00000  Uiso   1.00
C1026  C     0.27388   0.44712   0.86803   0.00000  Uiso   1.00
C1027  C     0.24950   0.24984   0.74020   0.00000  Uiso   1.00
C1028  C     0.24967   0.25013   0.92645   0.00000  Uiso   1.00
C1029  C     0.24896   0.02707   0.83356   0.00000  Uiso   1.00
C1030  C     0.24902   0.47247   0.83320   0.00000  Uiso   1.00
C1031  C     0.24943   0.24977   0.68847   0.00000  Uiso   1.00
C1032  C     0.24948   0.25016   0.97815   0.00000  Uiso   1.00
C1033  C     0.04902   0.28975   0.84305   0.00000  Uiso   1.00
C1034  C     0.45392   0.21889   0.80592   0.00000  Uiso   1.00
C1035  C     0.45445   0.27476   0.87572   0.00000  Uiso   1.00
C1036  C     0.33532   0.25028   0.83348   0.00000  Uiso   1.00
C1037  C     0.04813   0.20343   0.85862   0.00000  Uiso   1.00
C1038  C     0.09433   0.29179   0.85289   0.00000  Uiso   1.00
C1039  C     0.40745   0.21990   0.80280   0.00000  Uiso   1.00
C1040  C     0.40850   0.27781   0.87174   0.00000  Uiso   1.00
C1041  C     0.09468   0.20472   0.86240   0.00000  Uiso   1.00
C1042  C     0.11811   0.24860   0.85290   0.00000  Uiso   1.00
C1043  C     0.38438   0.25012   0.83544   0.00000  Uiso   1.00
C1044  C     0.02566   0.24587   0.84644   0.00000  Uiso   1.00
C1045  C     0.47709   0.24648   0.84218   0.00000  Uiso   1.00
C1046  C     0.33372   0.12304   0.91142   0.00000  Uiso   1.00
C1047  C     0.26787   0.10512   0.87236   0.00000  Uiso   1.00
C1048  C     0.35656   0.16084   0.94429   0.00000  Uiso   1.00
C1049  C     0.19598   0.38275   0.71798   0.00000  Uiso   1.00
C1050  C     0.14924   0.39866   0.70562   0.00000  Uiso   1.00
C1051  C     0.17475   0.12333   0.74288   0.00000  Uiso   1.00
C1052  C     0.16372   0.13554   0.68995   0.00000  Uiso   1.00
C1053  C     0.27557   0.38882   0.95476   0.00000  Uiso   1.00
C1054  C     0.31387   0.40922   0.98638   0.00000  Uiso   1.00
C1055  C     0.02456   0.34082   0.78410   0.00000  Uiso   1.00
C1056  C     0.01265   0.39291   0.77610   0.00000  Uiso   1.00
C1057  C     0.49779   0.21079   0.73962   0.00000  Uiso   1.00
C1058  C     0.22571   0.39366   0.79792   0.00000  Uiso   1.00
C1059  C     0.02356   0.17490   0.71025   0.00000  Uiso   1.00
C1060  C     0.49127   0.27747   0.95041   0.00000  Uiso   1.00
C1061  C     0.01411   0.31137   0.98761   0.00000  Uiso   1.00
C1062  C     0.00082   0.15572   0.90296   0.00000  Uiso   1.00
C1063  C     0.48373   0.10433   0.90775   0.00000  Uiso   1.00
C1064  C     0.23292   0.10348   0.79360   0.00000  Uiso   1.00
C1065  C     0.27096   0.39667   0.87030   0.00000  Uiso   1.00
C1066  C     0.26506   0.05454   0.87412   0.00000  Uiso   1.00
C1067  C     0.22344   0.44463   0.79904   0.00000  Uiso   1.00
C1068  C     0.23404   0.05288   0.79268   0.00000  Uiso   1.00
Cu1069 Cu    0.25000   0.29821   0.83333   0.00000  Uiso   1.00
Cu1070 Cu    0.25000   0.20178   0.83333   0.00000  Uiso   1.00
H1071  H     0.27610   0.03771   0.90757   0.00000  Uiso   1.00
H1072  H     0.20293   0.35225   0.69318   0.00000  Uiso   1.00
H1073  H     0.22038   0.41173   0.70974   0.00000  Uiso   1.00
H1074  H     0.13993   0.42851   0.73014   0.00000  Uiso   1.00
H1075  H     0.14709   0.41097   0.66710   0.00000  Uiso   1.00
H1076  H     0.12558   0.36815   0.70992   0.00000  Uiso   1.00
H1077  H     0.15875   0.15024   0.76616   0.00000  Uiso   1.00
H1078  H     0.16064   0.08691   0.75002   0.00000  Uiso   1.00
H1079  H     0.17869   0.10912   0.99838   0.00000  Uiso   1.00
H1080  H     0.12740   0.13463   0.68369   0.00000  Uiso   1.00
H1081  H     0.17656   0.17210   0.68178   0.00000  Uiso   1.00
H1082  H     0.20082   0.46201   0.77413   0.00000  Uiso   1.00
H1083  H     0.26196   0.35716   0.97377   0.00000  Uiso   1.00
H1084  H     0.24865   0.41546   0.95261   0.00000  Uiso   1.00
H1085  H     0.32999   0.43991   0.96798   0.00000  Uiso   1.00
H1086  H     0.30164   0.42176   0.68878   0.00000  Uiso   1.00
H1087  H     0.33856   0.38110   0.99332   0.00000  Uiso   1.00
H1088  H     0.49829   0.31770   0.76631   0.00000  Uiso   1.00
H1089  H     0.05659   0.33460   0.76630   0.00000  Uiso   1.00
H1090  H     0.03829   0.41701   0.79362   0.00000  Uiso   1.00
H1091  H     0.01053   0.40042   0.73628   0.00000  Uiso   1.00
H1092  H     0.48030   0.40021   0.79227   0.00000  Uiso   1.00
H1093  H     0.22398   0.03453   0.75900   0.00000  Uiso   1.00
H1094  H     0.02191   0.23818   0.75396   0.00000  Uiso   1.00
H1095  H     0.47346   0.22844   0.71489   0.00000  Uiso   1.00
H1096  H     0.00071   0.14831   0.69182   0.00000  Uiso   1.00
H1097  H     0.04271   0.19410   0.68225   0.00000  Uiso   1.00
H1098  H     0.04696   0.15581   0.73487   0.00000  Uiso   1.00
H1099  H     0.01549   0.25010   0.94072   0.00000  Uiso   1.00
H1100  H     0.46254   0.25957   0.96755   0.00000  Uiso   1.00
H1101  H     0.49012   0.33676   0.66919   0.00000  Uiso   1.00
H1102  H     0.02896   0.29063   0.68469   0.00000  Uiso   1.00
H1103  H     0.04093   0.33198   0.97014   0.00000  Uiso   1.00
H1104  H     0.29509   0.46569   0.89465   0.00000  Uiso   1.00
H1105  H     0.47156   0.17870   0.90143   0.00000  Uiso   1.00
H1106  H     0.02097   0.16542   0.93631   0.00000  Uiso   1.00
H1107  H     0.01158   0.07916   0.90937   0.00000  Uiso   1.00
H1108  H     0.46483   0.10084   0.94175   0.00000  Uiso   1.00
H1109  H     0.46166   0.09461   0.87582   0.00000  Uiso   1.00
H1110  H     0.17545   0.37344   0.91448   0.00000  Uiso   1.00
H1111  H     0.41747   0.12923   0.72379   0.00000  Uiso   1.00
H1112  H     0.39944   0.38019   0.86699   0.00000  Uiso   1.00
H1113  H     0.10582   0.09222   0.93089   0.00000  Uiso   1.00
H1114  H     0.34747   0.12631   0.87421   0.00000  Uiso   1.00
H1115  H     0.34137   0.08705   0.92628   0.00000  Uiso   1.00
H1116  H     0.34384   0.15819   0.98182   0.00000  Uiso   1.00
H1117  H     0.39269   0.15528   0.94554   0.00000  Uiso   1.00
H1118  H     0.35009   0.19723   0.93004   0.00000  Uiso   1.00
N1119  N     0.25000   0.12934   0.83333   0.00000  Uiso   1.00
N1120  N     0.25000   0.37065   0.83333   0.00000  Uiso   1.00
O1121  O     0.18573   0.29071   0.83334   0.00000  Uiso   1.00
O1122  O     0.19862   0.36565   0.76657   0.00000  Uiso   1.00
O1123  O     0.22090   0.12644   0.75087   0.00000  Uiso   1.00
O1124  O     0.29091   0.37298   0.90890   0.00000  Uiso   1.00
O1125  O     0.02679   0.33196   0.83484   0.00000  Uiso   1.00
O1126  O     0.47625   0.18647   0.77751   0.00000  Uiso   1.00
O1127  O     0.47785   0.30413   0.90909   0.00000  Uiso   1.00
O1128  O     0.02576   0.15940   0.86014   0.00000  Uiso   1.00
O1129  O     0.13033   0.37651   0.82862   0.00000  Uiso   1.00
O1130  O     0.08435   0.37602   0.90017   0.00000  Uiso   1.00
O1131  O     0.16207   0.34090   0.91014   0.00000  Uiso   1.00
O1132  O     0.31427   0.20928   0.83333   0.00000  Uiso   1.00
O1133  O     0.35433   0.14398   0.77894   0.00000  Uiso   1.00
O1134  O     0.34586   0.21634   0.73017   0.00000  Uiso   1.00
O1135  O     0.41209   0.16275   0.71391   0.00000  Uiso   1.00
O1136  O     0.34121   0.29633   0.93011   0.00000  Uiso   1.00
O1137  O     0.41076   0.33526   0.95427   0.00000  Uiso   1.00
O1138  O     0.37050   0.36729   0.87715   0.00000  Uiso   1.00
O1139  O     0.13291   0.12025   0.84467   0.00000  Uiso   1.00
O1140  O     0.16343   0.16798   0.91411   0.00000  Uiso   1.00
O1141  O     0.09006   0.12239   0.92451   0.00000  Uiso   1.00
O1142  O     0.31427   0.29071   0.83333   0.00000  Uiso   1.00
O1143  O     0.18573   0.20928   0.83334   0.00000  Uiso   1.00
O1144  O     0.25000   0.29071   0.76280   0.00000  Uiso   1.00
O1145  O     0.25000   0.20929   0.90387   0.00000  Uiso   1.00
O1146  O     0.25000   0.29071   0.90387   0.00000  Uiso   1.00
O1147  O     0.25000   0.20929   0.76280   0.00000  Uiso   1.00
O1148  O     0.28778   0.13034   0.91105   0.00000  Uiso   1.00
S1149  S     0.11773   0.34822   0.87265   0.00000  Uiso   1.00
S1150  S     0.37867   0.18515   0.75608   0.00000  Uiso   1.00
S1151  S     0.38240   0.31898   0.91096   0.00000  Uiso   1.00
S1152  S     0.12190   0.15318   0.88612   0.00000  Uiso   1.00
C1153  C     0.66570   0.24959   0.84060   0.00000  Uiso   1.00
C1154  C     0.77388   0.44712   0.86803   0.00000  Uiso   1.00
C1155  C     0.74950   0.24984   0.74020   0.00000  Uiso   1.00
C1156  C     0.74967   0.25013   0.92645   0.00000  Uiso   1.00
C1157  C     0.74896   0.02707   0.83356   0.00000  Uiso   1.00
C1158  C     0.74902   0.47247   0.83320   0.00000  Uiso   1.00
C1159  C     0.74943   0.24977   0.68847   0.00000  Uiso   1.00
C1160  C     0.74948   0.25016   0.97815   0.00000  Uiso   1.00
C1161  C     0.54902   0.28975   0.84305   0.00000  Uiso   1.00
C1162  C     0.95392   0.21889   0.80592   0.00000  Uiso   1.00
C1163  C     0.95445   0.27476   0.87572   0.00000  Uiso   1.00
C1164  C     0.83532   0.25028   0.83348   0.00000  Uiso   1.00
C1165  C     0.54813   0.20343   0.85862   0.00000  Uiso   1.00
C1166  C     0.59433   0.29179   0.85289   0.00000  Uiso   1.00
C1167  C     0.90745   0.21990   0.80280   0.00000  Uiso   1.00
C1168  C     0.90850   0.27781   0.87174   0.00000  Uiso   1.00
C1169  C     0.59468   0.20472   0.86240   0.00000  Uiso   1.00
C1170  C     0.61811   0.24860   0.85290   0.00000  Uiso   1.00
C1171  C     0.88438   0.25012   0.83544   0.00000  Uiso   1.00
C1172  C     0.52566   0.24587   0.84644   0.00000  Uiso   1.00
C1173  C     0.97709   0.24648   0.84218   0.00000  Uiso   1.00
C1174  C     0.83372   0.12304   0.91142   0.00000  Uiso   1.00
C1175  C     0.76787   0.10512   0.87236   0.00000  Uiso   1.00
C1176  C     0.85656   0.16084   0.94429   0.00000  Uiso   1.00
C1177  C     0.69598   0.38275   0.71798   0.00000  Uiso   1.00
C1178  C     0.64924   0.39866   0.70562   0.00000  Uiso   1.00
C1179  C     0.67475   0.12333   0.74288   0.00000  Uiso   1.00
C1180  C     0.66372   0.13554   0.68995   0.00000  Uiso   1.00
C1181  C     0.77557   0.38882   0.95476   0.00000  Uiso   1.00
C1182  C     0.81387   0.40922   0.98638   0.00000  Uiso   1.00
C1183  C     0.52456   0.34082   0.78410   0.00000  Uiso   1.00
C1184  C     0.51265   0.39291   0.77610   0.00000  Uiso   1.00
C1185  C     0.99779   0.21079   0.73962   0.00000  Uiso   1.00
C1186  C     0.72571   0.39366   0.79792   0.00000  Uiso   1.00
C1187  C     0.52356   0.17490   0.71025   0.00000  Uiso   1.00
C1188  C     0.99127   0.27747   0.95041   0.00000  Uiso   1.00
C1189  C     0.51411   0.31137   0.98761   0.00000  Uiso   1.00
C1190  C     0.50082   0.15572   0.90296   0.00000  Uiso   1.00
C1191  C     0.98373   0.10433   0.90775   0.00000  Uiso   1.00
C1192  C     0.73292   0.10348   0.79360   0.00000  Uiso   1.00
C1193  C     0.77096   0.39667   0.87030   0.00000  Uiso   1.00
C1194  C     0.76506   0.05454   0.87412   0.00000  Uiso   1.00
C1195  C     0.72344   0.44463   0.79904   0.00000  Uiso   1.00
C1196  C     0.73404   0.05288   0.79268   0.00000  Uiso   1.00
Cu1197 Cu    0.75000   0.29821   0.83333   0.00000  Uiso   1.00
Cu1198 Cu    0.75000   0.20178   0.83333   0.00000  Uiso   1.00
H1199  H     0.77610   0.03771   0.90757   0.00000  Uiso   1.00
H1200  H     0.70293   0.35225   0.69318   0.00000  Uiso   1.00
H1201  H     0.72038   0.41173   0.70974   0.00000  Uiso   1.00
H1202  H     0.63993   0.42851   0.73014   0.00000  Uiso   1.00
H1203  H     0.64709   0.41097   0.66710   0.00000  Uiso   1.00
H1204  H     0.62558   0.36815   0.70992   0.00000  Uiso   1.00
H1205  H     0.65875   0.15024   0.76616   0.00000  Uiso   1.00
H1206  H     0.66064   0.08691   0.75002   0.00000  Uiso   1.00
H1207  H     0.67869   0.10912   0.99838   0.00000  Uiso   1.00
H1208  H     0.62740   0.13463   0.68369   0.00000  Uiso   1.00
H1209  H     0.67656   0.17210   0.68178   0.00000  Uiso   1.00
H1210  H     0.70082   0.46201   0.77413   0.00000  Uiso   1.00
H1211  H     0.76196   0.35716   0.97377   0.00000  Uiso   1.00
H1212  H     0.74865   0.41546   0.95261   0.00000  Uiso   1.00
H1213  H     0.82999   0.43991   0.96798   0.00000  Uiso   1.00
H1214  H     0.80164   0.42176   0.68878   0.00000  Uiso   1.00
H1215  H     0.83856   0.38110   0.99332   0.00000  Uiso   1.00
H1216  H     0.99829   0.31770   0.76631   0.00000  Uiso   1.00
H1217  H     0.55659   0.33460   0.76630   0.00000  Uiso   1.00
H1218  H     0.53829   0.41701   0.79362   0.00000  Uiso   1.00
H1219  H     0.51053   0.40042   0.73628   0.00000  Uiso   1.00
H1220  H     0.98030   0.40021   0.79227   0.00000  Uiso   1.00
H1221  H     0.72398   0.03453   0.75900   0.00000  Uiso   1.00
H1222  H     0.52191   0.23818   0.75396   0.00000  Uiso   1.00
H1223  H     0.97346   0.22844   0.71489   0.00000  Uiso   1.00
H1224  H     0.50071   0.14831   0.69182   0.00000  Uiso   1.00
H1225  H     0.54271   0.19410   0.68225   0.00000  Uiso   1.00
H1226  H     0.54696   0.15581   0.73487   0.00000  Uiso   1.00
H1227  H     0.51549   0.25010   0.94072   0.00000  Uiso   1.00
H1228  H     0.96254   0.25957   0.96755   0.00000  Uiso   1.00
H1229  H     0.99012   0.33676   0.66919   0.00000  Uiso   1.00
H1230  H     0.52896   0.29063   0.68469   0.00000  Uiso   1.00
H1231  H     0.54093   0.33198   0.97014   0.00000  Uiso   1.00
H1232  H     0.79509   0.46569   0.89465   0.00000  Uiso   1.00
H1233  H     0.97156   0.17870   0.90143   0.00000  Uiso   1.00
H1234  H     0.52097   0.16542   0.93631   0.00000  Uiso   1.00
H1235  H     0.51158   0.07916   0.90937   0.00000  Uiso   1.00
H1236  H     0.96483   0.10084   0.94175   0.00000  Uiso   1.00
H1237  H     0.96166   0.09461   0.87582   0.00000  Uiso   1.00
H1238  H     0.67545   0.37344   0.91448   0.00000  Uiso   1.00
H1239  H     0.91747   0.12923   0.72379   0.00000  Uiso   1.00
H1240  H     0.89944   0.38019   0.86699   0.00000  Uiso   1.00
H1241  H     0.60582   0.09222   0.93089   0.00000  Uiso   1.00
H1242  H     0.84747   0.12631   0.87421   0.00000  Uiso   1.00
H1243  H     0.84137   0.08705   0.92628   0.00000  Uiso   1.00
H1244  H     0.84384   0.15819   0.98182   0.00000  Uiso   1.00
H1245  H     0.89269   0.15528   0.94554   0.00000  Uiso   1.00
H1246  H     0.85009   0.19723   0.93004   0.00000  Uiso   1.00
N1247  N     0.75000   0.12934   0.83333   0.00000  Uiso   1.00
N1248  N     0.75000   0.37065   0.83333   0.00000  Uiso   1.00
O1249  O     0.68573   0.29071   0.83334   0.00000  Uiso   1.00
O1250  O     0.69862   0.36565   0.76657   0.00000  Uiso   1.00
O1251  O     0.72090   0.12644   0.75087   0.00000  Uiso   1.00
O1252  O     0.79091   0.37298   0.90890   0.00000  Uiso   1.00
O1253  O     0.52679   0.33196   0.83484   0.00000  Uiso   1.00
O1254  O     0.97625   0.18647   0.77751   0.00000  Uiso   1.00
O1255  O     0.97785   0.30413   0.90909   0.00000  Uiso   1.00
O1256  O     0.52576   0.15940   0.86014   0.00000  Uiso   1.00
O1257  O     0.63033   0.37651   0.82862   0.00000  Uiso   1.00
O1258  O     0.58435   0.37602   0.90017   0.00000  Uiso   1.00
O1259  O     0.66207   0.34090   0.91014   0.00000  Uiso   1.00
O1260  O     0.81427   0.20928   0.83333   0.00000  Uiso   1.00
O1261  O     0.85433   0.14398   0.77894   0.00000  Uiso   1.00
O1262  O     0.84586   0.21634   0.73017   0.00000  Uiso   1.00
O1263  O     0.91209   0.16275   0.71391   0.00000  Uiso   1.00
O1264  O     0.84121   0.29633   0.93011   0.00000  Uiso   1.00
O1265  O     0.91076   0.33526   0.95427   0.00000  Uiso   1.00
O1266  O     0.87050   0.36729   0.87715   0.00000  Uiso   1.00
O1267  O     0.63291   0.12025   0.84467   0.00000  Uiso   1.00
O1268  O     0.66343   0.16798   0.91411   0.00000  Uiso   1.00
O1269  O     0.59006   0.12239   0.92451   0.00000  Uiso   1.00
O1270  O     0.81427   0.29071   0.83333   0.00000  Uiso   1.00
O1271  O     0.68573   0.20928   0.83334   0.00000  Uiso   1.00
O1272  O     0.75000   0.29071   0.76280   0.00000  Uiso   1.00
O1273  O     0.75000   0.20929   0.90387   0.00000  Uiso   1.00
O1274  O     0.75000   0.29071   0.90387   0.00000  Uiso   1.00
O1275  O     0.75000   0.20929   0.76280   0.00000  Uiso   1.00
O1276  O     0.78778   0.13034   0.91105   0.00000  Uiso   1.00
S1277  S     0.61773   0.34822   0.87265   0.00000  Uiso   1.00
S1278  S     0.87867   0.18515   0.75608   0.00000  Uiso   1.00
S1279  S     0.88240   0.31898   0.91096   0.00000  Uiso   1.00
S1280  S     0.62190   0.15318   0.88612   0.00000  Uiso   1.00
C1281  C     0.16570   0.74959   0.84060   0.00000  Uiso   1.00
C1282  C     0.27388   0.94712   0.86803   0.00000  Uiso   1.00
C1283  C     0.24950   0.74984   0.74020   0.00000  Uiso   1.00
C1284  C     0.24967   0.75013   0.92645   0.00000  Uiso   1.00
C1285  C     0.24896   0.52707   0.83356   0.00000  Uiso   1.00
C1286  C     0.24902   0.97247   0.83320   0.00000  Uiso   1.00
C1287  C     0.24943   0.74977   0.68847   0.00000  Uiso   1.00
C1288  C     0.24948   0.75016   0.97815   0.00000  Uiso   1.00
C1289  C     0.04902   0.78975   0.84305   0.00000  Uiso   1.00
C1290  C     0.45392   0.71889   0.80592   0.00000  Uiso   1.00
C1291  C     0.45445   0.77476   0.87572   0.00000  Uiso   1.00
C1292  C     0.33532   0.75028   0.83348   0.00000  Uiso   1.00
C1293  C     0.04813   0.70343   0.85862   0.00000  Uiso   1.00
C1294  C     0.09433   0.79179   0.85289   0.00000  Uiso   1.00
C1295  C     0.40745   0.71990   0.80280   0.00000  Uiso   1.00
C1296  C     0.40850   0.77781   0.87174   0.00000  Uiso   1.00
C1297  C     0.09468   0.70472   0.86240   0.00000  Uiso   1.00
C1298  C     0.11811   0.74860   0.85290   0.00000  Uiso   1.00
C1299  C     0.38438   0.75012   0.83544   0.00000  Uiso   1.00
C1300  C     0.02566   0.74587   0.84644   0.00000  Uiso   1.00
C1301  C     0.47709   0.74648   0.84218   0.00000  Uiso   1.00
C1302  C     0.33372   0.62304   0.91142   0.00000  Uiso   1.00
C1303  C     0.26787   0.60512   0.87236   0.00000  Uiso   1.00
C1304  C     0.35656   0.66084   0.94429   0.00000  Uiso   1.00
C1305  C     0.19598   0.88275   0.71798   0.00000  Uiso   1.00
C1306  C     0.14924   0.89866   0.70562   0.00000  Uiso   1.00
C1307  C     0.17475   0.62333   0.74288   0.00000  Uiso   1.00
C1308  C     0.16372   0.63554   0.68995   0.00000  Uiso   1.00
C1309  C     0.27557   0.88882   0.95476   0.00000  Uiso   1.00
C1310  C     0.31387   0.90922   0.98638   0.00000  Uiso   1.00
C1311  C     0.02456   0.84082   0.78410   0.00000  Uiso   1.00
C1312  C     0.01265   0.89291   0.77610   0.00000  Uiso   1.00
C1313  C     0.49779   0.71079   0.73962   0.00000  Uiso   1.00
C1314  C     0.22571   0.89366   0.79792   0.00000  Uiso   1.00
C1315  C     0.02356   0.67490   0.71025   0.00000  Uiso   1.00
C1316  C     0.49127   0.77747   0.95041   0.00000  Uiso   1.00
C1317  C     0.01411   0.81137   0.98761   0.00000  Uiso   1.00
C1318  C     0.00082   0.65572   0.90296   0.00000  Uiso   1.00
C1319  C     0.48373   0.60433   0.90775   0.00000  Uiso   1.00
C1320  C     0.23292   0.60348   0.79360   0.00000  Uiso   1.00
C1321  C     0.27096   0.89667   0.87030   0.00000  Uiso   1.00
C1322  C     0.26506   0.55454   0.87412   0.00000  Uiso   1.00
C1323  C     0.22344   0.94463   0.79904   0.00000  Uiso   1.00
C1324  C     0.23404   0.55288   0.79268   0.00000  Uiso   1.00
Cu1325 Cu    0.25000   0.79821   0.83333   0.00000  Uiso   1.00
Cu1326 Cu    0.25000   0.70178   0.83333   0.00000  Uiso   1.00
H1327  H     0.27610   0.53771   0.90757   0.00000  Uiso   1.00
H1328  H     0.20293   0.85225   0.69318   0.00000  Uiso   1.00
H1329  H     0.22038   0.91173   0.70974   0.00000  Uiso   1.00
H1330  H     0.13993   0.92851   0.73014   0.00000  Uiso   1.00
H1331  H     0.14709   0.91097   0.66710   0.00000  Uiso   1.00
H1332  H     0.12558   0.86815   0.70992   0.00000  Uiso   1.00
H1333  H     0.15875   0.65024   0.76616   0.00000  Uiso   1.00
H1334  H     0.16064   0.58691   0.75002   0.00000  Uiso   1.00
H1335  H     0.17869   0.60912   0.99838   0.00000  Uiso   1.00
H1336  H     0.12740   0.63463   0.68369   0.00000  Uiso   1.00
H1337  H     0.17656   0.67210   0.68178   0.00000  Uiso   1.00
H1338  H     0.20082   0.96201   0.77413   0.00000  Uiso   1.00
H1339  H     0.26196   0.85716   0.97377   0.00000  Uiso   1.00
H1340  H     0.24865   0.91546   0.95261   0.00000  Uiso   1.00
H1341  H     0.32999   0.93991   0.96798   0.00000  Uiso   1.00
H1342  H     0.30164   0.92176   0.68878   0.00000  Uiso   1.00
H1343  H     0.33856   0.88110   0.99332   0.00000  Uiso   1.00
H1344  H     0.49829   0.81770   0.76631   0.00000  Uiso   1.00
H1345  H     0.05659   0.83460   0.76630   0.00000  Uiso   1.00
H1346  H     0.03829   0.91701   0.79362   0.00000  Uiso   1.00
H1347  H     0.01053   0.90042   0.73628   0.00000  Uiso   1.00
H1348  H     0.48030   0.90021   0.79227   0.00000  Uiso   1.00
H1349  H     0.22398   0.53453   0.75900   0.00000  Uiso   1.00
H1350  H     0.02191   0.73818   0.75396   0.00000  Uiso   1.00
H1351  H     0.47346   0.72844   0.71489   0.00000  Uiso   1.00
H1352  H     0.00071   0.64831   0.69182   0.00000  Uiso   1.00
H1353  H     0.04271   0.69410   0.68225   0.00000  Uiso   1.00
H1354  H     0.04696   0.65581   0.73487   0.00000  Uiso   1.00
H1355  H     0.01549   0.75010   0.94072   0.00000  Uiso   1.00
H1356  H     0.46254   0.75957   0.96755   0.00000  Uiso   1.00
H1357  H     0.49012   0.83676   0.66919   0.00000  Uiso   1.00
H1358  H     0.02896   0.79063   0.68469   0.00000  Uiso   1.00
H1359  H     0.04093   0.83198   0.97014   0.00000  Uiso   1.00
H1360  H     0.29509   0.96569   0.89465   0.00000  Uiso   1.00
H1361  H     0.47156   0.67870   0.90143   0.00000  Uiso   1.00
H1362  H     0.02097   0.66542   0.93631   0.00000  Uiso   1.00
H1363  H     0.01158   0.57916   0.90937   0.00000  Uiso   1.00
H1364  H     0.46483   0.60084   0.94175   0.00000  Uiso   1.00
H1365  H     0.46166   0.59461   0.87582   0.00000  Uiso   1.00
H1366  H     0.17545   0.87344   0.91448   0.00000  Uiso   1.00
H1367  H     0.41747   0.62923   0.72379   0.00000  Uiso   1.00
H1368  H     0.39944   0.88019   0.86699   0.00000  Uiso   1.00
H1369  H     0.10582   0.59222   0.93089   0.00000  Uiso   1.00
H1370  H     0.34747   0.62631   0.87421   0.00000  Uiso   1.00
H1371  H     0.34137   0.58705   0.92628   0.00000  Uiso   1.00
H1372  H     0.34384   0.65819   0.98182   0.00000  Uiso   1.00
H1373  H     0.39269   0.65528   0.94554   0.00000  Uiso   1.00
H1374  H     0.35009   0.69723   0.93004   0.00000  Uiso   1.00
N1375  N     0.25000   0.62934   0.83333   0.00000  Uiso   1.00
N1376  N     0.25000   0.87065   0.83333   0.00000  Uiso   1.00
O1377  O     0.18573   0.79071   0.83334   0.00000  Uiso   1.00
O1378  O     0.19862   0.86565   0.76657   0.00000  Uiso   1.00
O1379  O     0.22090   0.62644   0.75087   0.00000  Uiso   1.00
O1380  O     0.29091   0.87298   0.90890   0.00000  Uiso   1.00
O1381  O     0.02679   0.83196   0.83484   0.00000  Uiso   1.00
O1382  O     0.47625   0.68647   0.77751   0.00000  Uiso   1.00
O1383  O     0.47785   0.80413   0.90909   0.00000  Uiso   1.00
O1384  O     0.02576   0.65940   0.86014   0.00000  Uiso   1.00
O1385  O     0.13033   0.87651   0.82862   0.00000  Uiso   1.00
O1386  O     0.08435   0.87602   0.90017   0.00000  Uiso   1.00
O1387  O     0.16207   0.84090   0.91014   0.00000  Uiso   1.00
O1388  O     0.31427   0.70928   0.83333   0.00000  Uiso   1.00
O1389  O     0.35433   0.64398   0.77894   0.00000  Uiso   1.00
O1390  O     0.34586   0.71634   0.73017   0.00000  Uiso   1.00
O1391  O     0.41209   0.66275   0.71391   0.00000  Uiso   1.00
O1392  O     0.34121   0.79633   0.93011   0.00000  Uiso   1.00
O1393  O     0.41076   0.83526   0.95427   0.00000  Uiso   1.00
O1394  O     0.37050   0.86729   0.87715   0.00000  Uiso   1.00
O1395  O     0.13291   0.62025   0.84467   0.00000  Uiso   1.00
O1396  O     0.16343   0.66798   0.91411   0.00000  Uiso   1.00
O1397  O     0.09006   0.62239   0.92451   0.00000  Uiso   1.00
O1398  O     0.31427   0.79071   0.83333   0.00000  Uiso   1.00
O1399  O     0.18573   0.70928   0.83334   0.00000  Uiso   1.00
O1400  O     0.25000   0.79071   0.76280   0.00000  Uiso   1.00
O1401  O     0.25000   0.70929   0.90387   0.00000  Uiso   1.00
O1402  O     0.25000   0.79071   0.90387   0.00000  Uiso   1.00
O1403  O     0.25000   0.70929   0.76280   0.00000  Uiso   1.00
O1404  O     0.28778   0.63034   0.91105   0.00000  Uiso   1.00
S1405  S     0.11773   0.84822   0.87265   0.00000  Uiso   1.00
S1406  S     0.37867   0.68515   0.75608   0.00000  Uiso   1.00
S1407  S     0.38240   0.81898   0.91096   0.00000  Uiso   1.00
S1408  S     0.12190   0.65318   0.88612   0.00000  Uiso   1.00
C1409  C     0.66570   0.74959   0.84060   0.00000  Uiso   1.00
C1410  C     0.77388   0.94712   0.86803   0.00000  Uiso   1.00
C1411  C     0.74950   0.74984   0.74020   0.00000  Uiso   1.00
C1412  C     0.74967   0.75013   0.92645   0.00000  Uiso   1.00
C1413  C     0.74896   0.52707   0.83356   0.00000  Uiso   1.00
C1414  C     0.74902   0.97247   0.83320   0.00000  Uiso   1.00
C1415  C     0.74943   0.74977   0.68847   0.00000  Uiso   1.00
C1416  C     0.74948   0.75016   0.97815   0.00000  Uiso   1.00
C1417  C     0.54902   0.78975   0.84305   0.00000  Uiso   1.00
C1418  C     0.95392   0.71889   0.80592   0.00000  Uiso   1.00
C1419  C     0.95445   0.77476   0.87572   0.00000  Uiso   1.00
C1420  C     0.83532   0.75028   0.83348   0.00000  Uiso   1.00
C1421  C     0.54813   0.70343   0.85862   0.00000  Uiso   1.00
C1422  C     0.59433   0.79179   0.85289   0.00000  Uiso   1.00
C1423  C     0.90745   0.71990   0.80280   0.00000  Uiso   1.00
C1424  C     0.90850   0.77781   0.87174   0.00000  Uiso   1.00
C1425  C     0.59468   0.70472   0.86240   0.00000  Uiso   1.00
C1426  C     0.61811   0.74860   0.85290   0.00000  Uiso   1.00
C1427  C     0.88438   0.75012   0.83544   0.00000  Uiso   1.00
C1428  C     0.52566   0.74587   0.84644   0.00000  Uiso   1.00
C1429  C     0.97709   0.74648   0.84218   0.00000  Uiso   1.00
C1430  C     0.83372   0.62304   0.91142   0.00000  Uiso   1.00
C1431  C     0.76787   0.60512   0.87236   0.00000  Uiso   1.00
C1432  C     0.85656   0.66084   0.94429   0.00000  Uiso   1.00
C1433  C     0.69598   0.88275   0.71798   0.00000  Uiso   1.00
C1434  C     0.64924   0.89866   0.70562   0.00000  Uiso   1.00
C1435  C     0.67475   0.62333   0.74288   0.00000  Uiso   1.00
C1436  C     0.66372   0.63554   0.68995   0.00000  Uiso   1.00
C1437  C     0.77557   0.88882   0.95476   0.00000  Uiso   1.00
C1438  C     0.81387   0.90922   0.98638   0.00000  Uiso   1.00
C1439  C     0.52456   0.84082   0.78410   0.00000  Uiso   1.00
C1440  C     0.51265   0.89291   0.77610   0.00000  Uiso   1.00
C1441  C     0.99779   0.71079   0.73962   0.00000  Uiso   1.00
C1442  C     0.72571   0.89366   0.79792   0.00000  Uiso   1.00
C1443  C     0.52356   0.67490   0.71025   0.00000  Uiso   1.00
C1444  C     0.99127   0.77747   0.95041   0.00000  Uiso   1.00
C1445  C     0.51411   0.81137   0.98761   0.00000  Uiso   1.00
C1446  C     0.50082   0.65572   0.90296   0.00000  Uiso   1.00
C1447  C     0.98373   0.60433   0.90775   0.00000  Uiso   1.00
C1448  C     0.73292   0.60348   0.79360   0.00000  Uiso   1.00
C1449  C     0.77096   0.89667   0.87030   0.00000  Uiso   1.00
C1450  C     0.76506   0.55454   0.87412   0.00000  Uiso   1.00
C1451  C     0.72344   0.94463   0.79904   0.00000  Uiso   1.00
C1452  C     0.73404   0.55288   0.79268   0.00000  Uiso   1.00
Cu1453 Cu    0.75000   0.79821   0.83333   0.00000  Uiso   1.00
Cu1454 Cu    0.75000   0.70178   0.83333   0.00000  Uiso   1.00
H1455  H     0.77610   0.53771   0.90757   0.00000  Uiso   1.00
H1456  H     0.70293   0.85225   0.69318   0.00000  Uiso   1.00
H1457  H     0.72038   0.91173   0.70974   0.00000  Uiso   1.00
H1458  H     0.63993   0.92851   0.73014   0.00000  Uiso   1.00
H1459  H     0.64709   0.91097   0.66710   0.00000  Uiso   1.00
H1460  H     0.62558   0.86815   0.70992   0.00000  Uiso   1.00
H1461  H     0.65875   0.65024   0.76616   0.00000  Uiso   1.00
H1462  H     0.66064   0.58691   0.75002   0.00000  Uiso   1.00
H1463  H     0.67869   0.60912   0.99838   0.00000  Uiso   1.00
H1464  H     0.62740   0.63463   0.68369   0.00000  Uiso   1.00
H1465  H     0.67656   0.67210   0.68178   0.00000  Uiso   1.00
H1466  H     0.70082   0.96201   0.77413   0.00000  Uiso   1.00
H1467  H     0.76196   0.85716   0.97377   0.00000  Uiso   1.00
H1468  H     0.74865   0.91546   0.95261   0.00000  Uiso   1.00
H1469  H     0.82999   0.93991   0.96798   0.00000  Uiso   1.00
H1470  H     0.80164   0.92176   0.68878   0.00000  Uiso   1.00
H1471  H     0.83856   0.88110   0.99332   0.00000  Uiso   1.00
H1472  H     0.99829   0.81770   0.76631   0.00000  Uiso   1.00
H1473  H     0.55659   0.83460   0.76630   0.00000  Uiso   1.00
H1474  H     0.53829   0.91701   0.79362   0.00000  Uiso   1.00
H1475  H     0.51053   0.90042   0.73628   0.00000  Uiso   1.00
H1476  H     0.98030   0.90021   0.79227   0.00000  Uiso   1.00
H1477  H     0.72398   0.53453   0.75900   0.00000  Uiso   1.00
H1478  H     0.52191   0.73818   0.75396   0.00000  Uiso   1.00
H1479  H     0.97346   0.72844   0.71489   0.00000  Uiso   1.00
H1480  H     0.50071   0.64831   0.69182   0.00000  Uiso   1.00
H1481  H     0.54271   0.69410   0.68225   0.00000  Uiso   1.00
H1482  H     0.54696   0.65581   0.73487   0.00000  Uiso   1.00
H1483  H     0.51549   0.75010   0.94072   0.00000  Uiso   1.00
H1484  H     0.96254   0.75957   0.96755   0.00000  Uiso   1.00
H1485  H     0.99012   0.83676   0.66919   0.00000  Uiso   1.00
H1486  H     0.52896   0.79063   0.68469   0.00000  Uiso   1.00
H1487  H     0.54093   0.83198   0.97014   0.00000  Uiso   1.00
H1488  H     0.79509   0.96569   0.89465   0.00000  Uiso   1.00
H1489  H     0.97156   0.67870   0.90143   0.00000  Uiso   1.00
H1490  H     0.52097   0.66542   0.93631   0.00000  Uiso   1.00
H1491  H     0.51158   0.57916   0.90937   0.00000  Uiso   1.00
H1492  H     0.96483   0.60084   0.94175   0.00000  Uiso   1.00
H1493  H     0.96166   0.59461   0.87582   0.00000  Uiso   1.00
H1494  H     0.67545   0.87344   0.91448   0.00000  Uiso   1.00
H1495  H     0.91747   0.62923   0.72379   0.00000  Uiso   1.00
H1496  H     0.89944   0.88019   0.86699   0.00000  Uiso   1.00
H1497  H     0.60582   0.59222   0.93089   0.00000  Uiso   1.00
H1498  H     0.84747   0.62631   0.87421   0.00000  Uiso   1.00
H1499  H     0.84137   0.58705   0.92628   0.00000  Uiso   1.00
H1500  H     0.84384   0.65819   0.98182   0.00000  Uiso   1.00
H1501  H     0.89269   0.65528   0.94554   0.00000  Uiso   1.00
H1502  H     0.85009   0.69723   0.93004   0.00000  Uiso   1.00
N1503  N     0.75000   0.62934   0.83333   0.00000  Uiso   1.00
N1504  N     0.75000   0.87065   0.83333   0.00000  Uiso   1.00
O1505  O     0.68573   0.79071   0.83334   0.00000  Uiso   1.00
O1506  O     0.69862   0.86565   0.76657   0.00000  Uiso   1.00
O1507  O     0.72090   0.62644   0.75087   0.00000  Uiso   1.00
O1508  O     0.79091   0.87298   0.90890   0.00000  Uiso   1.00
O1509  O     0.52679   0.83196   0.83484   0.00000  Uiso   1.00
O1510  O     0.97625   0.68647   0.77751   0.00000  Uiso   1.00
O1511  O     0.97785   0.80413   0.90909   0.00000  Uiso   1.00
O1512  O     0.52576   0.65940   0.86014   0.00000  Uiso   1.00
O1513  O     0.63033   0.87651   0.82862   0.00000  Uiso   1.00
O1514  O     0.58435   0.87602   0.90017   0.00000  Uiso   1.00
O1515  O     0.66207   0.84090   0.91014   0.00000  Uiso   1.00
O1516  O     0.81427   0.70928   0.83333   0.00000  Uiso   1.00
O1517  O     0.85433   0.64398   0.77894   0.00000  Uiso   1.00
O1518  O     0.84586   0.71634   0.73017   0.00000  Uiso   1.00
O1519  O     0.91209   0.66275   0.71391   0.00000  Uiso   1.00
O1520  O     0.84121   0.79633   0.93011   0.00000  Uiso   1.00
O1521  O     0.91076   0.83526   0.95427   0.00000  Uiso   1.00
O1522  O     0.87050   0.86729   0.87715   0.00000  Uiso   1.00
O1523  O     0.63291   0.62025   0.84467   0.00000  Uiso   1.00
O1524  O     0.66343   0.66798   0.91411   0.00000  Uiso   1.00
O1525  O     0.59006   0.62239   0.92451   0.00000  Uiso   1.00
O1526  O     0.81427   0.79071   0.83333   0.00000  Uiso   1.00
O1527  O     0.68573   0.70928   0.83334   0.00000  Uiso   1.00
O1528  O     0.75000   0.79071   0.76280   0.00000  Uiso   1.00
O1529  O     0.75000   0.70929   0.90387   0.00000  Uiso   1.00
O1530  O     0.75000   0.79071   0.90387   0.00000  Uiso   1.00
O1531  O     0.75000   0.70929   0.76280   0.00000  Uiso   1.00
O1532  O     0.78778   0.63034   0.91105   0.00000  Uiso   1.00
S1533  S     0.61773   0.84822   0.87265   0.00000  Uiso   1.00
S1534  S     0.87867   0.68515   0.75608   0.00000  Uiso   1.00
S1535  S     0.88240   0.81898   0.91096   0.00000  Uiso   1.00
S1536  S     0.62190   0.65318   0.88612   0.00000  Uiso   1.00
loop_
_geom_bond_atom_site_label_1
_geom_bond_atom_site_label_2
_geom_bond_distance
_geom_bond_site_symmetry_2
_ccdc_geom_bond_type
C1     C18     1.493   .     S
C1     O119    1.305   .     A
C1     O97     1.306   .     A
C2     C41     1.409   .     A
C2     C6      1.402   .     A
C2     H80     1.077   .     S
C3     C7      1.413   .     S
C3     O123    1.294   .     A
C3     O120    1.289   .     A
C4     C8      1.413   .     S
C4     O121    1.289   .     A
C4     O122    1.294   .     A
C5     C42     1.409   .     A
C5     C44     1.403   .     A
C5     C262    1.522   1_545 S
C6     C43     1.410   .     A
C6     C261    1.522   .     S
C7     C1032   1.193   1_554 S
C8     C519    1.193   .     S
C9     C14     1.393   .     A
C9     C20     1.406   .     A
C9     O101    1.385   .     S
C10    C15     1.411   .     A
C10    C21     1.409   .     A
C10    O102    1.386   .     S
C11    C21     1.407   .     A
C11    C16     1.400   .     A
C11    O103    1.388   .     S
C12    O108    1.297   .     A
C12    O118    1.307   .     A
C12    C19     1.488   .     S
C13    O104    1.391   .     S
C13    C20     1.416   .     A
C13    C17     1.413   .     A
C14    C18     1.417   .     A
C14    S125    1.783   .     S
C15    C19     1.429   .     A
C15    S126    1.788   .     S
C16    C19     1.425   .     A
C16    S127    1.777   .     S
C17    C18     1.432   .     A
C17    S128    1.790   .     S
C20    C149    1.476   1_455 S
C21    C148    1.476   .     S
C22    H91     1.112   .     S
C22    H90     1.115   .     S
C22    C24     1.519   .     S
C22    O124    1.413   .     S
C23    C42     1.412   .     A
C23    O124    1.380   .     S
C23    N95     1.372   .     A
C24    H94     1.109   .     S
C24    H92     1.109   .     S
C24    H93     1.110   .     S
C25    C26     1.524   .     S
C25    H48     1.109   .     S
C25    H49     1.114   .     S
C25    O98     1.415   .     S
C26    H50     1.109   .     S
C26    H52     1.111   .     S
C26    H51     1.110   .     S
C27    H54     1.115   .     S
C27    O99     1.412   .     S
C27    H53     1.108   .     S
C27    C28     1.518   .     S
C28    H56     1.110   .     S
C28    H57     1.110   .     S
C28    H1079   1.111   1_554 S
C29    H59     1.108   .     S
C29    O100    1.419   .     S
C29    C30     1.523   .     S
C29    H60     1.116   .     S
C30    H63     1.110   .     S
C30    H61     1.109   .     S
C30    H574    1.110   .     S
C31    O101    1.410   .     S
C31    C32     1.520   .     S
C31    H65     1.116   .     S
C31    H192    1.111   1_455 S
C32    H67     1.110   .     S
C32    H66     1.111   .     S
C32    H196    1.111   1_455 S
C33    O102    1.413   .     S
C33    H71     1.111   .     S
C33    C163    1.520   .     S
C33    H198    1.107   .     S
C34    N96     1.371   .     A
C34    O98     1.391   .     S
C34    C43     1.424   .     A
C35    H74     1.111   .     S
C35    H72     1.110   .     S
C35    H73     1.110   .     S
C35    C161    1.520   1_455 S
C36    O103    1.412   .     S
C36    H76     1.114   .     S
C36    C165    1.521   .     S
C36    H203    1.106   .     S
C37    H79     1.109   .     S
C37    C164    1.521   1_455 S
C37    H717    1.110   1_455 S
C37    H590    1.107   .     S
C38    O104    1.416   .     S
C38    H82     1.109   .     S
C38    C167    1.521   1_455 S
C38    H209    1.106   1_455 S
C39    H84     1.111   .     S
C39    H85     1.111   .     S
C39    C166    1.521   .     S
C39    H211    1.110   .     S
C40    O99     1.380   .     S
C40    N95     1.378   .     A
C40    C44     1.411   .     A
C41    N96     1.369   .     A
C41    O100    1.381   .     S
C42    H47     1.079   .     S
C43    H58     1.077   .     S
C44    H69     1.080   .     S
Cu45   O118    1.966   .     S
Cu45   Cu46    2.688   .     S
Cu45   O120    1.936   .     S
Cu45   O122    1.940   .     S
Cu45   O97     1.957   .     S
Cu45   N96     2.019   .     S
Cu46   N95     2.019   .     S
Cu46   O108    1.957   .     S
Cu46   O121    1.936   .     S
Cu46   O123    1.940   .     S
Cu46   O119    1.966   .     S
H55    C540    1.111   .     S
H62    C1054   1.110   1_554 S
H64    C159    1.111   .     S
H68    C160    1.111   .     S
H70    C161    1.107   1_455 S
H75    C164    1.106   1_455 S
H77    C1189   1.110   1_554 S
H78    C1061   1.107   1_554 S
H81    C166    1.106   .     S
H83    C167    1.110   1_455 S
H86    O107    0.990   .     S
H87    O111    0.991   .     S
H88    O114    0.991   .     S
H89    O117    0.991   .     S
O105   S125    1.500   .     D
O106   S125    1.503   .     D
O107   S125    1.683   .     S
O109   S126    1.503   .     D
O110   S126    1.502   .     D
O111   S126    1.682   .     S
O112   S127    1.500   .     D
O113   S127    1.502   .     D
O114   S127    1.680   .     S
O115   S128    1.500   .     D
O116   S128    1.502   .     D
O117   S128    1.678   .     S
C129   C146    1.493   .     S
C129   O247    1.305   .     A
C129   O225    1.306   .     A
C130   C169    1.409   .     A
C130   C134    1.402   .     A
C130   H208    1.077   .     S
C131   C135    1.413   .     S
C131   O251    1.294   .     A
C131   O248    1.289   .     A
C132   C136    1.413   .     S
C132   O249    1.289   .     A
C132   O250    1.294   .     A
C133   C170    1.409   .     A
C133   C172    1.403   .     A
C133   C390    1.522   1_545 S
C134   C171    1.410   .     A
C134   C389    1.522   .     S
C135   C1160   1.193   1_554 S
C136   C647    1.193   .     S
C137   C142    1.393   .     A
C137   C148    1.406   .     A
C137   O229    1.385   .     S
C138   C143    1.411   .     A
C138   C149    1.409   .     A
C138   O230    1.386   .     S
C139   C149    1.407   .     A
C139   C144    1.400   .     A
C139   O231    1.388   .     S
C140   O236    1.297   .     A
C140   O246    1.307   .     A
C140   C147    1.488   .     S
C141   O232    1.391   .     S
C141   C148    1.416   .     A
C141   C145    1.413   .     A
C142   C146    1.417   .     A
C142   S253    1.783   .     S
C143   C147    1.429   .     A
C143   S254    1.788   .     S
C144   C147    1.425   .     A
C144   S255    1.777   .     S
C145   C146    1.432   .     A
C145   S256    1.790   .     S
C149   C20     1.476   1_655 S
C150   H219    1.112   .     S
C150   H218    1.115   .     S
C150   C152    1.519   .     S
C150   O252    1.413   .     S
C151   C170    1.412   .     A
C151   O252    1.380   .     S
C151   N223    1.372   .     A
C152   H222    1.109   .     S
C152   H220    1.109   .     S
C152   H221    1.110   .     S
C153   C154    1.524   .     S
C153   H176    1.109   .     S
C153   H177    1.114   .     S
C153   O226    1.415   .     S
C154   H178    1.109   .     S
C154   H180    1.111   .     S
C154   H179    1.110   .     S
C155   H182    1.115   .     S
C155   O227    1.412   .     S
C155   H181    1.108   .     S
C155   C156    1.518   .     S
C156   H184    1.110   .     S
C156   H185    1.110   .     S
C156   H1207   1.111   1_554 S
C157   H187    1.108   .     S
C157   O228    1.419   .     S
C157   C158    1.523   .     S
C157   H188    1.116   .     S
C158   H191    1.110   .     S
C158   H189    1.109   .     S
C158   H702    1.110   .     S
C159   O229    1.410   .     S
C159   C160    1.520   .     S
C159   H193    1.116   .     S
C160   H195    1.110   .     S
C160   H194    1.111   .     S
C161   O230    1.413   .     S
C161   H199    1.111   .     S
C161   C35     1.520   1_655 S
C161   H70     1.107   1_655 S
C162   N224    1.371   .     A
C162   O226    1.391   .     S
C162   C171    1.424   .     A
C163   H202    1.111   .     S
C163   H200    1.110   .     S
C163   H201    1.110   .     S
C164   O231    1.412   .     S
C164   H204    1.114   .     S
C164   C37     1.521   1_655 S
C164   H75     1.106   1_655 S
C165   H207    1.109   .     S
C165   H589    1.110   .     S
C165   H718    1.107   .     S
C166   O232    1.416   .     S
C166   H210    1.109   .     S
C167   H212    1.111   .     S
C167   H213    1.111   .     S
C167   C38     1.521   1_655 S
C167   H83     1.110   1_655 S
C168   O227    1.380   .     S
C168   N223    1.378   .     A
C168   C172    1.411   .     A
C169   N224    1.369   .     A
C169   O228    1.381   .     S
C170   H175    1.079   .     S
C171   H186    1.077   .     S
C172   H197    1.080   .     S
Cu173  O246    1.966   .     S
Cu173  Cu174   2.688   .     S
Cu173  O248    1.936   .     S
Cu173  O250    1.940   .     S
Cu173  O225    1.957   .     S
Cu173  N224    2.019   .     S
Cu174  N223    2.019   .     S
Cu174  O236    1.957   .     S
Cu174  O249    1.936   .     S
Cu174  O251    1.940   .     S
Cu174  O247    1.966   .     S
H183   C668    1.111   .     S
H190   C1182   1.110   1_554 S
H192   C31     1.111   1_655 S
H196   C32     1.111   1_655 S
H205   C1061   1.110   1_654 S
H206   C1189   1.107   1_554 S
H209   C38     1.106   1_655 S
H214   O235    0.990   .     S
H215   O239    0.991   .     S
H216   O242    0.991   .     S
H217   O245    0.991   .     S
O233   S253    1.500   .     D
O234   S253    1.503   .     D
O235   S253    1.683   .     S
O237   S254    1.503   .     D
O238   S254    1.502   .     D
O239   S254    1.682   .     S
O240   S255    1.500   .     D
O241   S255    1.502   .     D
O242   S255    1.680   .     S
O243   S256    1.500   .     D
O244   S256    1.502   .     D
O245   S256    1.678   .     S
C257   C274    1.493   .     S
C257   O375    1.305   .     A
C257   O353    1.306   .     A
C258   C297    1.409   .     A
C258   C262    1.402   .     A
C258   H336    1.077   .     S
C259   C263    1.413   .     S
C259   O379    1.294   .     A
C259   O376    1.289   .     A
C260   C264    1.413   .     S
C260   O377    1.289   .     A
C260   O378    1.294   .     A
C261   C298    1.409   .     A
C261   C300    1.403   .     A
C262   C299    1.410   .     A
C262   C5      1.522   1_565 S
C263   C1288   1.193   1_554 S
C264   C775    1.193   .     S
C265   C270    1.393   .     A
C265   C276    1.406   .     A
C265   O357    1.385   .     S
C266   C271    1.411   .     A
C266   C277    1.409   .     A
C266   O358    1.386   .     S
C267   C277    1.407   .     A
C267   C272    1.400   .     A
C267   O359    1.388   .     S
C268   O364    1.297   .     A
C268   O374    1.307   .     A
C268   C275    1.488   .     S
C269   O360    1.391   .     S
C269   C276    1.416   .     A
C269   C273    1.413   .     A
C270   C274    1.417   .     A
C270   S381    1.783   .     S
C271   C275    1.429   .     A
C271   S382    1.788   .     S
C272   C275    1.425   .     A
C272   S383    1.777   .     S
C273   C274    1.432   .     A
C273   S384    1.790   .     S
C276   C405    1.476   1_455 S
C277   C404    1.476   .     S
C278   H347    1.112   .     S
C278   H346    1.115   .     S
C278   C280    1.519   .     S
C278   O380    1.413   .     S
C279   C298    1.412   .     A
C279   O380    1.380   .     S
C279   N351    1.372   .     A
C280   H350    1.109   .     S
C280   H348    1.109   .     S
C280   H349    1.110   .     S
C281   C282    1.524   .     S
C281   H304    1.109   .     S
C281   H305    1.114   .     S
C281   O354    1.415   .     S
C282   H306    1.109   .     S
C282   H308    1.111   .     S
C282   H307    1.110   .     S
C283   H310    1.115   .     S
C283   O355    1.412   .     S
C283   H309    1.108   .     S
C283   C284    1.518   .     S
C284   H312    1.110   .     S
C284   H313    1.110   .     S
C284   H1335   1.111   1_554 S
C285   H315    1.108   .     S
C285   O356    1.419   .     S
C285   C286    1.523   .     S
C285   H316    1.116   .     S
C286   H319    1.110   .     S
C286   H317    1.109   .     S
C286   H830    1.110   .     S
C287   O357    1.410   .     S
C287   C288    1.520   .     S
C287   H321    1.116   .     S
C287   H448    1.111   1_455 S
C288   H323    1.110   .     S
C288   H322    1.111   .     S
C288   H452    1.111   1_455 S
C289   O358    1.413   .     S
C289   H327    1.111   .     S
C289   C419    1.520   .     S
C289   H454    1.107   .     S
C290   N352    1.371   .     A
C290   O354    1.391   .     S
C290   C299    1.424   .     A
C291   H330    1.111   .     S
C291   H328    1.110   .     S
C291   H329    1.110   .     S
C291   C417    1.520   1_455 S
C292   O359    1.412   .     S
C292   H332    1.114   .     S
C292   C421    1.521   .     S
C292   H459    1.106   .     S
C293   H335    1.109   .     S
C293   C420    1.521   1_455 S
C293   H973    1.110   1_455 S
C293   H846    1.107   .     S
C294   O360    1.416   .     S
C294   H338    1.109   .     S
C294   C423    1.521   1_455 S
C294   H465    1.106   1_455 S
C295   H340    1.111   .     S
C295   H341    1.111   .     S
C295   C422    1.521   .     S
C295   H467    1.110   .     S
C296   O355    1.380   .     S
C296   N351    1.378   .     A
C296   C300    1.411   .     A
C297   N352    1.369   .     A
C297   O356    1.381   .     S
C298   H303    1.079   .     S
C299   H314    1.077   .     S
C300   H325    1.080   .     S
Cu301  O374    1.966   .     S
Cu301  Cu302   2.688   .     S
Cu301  O376    1.936   .     S
Cu301  O378    1.940   .     S
Cu301  O353    1.957   .     S
Cu301  N352    2.019   .     S
Cu302  N351    2.019   .     S
Cu302  O364    1.957   .     S
Cu302  O377    1.936   .     S
Cu302  O379    1.940   .     S
Cu302  O375    1.966   .     S
H311   C796    1.111   .     S
H318   C1310   1.110   1_554 S
H320   C415    1.111   .     S
H324   C416    1.111   .     S
H326   C417    1.107   1_455 S
H331   C420    1.106   1_455 S
H333   C1445   1.110   1_554 S
H334   C1317   1.107   1_554 S
H337   C422    1.106   .     S
H339   C423    1.110   1_455 S
H342   O363    0.990   .     S
H343   O367    0.991   .     S
H344   O370    0.991   .     S
H345   O373    0.991   .     S
O361   S381    1.500   .     D
O362   S381    1.503   .     D
O363   S381    1.683   .     S
O365   S382    1.503   .     D
O366   S382    1.502   .     D
O367   S382    1.682   .     S
O368   S383    1.500   .     D
O369   S383    1.502   .     D
O370   S383    1.680   .     S
O371   S384    1.500   .     D
O372   S384    1.502   .     D
O373   S384    1.678   .     S
C385   C402    1.493   .     S
C385   O503    1.305   .     A
C385   O481    1.306   .     A
C386   C425    1.409   .     A
C386   C390    1.402   .     A
C386   H464    1.077   .     S
C387   C391    1.413   .     S
C387   O507    1.294   .     A
C387   O504    1.289   .     A
C388   C392    1.413   .     S
C388   O505    1.289   .     A
C388   O506    1.294   .     A
C389   C426    1.409   .     A
C389   C428    1.403   .     A
C390   C427    1.410   .     A
C390   C133    1.522   1_565 S
C391   C1416   1.193   1_554 S
C392   C903    1.193   .     S
C393   C398    1.393   .     A
C393   C404    1.406   .     A
C393   O485    1.385   .     S
C394   C399    1.411   .     A
C394   C405    1.409   .     A
C394   O486    1.386   .     S
C395   C405    1.407   .     A
C395   C400    1.400   .     A
C395   O487    1.388   .     S
C396   O492    1.297   .     A
C396   O502    1.307   .     A
C396   C403    1.488   .     S
C397   O488    1.391   .     S
C397   C404    1.416   .     A
C397   C401    1.413   .     A
C398   C402    1.417   .     A
C398   S509    1.783   .     S
C399   C403    1.429   .     A
C399   S510    1.788   .     S
C400   C403    1.425   .     A
C400   S511    1.777   .     S
C401   C402    1.432   .     A
C401   S512    1.790   .     S
C405   C276    1.476   1_655 S
C406   H475    1.112   .     S
C406   H474    1.115   .     S
C406   C408    1.519   .     S
C406   O508    1.413   .     S
C407   C426    1.412   .     A
C407   O508    1.380   .     S
C407   N479    1.372   .     A
C408   H478    1.109   .     S
C408   H476    1.109   .     S
C408   H477    1.110   .     S
C409   C410    1.524   .     S
C409   H432    1.109   .     S
C409   H433    1.114   .     S
C409   O482    1.415   .     S
C410   H434    1.109   .     S
C410   H436    1.111   .     S
C410   H435    1.110   .     S
C411   H438    1.115   .     S
C411   O483    1.412   .     S
C411   H437    1.108   .     S
C411   C412    1.518   .     S
C412   H440    1.110   .     S
C412   H441    1.110   .     S
C412   H1463   1.111   1_554 S
C413   H443    1.108   .     S
C413   O484    1.419   .     S
C413   C414    1.523   .     S
C413   H444    1.116   .     S
C414   H447    1.110   .     S
C414   H445    1.109   .     S
C414   H958    1.110   .     S
C415   O485    1.410   .     S
C415   C416    1.520   .     S
C415   H449    1.116   .     S
C416   H451    1.110   .     S
C416   H450    1.111   .     S
C417   O486    1.413   .     S
C417   H455    1.111   .     S
C417   C291    1.520   1_655 S
C417   H326    1.107   1_655 S
C418   N480    1.371   .     A
C418   O482    1.391   .     S
C418   C427    1.424   .     A
C419   H458    1.111   .     S
C419   H456    1.110   .     S
C419   H457    1.110   .     S
C420   O487    1.412   .     S
C420   H460    1.114   .     S
C420   C293    1.521   1_655 S
C420   H331    1.106   1_655 S
C421   H463    1.109   .     S
C421   H845    1.110   .     S
C421   H974    1.107   .     S
C422   O488    1.416   .     S
C422   H466    1.109   .     S
C423   H468    1.111   .     S
C423   H469    1.111   .     S
C423   C294    1.521   1_655 S
C423   H339    1.110   1_655 S
C424   O483    1.380   .     S
C424   N479    1.378   .     A
C424   C428    1.411   .     A
C425   N480    1.369   .     A
C425   O484    1.381   .     S
C426   H431    1.079   .     S
C427   H442    1.077   .     S
C428   H453    1.080   .     S
Cu429  O502    1.966   .     S
Cu429  Cu430   2.688   .     S
Cu429  O504    1.936   .     S
Cu429  O506    1.940   .     S
Cu429  O481    1.957   .     S
Cu429  N480    2.019   .     S
Cu430  N479    2.019   .     S
Cu430  O492    1.957   .     S
Cu430  O505    1.936   .     S
Cu430  O507    1.940   .     S
Cu430  O503    1.966   .     S
H439   C924    1.111   .     S
H446   C1438   1.110   1_554 S
H448   C287    1.111   1_655 S
H452   C288    1.111   1_655 S
H461   C1317   1.110   1_654 S
H462   C1445   1.107   1_554 S
H465   C294    1.106   1_655 S
H470   O491    0.990   .     S
H471   O495    0.991   .     S
H472   O498    0.991   .     S
H473   O501    0.991   .     S
O489   S509    1.500   .     D
O490   S509    1.503   .     D
O491   S509    1.683   .     S
O493   S510    1.503   .     D
O494   S510    1.502   .     D
O495   S510    1.682   .     S
O496   S511    1.500   .     D
O497   S511    1.502   .     D
O498   S511    1.680   .     S
O499   S512    1.500   .     D
O500   S512    1.502   .     D
O501   S512    1.678   .     S
C513   C530    1.493   .     S
C513   O631    1.305   .     A
C513   O609    1.306   .     A
C514   C553    1.409   .     A
C514   C518    1.402   .     A
C514   H592    1.077   .     S
C515   C519    1.413   .     S
C515   O635    1.294   .     A
C515   O632    1.289   .     A
C516   C520    1.413   .     S
C516   O633    1.289   .     A
C516   O634    1.294   .     A
C517   C554    1.409   .     A
C517   C556    1.403   .     A
C517   C774    1.522   1_545 S
C518   C555    1.410   .     A
C518   C773    1.522   .     S
C520   C1031   1.193   .     S
C521   C526    1.393   .     A
C521   C532    1.406   .     A
C521   O613    1.385   .     S
C522   C527    1.411   .     A
C522   C533    1.409   .     A
C522   O614    1.386   .     S
C523   C533    1.407   .     A
C523   C528    1.400   .     A
C523   O615    1.388   .     S
C524   O620    1.297   .     A
C524   O630    1.307   .     A
C524   C531    1.488   .     S
C525   O616    1.391   .     S
C525   C532    1.416   .     A
C525   C529    1.413   .     A
C526   C530    1.417   .     A
C526   S637    1.783   .     S
C527   C531    1.429   .     A
C527   S638    1.788   .     S
C528   C531    1.425   .     A
C528   S639    1.777   .     S
C529   C530    1.432   .     A
C529   S640    1.790   .     S
C532   C661    1.476   1_455 S
C533   C660    1.476   .     S
C534   H603    1.112   .     S
C534   H602    1.115   .     S
C534   C536    1.519   .     S
C534   O636    1.413   .     S
C535   C554    1.412   .     A
C535   O636    1.380   .     S
C535   N607    1.372   .     A
C536   H606    1.109   .     S
C536   H604    1.109   .     S
C536   H605    1.110   .     S
C537   C538    1.524   .     S
C537   H560    1.109   .     S
C537   H561    1.114   .     S
C537   O610    1.415   .     S
C538   H562    1.109   .     S
C538   H564    1.111   .     S
C538   H563    1.110   .     S
C539   H566    1.115   .     S
C539   O611    1.412   .     S
C539   H565    1.108   .     S
C539   C540    1.518   .     S
C540   H568    1.110   .     S
C540   H569    1.110   .     S
C541   H571    1.108   .     S
C541   O612    1.419   .     S
C541   C542    1.523   .     S
C541   H572    1.116   .     S
C542   H575    1.110   .     S
C542   H573    1.109   .     S
C542   H1086   1.110   .     S
C543   O613    1.410   .     S
C543   C544    1.520   .     S
C543   H577    1.116   .     S
C543   H704    1.111   1_455 S
C544   H579    1.110   .     S
C544   H578    1.111   .     S
C544   H708    1.111   1_455 S
C545   O614    1.413   .     S
C545   H583    1.111   .     S
C545   C675    1.520   .     S
C545   H710    1.107   .     S
C546   N608    1.371   .     A
C546   O610    1.391   .     S
C546   C555    1.424   .     A
C547   H586    1.111   .     S
C547   H584    1.110   .     S
C547   H585    1.110   .     S
C547   C673    1.520   1_455 S
C548   O615    1.412   .     S
C548   H588    1.114   .     S
C548   C677    1.521   .     S
C548   H715    1.106   .     S
C549   H591    1.109   .     S
C549   C676    1.521   1_455 S
C549   H1229   1.110   1_455 S
C549   H1102   1.107   .     S
C550   O616    1.416   .     S
C550   H594    1.109   .     S
C550   C679    1.521   1_455 S
C550   H721    1.106   1_455 S
C551   H596    1.111   .     S
C551   H597    1.111   .     S
C551   C678    1.521   .     S
C551   H723    1.110   .     S
C552   O611    1.380   .     S
C552   N607    1.378   .     A
C552   C556    1.411   .     A
C553   N608    1.369   .     A
C553   O612    1.381   .     S
C554   H559    1.079   .     S
C555   H570    1.077   .     S
C556   H581    1.080   .     S
Cu557  O630    1.966   .     S
Cu557  Cu558   2.688   .     S
Cu557  O632    1.936   .     S
Cu557  O634    1.940   .     S
Cu557  O609    1.957   .     S
Cu557  N608    2.019   .     S
Cu558  N607    2.019   .     S
Cu558  O620    1.957   .     S
Cu558  O633    1.936   .     S
Cu558  O635    1.940   .     S
Cu558  O631    1.966   .     S
H567   C1052   1.111   .     S
H576   C671    1.111   .     S
H580   C672    1.111   .     S
H582   C673    1.107   1_455 S
H587   C676    1.106   1_455 S
H593   C678    1.106   .     S
H595   C679    1.110   1_455 S
H598   O619    0.990   .     S
H599   O623    0.991   .     S
H600   O626    0.991   .     S
H601   O629    0.991   .     S
O617   S637    1.500   .     D
O618   S637    1.503   .     D
O619   S637    1.683   .     S
O621   S638    1.503   .     D
O622   S638    1.502   .     D
O623   S638    1.682   .     S
O624   S639    1.500   .     D
O625   S639    1.502   .     D
O626   S639    1.680   .     S
O627   S640    1.500   .     D
O628   S640    1.502   .     D
O629   S640    1.678   .     S
C641   C658    1.493   .     S
C641   O759    1.305   .     A
C641   O737    1.306   .     A
C642   C681    1.409   .     A
C642   C646    1.402   .     A
C642   H720    1.077   .     S
C643   C647    1.413   .     S
C643   O763    1.294   .     A
C643   O760    1.289   .     A
C644   C648    1.413   .     S
C644   O761    1.289   .     A
C644   O762    1.294   .     A
C645   C682    1.409   .     A
C645   C684    1.403   .     A
C645   C902    1.522   1_545 S
C646   C683    1.410   .     A
C646   C901    1.522   .     S
C648   C1159   1.193   .     S
C649   C654    1.393   .     A
C649   C660    1.406   .     A
C649   O741    1.385   .     S
C650   C655    1.411   .     A
C650   C661    1.409   .     A
C650   O742    1.386   .     S
C651   C661    1.407   .     A
C651   C656    1.400   .     A
C651   O743    1.388   .     S
C652   O748    1.297   .     A
C652   O758    1.307   .     A
C652   C659    1.488   .     S
C653   O744    1.391   .     S
C653   C660    1.416   .     A
C653   C657    1.413   .     A
C654   C658    1.417   .     A
C654   S765    1.783   .     S
C655   C659    1.429   .     A
C655   S766    1.788   .     S
C656   C659    1.425   .     A
C656   S767    1.777   .     S
C657   C658    1.432   .     A
C657   S768    1.790   .     S
C661   C532    1.476   1_655 S
C662   H731    1.112   .     S
C662   H730    1.115   .     S
C662   C664    1.519   .     S
C662   O764    1.413   .     S
C663   C682    1.412   .     A
C663   O764    1.380   .     S
C663   N735    1.372   .     A
C664   H734    1.109   .     S
C664   H732    1.109   .     S
C664   H733    1.110   .     S
C665   C666    1.524   .     S
C665   H688    1.109   .     S
C665   H689    1.114   .     S
C665   O738    1.415   .     S
C666   H690    1.109   .     S
C666   H692    1.111   .     S
C666   H691    1.110   .     S
C667   H694    1.115   .     S
C667   O739    1.412   .     S
C667   H693    1.108   .     S
C667   C668    1.518   .     S
C668   H696    1.110   .     S
C668   H697    1.110   .     S
C669   H699    1.108   .     S
C669   O740    1.419   .     S
C669   C670    1.523   .     S
C669   H700    1.116   .     S
C670   H703    1.110   .     S
C670   H701    1.109   .     S
C670   H1214   1.110   .     S
C671   O741    1.410   .     S
C671   C672    1.520   .     S
C671   H705    1.116   .     S
C672   H707    1.110   .     S
C672   H706    1.111   .     S
C673   O742    1.413   .     S
C673   H711    1.111   .     S
C673   C547    1.520   1_655 S
C673   H582    1.107   1_655 S
C674   N736    1.371   .     A
C674   O738    1.391   .     S
C674   C683    1.424   .     A
C675   H714    1.111   .     S
C675   H712    1.110   .     S
C675   H713    1.110   .     S
C676   O743    1.412   .     S
C676   H716    1.114   .     S
C676   C549    1.521   1_655 S
C676   H587    1.106   1_655 S
C677   H719    1.109   .     S
C677   H1101   1.110   .     S
C677   H1230   1.107   .     S
C678   O744    1.416   .     S
C678   H722    1.109   .     S
C679   H724    1.111   .     S
C679   H725    1.111   .     S
C679   C550    1.521   1_655 S
C679   H595    1.110   1_655 S
C680   O739    1.380   .     S
C680   N735    1.378   .     A
C680   C684    1.411   .     A
C681   N736    1.369   .     A
C681   O740    1.381   .     S
C682   H687    1.079   .     S
C683   H698    1.077   .     S
C684   H709    1.080   .     S
Cu685  O758    1.966   .     S
Cu685  Cu686   2.688   .     S
Cu685  O760    1.936   .     S
Cu685  O762    1.940   .     S
Cu685  O737    1.957   .     S
Cu685  N736    2.019   .     S
Cu686  N735    2.019   .     S
Cu686  O748    1.957   .     S
Cu686  O761    1.936   .     S
Cu686  O763    1.940   .     S
Cu686  O759    1.966   .     S
H695   C1180   1.111   .     S
H704   C543    1.111   1_655 S
H708   C544    1.111   1_655 S
H717   C37     1.110   1_655 S
H721   C550    1.106   1_655 S
H726   O747    0.990   .     S
H727   O751    0.991   .     S
H728   O754    0.991   .     S
H729   O757    0.991   .     S
O745   S765    1.500   .     D
O746   S765    1.503   .     D
O747   S765    1.683   .     S
O749   S766    1.503   .     D
O750   S766    1.502   .     D
O751   S766    1.682   .     S
O752   S767    1.500   .     D
O753   S767    1.502   .     D
O754   S767    1.680   .     S
O755   S768    1.500   .     D
O756   S768    1.502   .     D
O757   S768    1.678   .     S
C769   C786    1.493   .     S
C769   O887    1.305   .     A
C769   O865    1.306   .     A
C770   C809    1.409   .     A
C770   C774    1.402   .     A
C770   H848    1.077   .     S
C771   C775    1.413   .     S
C771   O891    1.294   .     A
C771   O888    1.289   .     A
C772   C776    1.413   .     S
C772   O889    1.289   .     A
C772   O890    1.294   .     A
C773   C810    1.409   .     A
C773   C812    1.403   .     A
C774   C811    1.410   .     A
C774   C517    1.522   1_565 S
C776   C1287   1.193   .     S
C777   C782    1.393   .     A
C777   C788    1.406   .     A
C777   O869    1.385   .     S
C778   C783    1.411   .     A
C778   C789    1.409   .     A
C778   O870    1.386   .     S
C779   C789    1.407   .     A
C779   C784    1.400   .     A
C779   O871    1.388   .     S
C780   O876    1.297   .     A
C780   O886    1.307   .     A
C780   C787    1.488   .     S
C781   O872    1.391   .     S
C781   C788    1.416   .     A
C781   C785    1.413   .     A
C782   C786    1.417   .     A
C782   S893    1.783   .     S
C783   C787    1.429   .     A
C783   S894    1.788   .     S
C784   C787    1.425   .     A
C784   S895    1.777   .     S
C785   C786    1.432   .     A
C785   S896    1.790   .     S
C788   C917    1.476   1_455 S
C789   C916    1.476   .     S
C790   H859    1.112   .     S
C790   H858    1.115   .     S
C790   C792    1.519   .     S
C790   O892    1.413   .     S
C791   C810    1.412   .     A
C791   O892    1.380   .     S
C791   N863    1.372   .     A
C792   H862    1.109   .     S
C792   H860    1.109   .     S
C792   H861    1.110   .     S
C793   C794    1.524   .     S
C793   H816    1.109   .     S
C793   H817    1.114   .     S
C793   O866    1.415   .     S
C794   H818    1.109   .     S
C794   H820    1.111   .     S
C794   H819    1.110   .     S
C795   H822    1.115   .     S
C795   O867    1.412   .     S
C795   H821    1.108   .     S
C795   C796    1.518   .     S
C796   H824    1.110   .     S
C796   H825    1.110   .     S
C797   H827    1.108   .     S
C797   O868    1.419   .     S
C797   C798    1.523   .     S
C797   H828    1.116   .     S
C798   H831    1.110   .     S
C798   H829    1.109   .     S
C798   H1342   1.110   .     S
C799   O869    1.410   .     S
C799   C800    1.520   .     S
C799   H833    1.116   .     S
C799   H960    1.111   1_455 S
C800   H835    1.110   .     S
C800   H834    1.111   .     S
C800   H964    1.111   1_455 S
C801   O870    1.413   .     S
C801   H839    1.111   .     S
C801   C931    1.520   .     S
C801   H966    1.107   .     S
C802   N864    1.371   .     A
C802   O866    1.391   .     S
C802   C811    1.424   .     A
C803   H842    1.111   .     S
C803   H840    1.110   .     S
C803   H841    1.110   .     S
C803   C929    1.520   1_455 S
C804   O871    1.412   .     S
C804   H844    1.114   .     S
C804   C933    1.521   .     S
C804   H971    1.106   .     S
C805   H847    1.109   .     S
C805   C932    1.521   1_455 S
C805   H1485   1.110   1_455 S
C805   H1358   1.107   .     S
C806   O872    1.416   .     S
C806   H850    1.109   .     S
C806   C935    1.521   1_455 S
C806   H977    1.106   1_455 S
C807   H852    1.111   .     S
C807   H853    1.111   .     S
C807   C934    1.521   .     S
C807   H979    1.110   .     S
C808   O867    1.380   .     S
C808   N863    1.378   .     A
C808   C812    1.411   .     A
C809   N864    1.369   .     A
C809   O868    1.381   .     S
C810   H815    1.079   .     S
C811   H826    1.077   .     S
C812   H837    1.080   .     S
Cu813  O886    1.966   .     S
Cu813  Cu814   2.688   .     S
Cu813  O888    1.936   .     S
Cu813  O890    1.940   .     S
Cu813  O865    1.957   .     S
Cu813  N864    2.019   .     S
Cu814  N863    2.019   .     S
Cu814  O876    1.957   .     S
Cu814  O889    1.936   .     S
Cu814  O891    1.940   .     S
Cu814  O887    1.966   .     S
H823   C1308   1.111   .     S
H832   C927    1.111   .     S
H836   C928    1.111   .     S
H838   C929    1.107   1_455 S
H843   C932    1.106   1_455 S
H849   C934    1.106   .     S
H851   C935    1.110   1_455 S
H854   O875    0.990   .     S
H855   O879    0.991   .     S
H856   O882    0.991   .     S
H857   O885    0.991   .     S
O873   S893    1.500   .     D
O874   S893    1.503   .     D
O875   S893    1.683   .     S
O877   S894    1.503   .     D
O878   S894    1.502   .     D
O879   S894    1.682   .     S
O880   S895    1.500   .     D
O881   S895    1.502   .     D
O882   S895    1.680   .     S
O883   S896    1.500   .     D
O884   S896    1.502   .     D
O885   S896    1.678   .     S
C897   C914    1.493   .     S
C897   O1015   1.305   .     A
C897   O993    1.306   .     A
C898   C937    1.409   .     A
C898   C902    1.402   .     A
C898   H976    1.077   .     S
C899   C903    1.413   .     S
C899   O1019   1.294   .     A
C899   O1016   1.289   .     A
C900   C904    1.413   .     S
C900   O1017   1.289   .     A
C900   O1018   1.294   .     A
C901   C938    1.409   .     A
C901   C940    1.403   .     A
C902   C939    1.410   .     A
C902   C645    1.522   1_565 S
C904   C1415   1.193   .     S
C905   C910    1.393   .     A
C905   C916    1.406   .     A
C905   O997    1.385   .     S
C906   C911    1.411   .     A
C906   C917    1.409   .     A
C906   O998    1.386   .     S
C907   C917    1.407   .     A
C907   C912    1.400   .     A
C907   O999    1.388   .     S
C908   O1004   1.297   .     A
C908   O1014   1.307   .     A
C908   C915    1.488   .     S
C909   O1000   1.391   .     S
C909   C916    1.416   .     A
C909   C913    1.413   .     A
C910   C914    1.417   .     A
C910   S1021   1.783   .     S
C911   C915    1.429   .     A
C911   S1022   1.788   .     S
C912   C915    1.425   .     A
C912   S1023   1.777   .     S
C913   C914    1.432   .     A
C913   S1024   1.790   .     S
C917   C788    1.476   1_655 S
C918   H987    1.112   .     S
C918   H986    1.115   .     S
C918   C920    1.519   .     S
C918   O1020   1.413   .     S
C919   C938    1.412   .     A
C919   O1020   1.380   .     S
C919   N991    1.372   .     A
C920   H990    1.109   .     S
C920   H988    1.109   .     S
C920   H989    1.110   .     S
C921   C922    1.524   .     S
C921   H944    1.109   .     S
C921   H945    1.114   .     S
C921   O994    1.415   .     S
C922   H946    1.109   .     S
C922   H948    1.111   .     S
C922   H947    1.110   .     S
C923   H950    1.115   .     S
C923   O995    1.412   .     S
C923   H949    1.108   .     S
C923   C924    1.518   .     S
C924   H952    1.110   .     S
C924   H953    1.110   .     S
C925   H955    1.108   .     S
C925   O996    1.419   .     S
C925   C926    1.523   .     S
C925   H956    1.116   .     S
C926   H959    1.110   .     S
C926   H957    1.109   .     S
C926   H1470   1.110   .     S
C927   O997    1.410   .     S
C927   C928    1.520   .     S
C927   H961    1.116   .     S
C928   H963    1.110   .     S
C928   H962    1.111   .     S
C929   O998    1.413   .     S
C929   H967    1.111   .     S
C929   C803    1.520   1_655 S
C929   H838    1.107   1_655 S
C930   N992    1.371   .     A
C930   O994    1.391   .     S
C930   C939    1.424   .     A
C931   H970    1.111   .     S
C931   H968    1.110   .     S
C931   H969    1.110   .     S
C932   O999    1.412   .     S
C932   H972    1.114   .     S
C932   C805    1.521   1_655 S
C932   H843    1.106   1_655 S
C933   H975    1.109   .     S
C933   H1357   1.110   .     S
C933   H1486   1.107   .     S
C934   O1000   1.416   .     S
C934   H978    1.109   .     S
C935   H980    1.111   .     S
C935   H981    1.111   .     S
C935   C806    1.521   1_655 S
C935   H851    1.110   1_655 S
C936   O995    1.380   .     S
C936   N991    1.378   .     A
C936   C940    1.411   .     A
C937   N992    1.369   .     A
C937   O996    1.381   .     S
C938   H943    1.079   .     S
C939   H954    1.077   .     S
C940   H965    1.080   .     S
Cu941  O1014   1.966   .     S
Cu941  Cu942   2.688   .     S
Cu941  O1016   1.936   .     S
Cu941  O1018   1.940   .     S
Cu941  O993    1.957   .     S
Cu941  N992    2.019   .     S
Cu942  N991    2.019   .     S
Cu942  O1004   1.957   .     S
Cu942  O1017   1.936   .     S
Cu942  O1019   1.940   .     S
Cu942  O1015   1.966   .     S
H951   C1436   1.111   .     S
H960   C799    1.111   1_655 S
H964   C800    1.111   1_655 S
H973   C293    1.110   1_655 S
H977   C806    1.106   1_655 S
H982   O1003   0.990   .     S
H983   O1007   0.991   .     S
H984   O1010   0.991   .     S
H985   O1013   0.991   .     S
O1001  S1021   1.500   .     D
O1002  S1021   1.503   .     D
O1003  S1021   1.683   .     S
O1005  S1022   1.503   .     D
O1006  S1022   1.502   .     D
O1007  S1022   1.682   .     S
O1008  S1023   1.500   .     D
O1009  S1023   1.502   .     D
O1010  S1023   1.680   .     S
O1011  S1024   1.500   .     D
O1012  S1024   1.502   .     D
O1013  S1024   1.678   .     S
C1025  C1042   1.493   .     S
C1025  O1143   1.305   .     A
C1025  O1121   1.306   .     A
C1026  C1065   1.409   .     A
C1026  C1030   1.402   .     A
C1026  H1104   1.077   .     S
C1027  C1031   1.413   .     S
C1027  O1147   1.294   .     A
C1027  O1144   1.289   .     A
C1028  C1032   1.413   .     S
C1028  O1145   1.289   .     A
C1028  O1146   1.294   .     A
C1029  C1066   1.409   .     A
C1029  C1068   1.403   .     A
C1029  C1286   1.522   1_545 S
C1030  C1067   1.410   .     A
C1030  C1285   1.522   .     S
C1032  C7      1.193   1_556 S
C1033  C1038   1.393   .     A
C1033  C1044   1.406   .     A
C1033  O1125   1.385   .     S
C1034  C1039   1.411   .     A
C1034  C1045   1.409   .     A
C1034  O1126   1.386   .     S
C1035  C1045   1.407   .     A
C1035  C1040   1.400   .     A
C1035  O1127   1.388   .     S
C1036  O1132   1.297   .     A
C1036  O1142   1.307   .     A
C1036  C1043   1.488   .     S
C1037  O1128   1.391   .     S
C1037  C1044   1.416   .     A
C1037  C1041   1.413   .     A
C1038  C1042   1.417   .     A
C1038  S1149   1.783   .     S
C1039  C1043   1.429   .     A
C1039  S1150   1.788   .     S
C1040  C1043   1.425   .     A
C1040  S1151   1.777   .     S
C1041  C1042   1.432   .     A
C1041  S1152   1.790   .     S
C1044  C1173   1.476   1_455 S
C1045  C1172   1.476   .     S
C1046  H1115   1.112   .     S
C1046  H1114   1.115   .     S
C1046  C1048   1.519   .     S
C1046  O1148   1.413   .     S
C1047  C1066   1.412   .     A
C1047  O1148   1.380   .     S
C1047  N1119   1.372   .     A
C1048  H1118   1.109   .     S
C1048  H1116   1.109   .     S
C1048  H1117   1.110   .     S
C1049  C1050   1.524   .     S
C1049  H1072   1.109   .     S
C1049  H1073   1.114   .     S
C1049  O1122   1.415   .     S
C1050  H1074   1.109   .     S
C1050  H1076   1.111   .     S
C1050  H1075   1.110   .     S
C1051  H1078   1.115   .     S
C1051  O1123   1.412   .     S
C1051  H1077   1.108   .     S
C1051  C1052   1.518   .     S
C1052  H1080   1.110   .     S
C1052  H1081   1.110   .     S
C1053  H1083   1.108   .     S
C1053  O1124   1.419   .     S
C1053  C1054   1.523   .     S
C1053  H1084   1.116   .     S
C1054  H1087   1.110   .     S
C1054  H1085   1.109   .     S
C1054  H62     1.110   1_556 S
C1055  O1125   1.410   .     S
C1055  C1056   1.520   .     S
C1055  H1089   1.116   .     S
C1055  H1216   1.111   1_455 S
C1056  H1091   1.110   .     S
C1056  H1090   1.111   .     S
C1056  H1220   1.111   1_455 S
C1057  O1126   1.413   .     S
C1057  H1095   1.111   .     S
C1057  C1187   1.520   .     S
C1057  H1222   1.107   .     S
C1058  N1120   1.371   .     A
C1058  O1122   1.391   .     S
C1058  C1067   1.424   .     A
C1059  H1098   1.111   .     S
C1059  H1096   1.110   .     S
C1059  H1097   1.110   .     S
C1059  C1185   1.520   1_455 S
C1060  O1127   1.412   .     S
C1060  H1100   1.114   .     S
C1060  C1189   1.521   .     S
C1060  H1227   1.106   .     S
C1061  H1103   1.109   .     S
C1061  C1188   1.521   1_455 S
C1061  H205    1.110   1_456 S
C1061  H78     1.107   1_556 S
C1062  O1128   1.416   .     S
C1062  H1106   1.109   .     S
C1062  C1191   1.521   1_455 S
C1062  H1233   1.106   1_455 S
C1063  H1108   1.111   .     S
C1063  H1109   1.111   .     S
C1063  C1190   1.521   .     S
C1063  H1235   1.110   .     S
C1064  O1123   1.380   .     S
C1064  N1119   1.378   .     A
C1064  C1068   1.411   .     A
C1065  N1120   1.369   .     A
C1065  O1124   1.381   .     S
C1066  H1071   1.079   .     S
C1067  H1082   1.077   .     S
C1068  H1093   1.080   .     S
Cu1069 O1142   1.966   .     S
Cu1069 Cu1070  2.688   .     S
Cu1069 O1144   1.936   .     S
Cu1069 O1146   1.940   .     S
Cu1069 O1121   1.957   .     S
Cu1069 N1120   2.019   .     S
Cu1070 N1119   2.019   .     S
Cu1070 O1132   1.957   .     S
Cu1070 O1145   1.936   .     S
Cu1070 O1147   1.940   .     S
Cu1070 O1143   1.966   .     S
H1079  C28     1.111   1_556 S
H1088  C1183   1.111   .     S
H1092  C1184   1.111   .     S
H1094  C1185   1.107   1_455 S
H1099  C1188   1.106   1_455 S
H1105  C1190   1.106   .     S
H1107  C1191   1.110   1_455 S
H1110  O1131   0.990   .     S
H1111  O1135   0.991   .     S
H1112  O1138   0.991   .     S
H1113  O1141   0.991   .     S
O1129  S1149   1.500   .     D
O1130  S1149   1.503   .     D
O1131  S1149   1.683   .     S
O1133  S1150   1.503   .     D
O1134  S1150   1.502   .     D
O1135  S1150   1.682   .     S
O1136  S1151   1.500   .     D
O1137  S1151   1.502   .     D
O1138  S1151   1.680   .     S
O1139  S1152   1.500   .     D
O1140  S1152   1.502   .     D
O1141  S1152   1.678   .     S
C1153  C1170   1.493   .     S
C1153  O1271   1.305   .     A
C1153  O1249   1.306   .     A
C1154  C1193   1.409   .     A
C1154  C1158   1.402   .     A
C1154  H1232   1.077   .     S
C1155  C1159   1.413   .     S
C1155  O1275   1.294   .     A
C1155  O1272   1.289   .     A
C1156  C1160   1.413   .     S
C1156  O1273   1.289   .     A
C1156  O1274   1.294   .     A
C1157  C1194   1.409   .     A
C1157  C1196   1.403   .     A
C1157  C1414   1.522   1_545 S
C1158  C1195   1.410   .     A
C1158  C1413   1.522   .     S
C1160  C135    1.193   1_556 S
C1161  C1166   1.393   .     A
C1161  C1172   1.406   .     A
C1161  O1253   1.385   .     S
C1162  C1167   1.411   .     A
C1162  C1173   1.409   .     A
C1162  O1254   1.386   .     S
C1163  C1173   1.407   .     A
C1163  C1168   1.400   .     A
C1163  O1255   1.388   .     S
C1164  O1260   1.297   .     A
C1164  O1270   1.307   .     A
C1164  C1171   1.488   .     S
C1165  O1256   1.391   .     S
C1165  C1172   1.416   .     A
C1165  C1169   1.413   .     A
C1166  C1170   1.417   .     A
C1166  S1277   1.783   .     S
C1167  C1171   1.429   .     A
C1167  S1278   1.788   .     S
C1168  C1171   1.425   .     A
C1168  S1279   1.777   .     S
C1169  C1170   1.432   .     A
C1169  S1280   1.790   .     S
C1173  C1044   1.476   1_655 S
C1174  H1243   1.112   .     S
C1174  H1242   1.115   .     S
C1174  C1176   1.519   .     S
C1174  O1276   1.413   .     S
C1175  C1194   1.412   .     A
C1175  O1276   1.380   .     S
C1175  N1247   1.372   .     A
C1176  H1246   1.109   .     S
C1176  H1244   1.109   .     S
C1176  H1245   1.110   .     S
C1177  C1178   1.524   .     S
C1177  H1200   1.109   .     S
C1177  H1201   1.114   .     S
C1177  O1250   1.415   .     S
C1178  H1202   1.109   .     S
C1178  H1204   1.111   .     S
C1178  H1203   1.110   .     S
C1179  H1206   1.115   .     S
C1179  O1251   1.412   .     S
C1179  H1205   1.108   .     S
C1179  C1180   1.518   .     S
C1180  H1208   1.110   .     S
C1180  H1209   1.110   .     S
C1181  H1211   1.108   .     S
C1181  O1252   1.419   .     S
C1181  C1182   1.523   .     S
C1181  H1212   1.116   .     S
C1182  H1215   1.110   .     S
C1182  H1213   1.109   .     S
C1182  H190    1.110   1_556 S
C1183  O1253   1.410   .     S
C1183  C1184   1.520   .     S
C1183  H1217   1.116   .     S
C1184  H1219   1.110   .     S
C1184  H1218   1.111   .     S
C1185  O1254   1.413   .     S
C1185  H1223   1.111   .     S
C1185  C1059   1.520   1_655 S
C1185  H1094   1.107   1_655 S
C1186  N1248   1.371   .     A
C1186  O1250   1.391   .     S
C1186  C1195   1.424   .     A
C1187  H1226   1.111   .     S
C1187  H1224   1.110   .     S
C1187  H1225   1.110   .     S
C1188  O1255   1.412   .     S
C1188  H1228   1.114   .     S
C1188  C1061   1.521   1_655 S
C1188  H1099   1.106   1_655 S
C1189  H1231   1.109   .     S
C1189  H77     1.110   1_556 S
C1189  H206    1.107   1_556 S
C1190  O1256   1.416   .     S
C1190  H1234   1.109   .     S
C1191  H1236   1.111   .     S
C1191  H1237   1.111   .     S
C1191  C1062   1.521   1_655 S
C1191  H1107   1.110   1_655 S
C1192  O1251   1.380   .     S
C1192  N1247   1.378   .     A
C1192  C1196   1.411   .     A
C1193  N1248   1.369   .     A
C1193  O1252   1.381   .     S
C1194  H1199   1.079   .     S
C1195  H1210   1.077   .     S
C1196  H1221   1.080   .     S
Cu1197 O1270   1.966   .     S
Cu1197 Cu1198  2.688   .     S
Cu1197 O1272   1.936   .     S
Cu1197 O1274   1.940   .     S
Cu1197 O1249   1.957   .     S
Cu1197 N1248   2.019   .     S
Cu1198 N1247   2.019   .     S
Cu1198 O1260   1.957   .     S
Cu1198 O1273   1.936   .     S
Cu1198 O1275   1.940   .     S
Cu1198 O1271   1.966   .     S
H1207  C156    1.111   1_556 S
H1216  C1055   1.111   1_655 S
H1220  C1056   1.111   1_655 S
H1229  C549    1.110   1_655 S
H1233  C1062   1.106   1_655 S
H1238  O1259   0.990   .     S
H1239  O1263   0.991   .     S
H1240  O1266   0.991   .     S
H1241  O1269   0.991   .     S
O1257  S1277   1.500   .     D
O1258  S1277   1.503   .     D
O1259  S1277   1.683   .     S
O1261  S1278   1.503   .     D
O1262  S1278   1.502   .     D
O1263  S1278   1.682   .     S
O1264  S1279   1.500   .     D
O1265  S1279   1.502   .     D
O1266  S1279   1.680   .     S
O1267  S1280   1.500   .     D
O1268  S1280   1.502   .     D
O1269  S1280   1.678   .     S
C1281  C1298   1.493   .     S
C1281  O1399   1.305   .     A
C1281  O1377   1.306   .     A
C1282  C1321   1.409   .     A
C1282  C1286   1.402   .     A
C1282  H1360   1.077   .     S
C1283  C1287   1.413   .     S
C1283  O1403   1.294   .     A
C1283  O1400   1.289   .     A
C1284  C1288   1.413   .     S
C1284  O1401   1.289   .     A
C1284  O1402   1.294   .     A
C1285  C1322   1.409   .     A
C1285  C1324   1.403   .     A
C1286  C1323   1.410   .     A
C1286  C1029   1.522   1_565 S
C1288  C263    1.193   1_556 S
C1289  C1294   1.393   .     A
C1289  C1300   1.406   .     A
C1289  O1381   1.385   .     S
C1290  C1295   1.411   .     A
C1290  C1301   1.409   .     A
C1290  O1382   1.386   .     S
C1291  C1301   1.407   .     A
C1291  C1296   1.400   .     A
C1291  O1383   1.388   .     S
C1292  O1388   1.297   .     A
C1292  O1398   1.307   .     A
C1292  C1299   1.488   .     S
C1293  O1384   1.391   .     S
C1293  C1300   1.416   .     A
C1293  C1297   1.413   .     A
C1294  C1298   1.417   .     A
C1294  S1405   1.783   .     S
C1295  C1299   1.429   .     A
C1295  S1406   1.788   .     S
C1296  C1299   1.425   .     A
C1296  S1407   1.777   .     S
C1297  C1298   1.432   .     A
C1297  S1408   1.790   .     S
C1300  C1429   1.476   1_455 S
C1301  C1428   1.476   .     S
C1302  H1371   1.112   .     S
C1302  H1370   1.115   .     S
C1302  C1304   1.519   .     S
C1302  O1404   1.413   .     S
C1303  C1322   1.412   .     A
C1303  O1404   1.380   .     S
C1303  N1375   1.372   .     A
C1304  H1374   1.109   .     S
C1304  H1372   1.109   .     S
C1304  H1373   1.110   .     S
C1305  C1306   1.524   .     S
C1305  H1328   1.109   .     S
C1305  H1329   1.114   .     S
C1305  O1378   1.415   .     S
C1306  H1330   1.109   .     S
C1306  H1332   1.111   .     S
C1306  H1331   1.110   .     S
C1307  H1334   1.115   .     S
C1307  O1379   1.412   .     S
C1307  H1333   1.108   .     S
C1307  C1308   1.518   .     S
C1308  H1336   1.110   .     S
C1308  H1337   1.110   .     S
C1309  H1339   1.108   .     S
C1309  O1380   1.419   .     S
C1309  C1310   1.523   .     S
C1309  H1340   1.116   .     S
C1310  H1343   1.110   .     S
C1310  H1341   1.109   .     S
C1310  H318    1.110   1_556 S
C1311  O1381   1.410   .     S
C1311  C1312   1.520   .     S
C1311  H1345   1.116   .     S
C1311  H1472   1.111   1_455 S
C1312  H1347   1.110   .     S
C1312  H1346   1.111   .     S
C1312  H1476   1.111   1_455 S
C1313  O1382   1.413   .     S
C1313  H1351   1.111   .     S
C1313  C1443   1.520   .     S
C1313  H1478   1.107   .     S
C1314  N1376   1.371   .     A
C1314  O1378   1.391   .     S
C1314  C1323   1.424   .     A
C1315  H1354   1.111   .     S
C1315  H1352   1.110   .     S
C1315  H1353   1.110   .     S
C1315  C1441   1.520   1_455 S
C1316  O1383   1.412   .     S
C1316  H1356   1.114   .     S
C1316  C1445   1.521   .     S
C1316  H1483   1.106   .     S
C1317  H1359   1.109   .     S
C1317  C1444   1.521   1_455 S
C1317  H461    1.110   1_456 S
C1317  H334    1.107   1_556 S
C1318  O1384   1.416   .     S
C1318  H1362   1.109   .     S
C1318  C1447   1.521   1_455 S
C1318  H1489   1.106   1_455 S
C1319  H1364   1.111   .     S
C1319  H1365   1.111   .     S
C1319  C1446   1.521   .     S
C1319  H1491   1.110   .     S
C1320  O1379   1.380   .     S
C1320  N1375   1.378   .     A
C1320  C1324   1.411   .     A
C1321  N1376   1.369   .     A
C1321  O1380   1.381   .     S
C1322  H1327   1.079   .     S
C1323  H1338   1.077   .     S
C1324  H1349   1.080   .     S
Cu1325 O1398   1.966   .     S
Cu1325 Cu1326  2.688   .     S
Cu1325 O1400   1.936   .     S
Cu1325 O1402   1.940   .     S
Cu1325 O1377   1.957   .     S
Cu1325 N1376   2.019   .     S
Cu1326 N1375   2.019   .     S
Cu1326 O1388   1.957   .     S
Cu1326 O1401   1.936   .     S
Cu1326 O1403   1.940   .     S
Cu1326 O1399   1.966   .     S
H1335  C284    1.111   1_556 S
H1344  C1439   1.111   .     S
H1348  C1440   1.111   .     S
H1350  C1441   1.107   1_455 S
H1355  C1444   1.106   1_455 S
H1361  C1446   1.106   .     S
H1363  C1447   1.110   1_455 S
H1366  O1387   0.990   .     S
H1367  O1391   0.991   .     S
H1368  O1394   0.991   .     S
H1369  O1397   0.991   .     S
O1385  S1405   1.500   .     D
O1386  S1405   1.503   .     D
O1387  S1405   1.683   .     S
O1389  S1406   1.503   .     D
O1390  S1406   1.502   .     D
O1391  S1406   1.682   .     S
O1392  S1407   1.500   .     D
O1393  S1407   1.502   .     D
O1394  S1407   1.680   .     S
O1395  S1408   1.500   .     D
O1396  S1408   1.502   .     D
O1397  S1408   1.678   .     S
C1409  C1426   1.493   .     S
C1409  O1527   1.305   .     A
C1409  O1505   1.306   .     A
C1410  C1449   1.409   .     A
C1410  C1414   1.402   .     A
C1410  H1488   1.077   .     S
C1411  C1415   1.413   .     S
C1411  O1531   1.294   .     A
C1411  O1528   1.289   .     A
C1412  C1416   1.413   .     S
C1412  O1529   1.289   .     A
C1412  O1530   1.294   .     A
C1413  C1450   1.409   .     A
C1413  C1452   1.403   .     A
C1414  C1451   1.410   .     A
C1414  C1157   1.522   1_565 S
C1416  C391    1.193   1_556 S
C1417  C1422   1.393   .     A
C1417  C1428   1.406   .     A
C1417  O1509   1.385   .     S
C1418  C1423   1.411   .     A
C1418  C1429   1.409   .     A
C1418  O1510   1.386   .     S
C1419  C1429   1.407   .     A
C1419  C1424   1.400   .     A
C1419  O1511   1.388   .     S
C1420  O1516   1.297   .     A
C1420  O1526   1.307   .     A
C1420  C1427   1.488   .     S
C1421  O1512   1.391   .     S
C1421  C1428   1.416   .     A
C1421  C1425   1.413   .     A
C1422  C1426   1.417   .     A
C1422  S1533   1.783   .     S
C1423  C1427   1.429   .     A
C1423  S1534   1.788   .     S
C1424  C1427   1.425   .     A
C1424  S1535   1.777   .     S
C1425  C1426   1.432   .     A
C1425  S1536   1.790   .     S
C1429  C1300   1.476   1_655 S
C1430  H1499   1.112   .     S
C1430  H1498   1.115   .     S
C1430  C1432   1.519   .     S
C1430  O1532   1.413   .     S
C1431  C1450   1.412   .     A
C1431  O1532   1.380   .     S
C1431  N1503   1.372   .     A
C1432  H1502   1.109   .     S
C1432  H1500   1.109   .     S
C1432  H1501   1.110   .     S
C1433  C1434   1.524   .     S
C1433  H1456   1.109   .     S
C1433  H1457   1.114   .     S
C1433  O1506   1.415   .     S
C1434  H1458   1.109   .     S
C1434  H1460   1.111   .     S
C1434  H1459   1.110   .     S
C1435  H1462   1.115   .     S
C1435  O1507   1.412   .     S
C1435  H1461   1.108   .     S
C1435  C1436   1.518   .     S
C1436  H1464   1.110   .     S
C1436  H1465   1.110   .     S
C1437  H1467   1.108   .     S
C1437  O1508   1.419   .     S
C1437  C1438   1.523   .     S
C1437  H1468   1.116   .     S
C1438  H1471   1.110   .     S
C1438  H1469   1.109   .     S
C1438  H446    1.110   1_556 S
C1439  O1509   1.410   .     S
C1439  C1440   1.520   .     S
C1439  H1473   1.116   .     S
C1440  H1475   1.110   .     S
C1440  H1474   1.111   .     S
C1441  O1510   1.413   .     S
C1441  H1479   1.111   .     S
C1441  C1315   1.520   1_655 S
C1441  H1350   1.107   1_655 S
C1442  N1504   1.371   .     A
C1442  O1506   1.391   .     S
C1442  C1451   1.424   .     A
C1443  H1482   1.111   .     S
C1443  H1480   1.110   .     S
C1443  H1481   1.110   .     S
C1444  O1511   1.412   .     S
C1444  H1484   1.114   .     S
C1444  C1317   1.521   1_655 S
C1444  H1355   1.106   1_655 S
C1445  H1487   1.109   .     S
C1445  H333    1.110   1_556 S
C1445  H462    1.107   1_556 S
C1446  O1512   1.416   .     S
C1446  H1490   1.109   .     S
C1447  H1492   1.111   .     S
C1447  H1493   1.111   .     S
C1447  C1318   1.521   1_655 S
C1447  H1363   1.110   1_655 S
C1448  O1507   1.380   .     S
C1448  N1503   1.378   .     A
C1448  C1452   1.411   .     A
C1449  N1504   1.369   .     A
C1449  O1508   1.381   .     S
C1450  H1455   1.079   .     S
C1451  H1466   1.077   .     S
C1452  H1477   1.080   .     S
Cu1453 O1526   1.966   .     S
Cu1453 Cu1454  2.688   .     S
Cu1453 O1528   1.936   .     S
Cu1453 O1530   1.940   .     S
Cu1453 O1505   1.957   .     S
Cu1453 N1504   2.019   .     S
Cu1454 N1503   2.019   .     S
Cu1454 O1516   1.957   .     S
Cu1454 O1529   1.936   .     S
Cu1454 O1531   1.940   .     S
Cu1454 O1527   1.966   .     S
H1463  C412    1.111   1_556 S
H1472  C1311   1.111   1_655 S
H1476  C1312   1.111   1_655 S
H1485  C805    1.110   1_655 S
H1489  C1318   1.106   1_655 S
H1494  O1515   0.990   .     S
H1495  O1519   0.991   .     S
H1496  O1522   0.991   .     S
H1497  O1525   0.991   .     S
O1513  S1533   1.500   .     D
O1514  S1533   1.503   .     D
O1515  S1533   1.683   .     S
O1517  S1534   1.503   .     D
O1518  S1534   1.502   .     D
O1519  S1534   1.682   .     S
O1520  S1535   1.500   .     D
O1521  S1535   1.502   .     D
O1522  S1535   1.680   .     S
O1523  S1536   1.500   .     D
O1524  S1536   1.502   .     D
O1525  S1536   1.678   .     S
