data_str_m1_o10_o16_pcu_sym.166
_audit_creation_date              2020-01-03
_audit_creation_method            'Materials Studio'
_symmetry_space_group_name_H-M    'P1'
_symmetry_Int_Tables_number       1
_symmetry_cell_setting            triclinic
loop_
_symmetry_equiv_pos_as_xyz
  x,y,z
_cell_length_a                    32.6640
_cell_length_b                    32.5205
_cell_length_c                    31.0670
_cell_angle_alpha                 96.9041
_cell_angle_beta                  74.6471
_cell_angle_gamma                 98.1937
loop_
_atom_site_label
_atom_site_type_symbol
_atom_site_fract_x
_atom_site_fract_y
_atom_site_fract_z
_atom_site_U_iso_or_equiv
_atom_site_adp_type
_atom_site_occupancy
C1     C     0.05290   0.15970   0.26027   0.00000  Uiso   1.00
C2     C     0.18220   0.16782   0.05508   0.00000  Uiso   1.00
C3     C     0.19568   0.09784   0.06347   0.00000  Uiso   1.00
C4     C     0.28078   0.17356   0.23996   0.00000  Uiso   1.00
C5     C     0.13963   0.19259   0.42080   0.00000  Uiso   1.00
C6     C     0.32694   0.17494   0.23545   0.00000  Uiso   1.00
C7     C     0.00752   0.15745   0.26540   0.00000  Uiso   1.00
C8     C     0.17753   0.32201   0.23611   0.00000  Uiso   1.00
C9     C     0.15080   0.01229   0.26587   0.00000  Uiso   1.00
C10    C     0.15652   0.05606   0.25989   0.00000  Uiso   1.00
C11    C     0.17621   0.27787   0.24041   0.00000  Uiso   1.00
C12    C     0.11748   0.23820   0.48872   0.00000  Uiso   1.00
C13    C     0.18486   0.14828   0.12931   0.00000  Uiso   1.00
C14    C     0.14780   0.18428   0.37127   0.00000  Uiso   1.00
C15    C     0.19063   0.08456   0.02086   0.00000  Uiso   1.00
C16    C     0.19113   0.13910   0.08100   0.00000  Uiso   1.00
C17    C     0.12354   0.23037   0.44205   0.00000  Uiso   1.00
C18    C     0.08532   0.01239   0.31918   0.00000  Uiso   1.00
C19    C     0.08494   0.04963   0.35459   0.00000  Uiso   1.00
C20    C     0.03958   0.05986   0.37685   0.00000  Uiso   1.00
C21    C     0.11474   0.29926   0.43198   0.00000  Uiso   1.00
C22    C     0.07062   0.31280   0.45577   0.00000  Uiso   1.00
C23    C     0.13226   0.21290   0.01269   0.00000  Uiso   1.00
C24    C     0.07408   0.02240   0.48132   0.00000  Uiso   1.00
C25    C     0.15208   0.17753   0.49157   0.00000  Uiso   1.00
C26    C     0.15016   0.16442   0.44688   0.00000  Uiso   1.00
C27    C     0.17022   0.15275   0.01485   0.00000  Uiso   1.00
C28    C     0.17730   0.11140   0.49670   0.00000  Uiso   1.00
C29    C     0.16989   0.09679   0.45512   0.00000  Uiso   1.00
C30    C     0.15684   0.12286   0.43043   0.00000  Uiso   1.00
H31    H     0.20223   0.07557   0.08339   0.00000  Uiso   1.00
H32    H     0.07415   0.02031   0.29053   0.00000  Uiso   1.00
H33    H     0.09986   0.04240   0.38051   0.00000  Uiso   1.00
H34    H     0.10369   0.07768   0.33909   0.00000  Uiso   1.00
H35    H     0.02421   0.06758   0.35140   0.00000  Uiso   1.00
H36    H     0.04061   0.08716   0.40188   0.00000  Uiso   1.00
H37    H     0.02017   0.03299   0.39431   0.00000  Uiso   1.00
H38    H     0.20532   0.21678   0.08770   0.00000  Uiso   1.00
H39    H     0.12804   0.31712   0.40208   0.00000  Uiso   1.00
H40    H     0.13813   0.30779   0.45290   0.00000  Uiso   1.00
H41    H     0.05218   0.31347   0.43054   0.00000  Uiso   1.00
H42    H     0.20019   0.00207   0.20740   0.00000  Uiso   1.00
H43    H     0.05239   0.28993   0.47970   0.00000  Uiso   1.00
H44    H     0.09203   0.02224   0.00707   0.00000  Uiso   1.00
H45    H     0.04156   0.03082   0.49832   0.00000  Uiso   1.00
H46    H     0.09049   0.04636   0.45808   0.00000  Uiso   1.00
H47    H     0.00837   0.20432   0.18116   0.00000  Uiso   1.00
H48    H     0.17416   0.06493   0.44153   0.00000  Uiso   1.00
H49    H     0.19499   0.05261   0.00775   0.00000  Uiso   1.00
H50    H     0.12531   0.22022   0.04851   0.00000  Uiso   1.00
H51    H     0.10168   0.26430   0.00720   0.00000  Uiso   1.00
H52    H     0.14974   0.10893   0.39955   0.00000  Uiso   1.00
H53    H     0.33011   0.12914   0.31970   0.00000  Uiso   1.00
H54    H     0.06188   0.31990   0.33436   0.00000  Uiso   1.00
O55    O     0.16667   0.16667   0.25000   0.00000  Uiso   1.00
O56    O     0.15451   0.12637   0.15458   0.00000  Uiso   1.00
O57    O     0.12940   0.20391   0.34968   0.00000  Uiso   1.00
O58    O     0.20824   0.17759   0.14606   0.00000  Uiso   1.00
O59    O     0.17451   0.15880   0.34968   0.00000  Uiso   1.00
O60    O     0.31310   0.13961   0.30206   0.00000  Uiso   1.00
O61    O     0.12591   0.33079   0.30603   0.00000  Uiso   1.00
O62    O     0.18591   0.21015   0.06762   0.00000  Uiso   1.00
O63    O     0.11045   0.25636   0.41676   0.00000  Uiso   1.00
O64    O     0.02341   0.19384   0.20067   0.00000  Uiso   1.00
O65    O     0.17930   0.08019   0.28213   0.00000  Uiso   1.00
O66    O     0.14632   0.26085   0.27013   0.00000  Uiso   1.00
O67    O     0.07412   0.13291   0.23413   0.00000  Uiso   1.00
O68    O     0.26693   0.19272   0.21360   0.00000  Uiso   1.00
O69    O     0.07071   0.18878   0.28213   0.00000  Uiso   1.00
O70    O     0.25491   0.15226   0.27013   0.00000  Uiso   1.00
O71    O     0.13760   0.06944   0.23413   0.00000  Uiso   1.00
O72    O     0.20345   0.25620   0.21360   0.00000  Uiso   1.00
Zn73   Zn    0.19338   0.13994   0.28734   0.00000  Uiso   1.00
Zn74   Zn    0.13379   0.12458   0.21875   0.00000  Uiso   1.00
Zn75   Zn    0.21056   0.19775   0.20657   0.00000  Uiso   1.00
Zn76   Zn    0.12893   0.20439   0.28733   0.00000  Uiso   1.00
C77    C     0.38623   0.15970   0.26027   0.00000  Uiso   1.00
C78    C     0.51553   0.16782   0.05508   0.00000  Uiso   1.00
C79    C     0.52902   0.09784   0.06347   0.00000  Uiso   1.00
C80    C     0.61411   0.17356   0.23996   0.00000  Uiso   1.00
C81    C     0.47296   0.19259   0.42080   0.00000  Uiso   1.00
C82    C     0.66028   0.17494   0.23545   0.00000  Uiso   1.00
C83    C     0.34086   0.15745   0.26540   0.00000  Uiso   1.00
C84    C     0.51087   0.32201   0.23611   0.00000  Uiso   1.00
C85    C     0.48413   0.01229   0.26587   0.00000  Uiso   1.00
C86    C     0.48985   0.05606   0.25989   0.00000  Uiso   1.00
C87    C     0.50954   0.27787   0.24041   0.00000  Uiso   1.00
C88    C     0.45081   0.23820   0.48872   0.00000  Uiso   1.00
C89    C     0.51819   0.14828   0.12931   0.00000  Uiso   1.00
C90    C     0.48113   0.18428   0.37127   0.00000  Uiso   1.00
C91    C     0.52396   0.08456   0.02086   0.00000  Uiso   1.00
C92    C     0.52446   0.13910   0.08100   0.00000  Uiso   1.00
C93    C     0.45687   0.23037   0.44205   0.00000  Uiso   1.00
C94    C     0.41865   0.01239   0.31918   0.00000  Uiso   1.00
C95    C     0.41827   0.04963   0.35459   0.00000  Uiso   1.00
C96    C     0.37291   0.05986   0.37685   0.00000  Uiso   1.00
C97    C     0.44807   0.29926   0.43198   0.00000  Uiso   1.00
C98    C     0.40395   0.31280   0.45577   0.00000  Uiso   1.00
C99    C     0.46560   0.21290   0.01269   0.00000  Uiso   1.00
C100   C     0.40741   0.02240   0.48132   0.00000  Uiso   1.00
C101   C     0.48541   0.17753   0.49157   0.00000  Uiso   1.00
C102   C     0.48349   0.16442   0.44688   0.00000  Uiso   1.00
C103   C     0.50355   0.15275   0.01485   0.00000  Uiso   1.00
C104   C     0.51064   0.11140   0.49670   0.00000  Uiso   1.00
C105   C     0.50322   0.09679   0.45512   0.00000  Uiso   1.00
C106   C     0.49017   0.12286   0.43043   0.00000  Uiso   1.00
H107   H     0.53556   0.07557   0.08339   0.00000  Uiso   1.00
H108   H     0.40749   0.02031   0.29053   0.00000  Uiso   1.00
H109   H     0.43320   0.04240   0.38051   0.00000  Uiso   1.00
H110   H     0.43702   0.07768   0.33909   0.00000  Uiso   1.00
H111   H     0.35754   0.06758   0.35140   0.00000  Uiso   1.00
H112   H     0.37395   0.08716   0.40188   0.00000  Uiso   1.00
H113   H     0.35351   0.03299   0.39431   0.00000  Uiso   1.00
H114   H     0.53865   0.21678   0.08770   0.00000  Uiso   1.00
H115   H     0.46137   0.31712   0.40208   0.00000  Uiso   1.00
H116   H     0.47147   0.30779   0.45290   0.00000  Uiso   1.00
H117   H     0.38552   0.31347   0.43054   0.00000  Uiso   1.00
H118   H     0.53353   0.00207   0.20740   0.00000  Uiso   1.00
H119   H     0.38572   0.28993   0.47970   0.00000  Uiso   1.00
H120   H     0.42536   0.02224   0.00707   0.00000  Uiso   1.00
H121   H     0.37490   0.03082   0.49832   0.00000  Uiso   1.00
H122   H     0.42382   0.04636   0.45808   0.00000  Uiso   1.00
H123   H     0.34171   0.20432   0.18116   0.00000  Uiso   1.00
H124   H     0.50750   0.06493   0.44153   0.00000  Uiso   1.00
H125   H     0.52832   0.05261   0.00775   0.00000  Uiso   1.00
H126   H     0.45864   0.22022   0.04851   0.00000  Uiso   1.00
H127   H     0.43502   0.26430   0.00720   0.00000  Uiso   1.00
H128   H     0.48307   0.10893   0.39955   0.00000  Uiso   1.00
H129   H     0.66344   0.12914   0.31970   0.00000  Uiso   1.00
H130   H     0.39521   0.31990   0.33436   0.00000  Uiso   1.00
O131   O     0.50000   0.16667   0.25000   0.00000  Uiso   1.00
O132   O     0.48784   0.12637   0.15458   0.00000  Uiso   1.00
O133   O     0.46274   0.20391   0.34968   0.00000  Uiso   1.00
O134   O     0.54157   0.17759   0.14606   0.00000  Uiso   1.00
O135   O     0.50785   0.15880   0.34968   0.00000  Uiso   1.00
O136   O     0.64643   0.13961   0.30206   0.00000  Uiso   1.00
O137   O     0.45925   0.33079   0.30603   0.00000  Uiso   1.00
O138   O     0.51925   0.21015   0.06762   0.00000  Uiso   1.00
O139   O     0.44378   0.25636   0.41676   0.00000  Uiso   1.00
O140   O     0.35674   0.19384   0.20067   0.00000  Uiso   1.00
O141   O     0.51264   0.08019   0.28213   0.00000  Uiso   1.00
O142   O     0.47965   0.26085   0.27013   0.00000  Uiso   1.00
O143   O     0.40745   0.13291   0.23413   0.00000  Uiso   1.00
O144   O     0.60026   0.19272   0.21360   0.00000  Uiso   1.00
O145   O     0.40405   0.18878   0.28213   0.00000  Uiso   1.00
O146   O     0.58824   0.15226   0.27013   0.00000  Uiso   1.00
O147   O     0.47093   0.06944   0.23413   0.00000  Uiso   1.00
O148   O     0.53678   0.25620   0.21360   0.00000  Uiso   1.00
Zn149  Zn    0.52672   0.13994   0.28734   0.00000  Uiso   1.00
Zn150  Zn    0.46713   0.12458   0.21875   0.00000  Uiso   1.00
Zn151  Zn    0.54389   0.19775   0.20657   0.00000  Uiso   1.00
Zn152  Zn    0.46226   0.20439   0.28733   0.00000  Uiso   1.00
C153   C     0.71956   0.15970   0.26027   0.00000  Uiso   1.00
C154   C     0.84887   0.16782   0.05508   0.00000  Uiso   1.00
C155   C     0.86235   0.09784   0.06347   0.00000  Uiso   1.00
C156   C     0.94744   0.17356   0.23996   0.00000  Uiso   1.00
C157   C     0.80629   0.19259   0.42080   0.00000  Uiso   1.00
C158   C     0.99361   0.17494   0.23545   0.00000  Uiso   1.00
C159   C     0.67419   0.15745   0.26540   0.00000  Uiso   1.00
C160   C     0.84420   0.32201   0.23611   0.00000  Uiso   1.00
C161   C     0.81746   0.01229   0.26587   0.00000  Uiso   1.00
C162   C     0.82318   0.05606   0.25989   0.00000  Uiso   1.00
C163   C     0.84287   0.27787   0.24041   0.00000  Uiso   1.00
C164   C     0.78414   0.23820   0.48872   0.00000  Uiso   1.00
C165   C     0.85153   0.14828   0.12931   0.00000  Uiso   1.00
C166   C     0.81446   0.18428   0.37127   0.00000  Uiso   1.00
C167   C     0.85730   0.08456   0.02086   0.00000  Uiso   1.00
C168   C     0.85779   0.13910   0.08100   0.00000  Uiso   1.00
C169   C     0.79020   0.23037   0.44205   0.00000  Uiso   1.00
C170   C     0.75199   0.01239   0.31918   0.00000  Uiso   1.00
C171   C     0.75160   0.04963   0.35459   0.00000  Uiso   1.00
C172   C     0.70624   0.05986   0.37685   0.00000  Uiso   1.00
C173   C     0.78140   0.29926   0.43198   0.00000  Uiso   1.00
C174   C     0.73728   0.31280   0.45577   0.00000  Uiso   1.00
C175   C     0.79893   0.21290   0.01269   0.00000  Uiso   1.00
C176   C     0.74074   0.02240   0.48132   0.00000  Uiso   1.00
C177   C     0.81874   0.17753   0.49157   0.00000  Uiso   1.00
C178   C     0.81683   0.16442   0.44688   0.00000  Uiso   1.00
C179   C     0.83688   0.15275   0.01485   0.00000  Uiso   1.00
C180   C     0.84397   0.11140   0.49670   0.00000  Uiso   1.00
C181   C     0.83655   0.09679   0.45512   0.00000  Uiso   1.00
C182   C     0.82350   0.12286   0.43043   0.00000  Uiso   1.00
H183   H     0.86889   0.07557   0.08339   0.00000  Uiso   1.00
H184   H     0.74082   0.02031   0.29053   0.00000  Uiso   1.00
H185   H     0.76653   0.04240   0.38051   0.00000  Uiso   1.00
H186   H     0.77035   0.07768   0.33909   0.00000  Uiso   1.00
H187   H     0.69088   0.06758   0.35140   0.00000  Uiso   1.00
H188   H     0.70728   0.08716   0.40188   0.00000  Uiso   1.00
H189   H     0.68684   0.03299   0.39431   0.00000  Uiso   1.00
H190   H     0.87199   0.21678   0.08770   0.00000  Uiso   1.00
H191   H     0.79471   0.31712   0.40208   0.00000  Uiso   1.00
H192   H     0.80480   0.30779   0.45290   0.00000  Uiso   1.00
H193   H     0.71885   0.31347   0.43054   0.00000  Uiso   1.00
H194   H     0.86686   0.00207   0.20740   0.00000  Uiso   1.00
H195   H     0.71906   0.28993   0.47970   0.00000  Uiso   1.00
H196   H     0.75870   0.02224   0.00707   0.00000  Uiso   1.00
H197   H     0.70823   0.03082   0.49832   0.00000  Uiso   1.00
H198   H     0.75715   0.04636   0.45808   0.00000  Uiso   1.00
H199   H     0.67504   0.20432   0.18116   0.00000  Uiso   1.00
H200   H     0.84083   0.06493   0.44153   0.00000  Uiso   1.00
H201   H     0.86165   0.05261   0.00775   0.00000  Uiso   1.00
H202   H     0.79197   0.22022   0.04851   0.00000  Uiso   1.00
H203   H     0.76835   0.26430   0.00720   0.00000  Uiso   1.00
H204   H     0.81640   0.10893   0.39955   0.00000  Uiso   1.00
H205   H     0.99678   0.12914   0.31970   0.00000  Uiso   1.00
H206   H     0.72854   0.31990   0.33436   0.00000  Uiso   1.00
O207   O     0.83333   0.16667   0.25000   0.00000  Uiso   1.00
O208   O     0.82118   0.12637   0.15458   0.00000  Uiso   1.00
O209   O     0.79607   0.20391   0.34968   0.00000  Uiso   1.00
O210   O     0.87491   0.17759   0.14606   0.00000  Uiso   1.00
O211   O     0.84118   0.15880   0.34968   0.00000  Uiso   1.00
O212   O     0.97977   0.13961   0.30206   0.00000  Uiso   1.00
O213   O     0.79258   0.33079   0.30603   0.00000  Uiso   1.00
O214   O     0.85258   0.21015   0.06762   0.00000  Uiso   1.00
O215   O     0.77711   0.25636   0.41676   0.00000  Uiso   1.00
O216   O     0.69007   0.19384   0.20067   0.00000  Uiso   1.00
O217   O     0.84597   0.08019   0.28213   0.00000  Uiso   1.00
O218   O     0.81298   0.26085   0.27013   0.00000  Uiso   1.00
O219   O     0.74078   0.13291   0.23413   0.00000  Uiso   1.00
O220   O     0.93360   0.19272   0.21360   0.00000  Uiso   1.00
O221   O     0.73738   0.18878   0.28213   0.00000  Uiso   1.00
O222   O     0.92158   0.15226   0.27013   0.00000  Uiso   1.00
O223   O     0.80426   0.06944   0.23413   0.00000  Uiso   1.00
O224   O     0.87012   0.25620   0.21360   0.00000  Uiso   1.00
Zn225  Zn    0.86005   0.13994   0.28734   0.00000  Uiso   1.00
Zn226  Zn    0.80046   0.12458   0.21875   0.00000  Uiso   1.00
Zn227  Zn    0.87723   0.19775   0.20657   0.00000  Uiso   1.00
Zn228  Zn    0.79560   0.20439   0.28733   0.00000  Uiso   1.00
C229   C     0.05290   0.49304   0.26027   0.00000  Uiso   1.00
C230   C     0.18220   0.50115   0.05508   0.00000  Uiso   1.00
C231   C     0.19568   0.43117   0.06347   0.00000  Uiso   1.00
C232   C     0.28078   0.50689   0.23996   0.00000  Uiso   1.00
C233   C     0.13963   0.52592   0.42080   0.00000  Uiso   1.00
C234   C     0.32694   0.50828   0.23545   0.00000  Uiso   1.00
C235   C     0.00752   0.49079   0.26540   0.00000  Uiso   1.00
C236   C     0.17753   0.65535   0.23611   0.00000  Uiso   1.00
C237   C     0.15080   0.34562   0.26587   0.00000  Uiso   1.00
C238   C     0.15652   0.38939   0.25989   0.00000  Uiso   1.00
C239   C     0.17621   0.61121   0.24041   0.00000  Uiso   1.00
C240   C     0.11748   0.57153   0.48872   0.00000  Uiso   1.00
C241   C     0.18486   0.48161   0.12931   0.00000  Uiso   1.00
C242   C     0.14780   0.51761   0.37127   0.00000  Uiso   1.00
C243   C     0.19063   0.41789   0.02086   0.00000  Uiso   1.00
C244   C     0.19113   0.47243   0.08100   0.00000  Uiso   1.00
C245   C     0.12354   0.56370   0.44205   0.00000  Uiso   1.00
C246   C     0.08532   0.34572   0.31918   0.00000  Uiso   1.00
C247   C     0.08494   0.38296   0.35459   0.00000  Uiso   1.00
C248   C     0.03958   0.39319   0.37685   0.00000  Uiso   1.00
C249   C     0.11474   0.63259   0.43198   0.00000  Uiso   1.00
C250   C     0.07062   0.64613   0.45577   0.00000  Uiso   1.00
C251   C     0.13226   0.54623   0.01269   0.00000  Uiso   1.00
C252   C     0.07408   0.35573   0.48132   0.00000  Uiso   1.00
C253   C     0.15208   0.51086   0.49157   0.00000  Uiso   1.00
C254   C     0.15016   0.49775   0.44688   0.00000  Uiso   1.00
C255   C     0.17022   0.48609   0.01485   0.00000  Uiso   1.00
C256   C     0.17730   0.44473   0.49670   0.00000  Uiso   1.00
C257   C     0.16989   0.43012   0.45512   0.00000  Uiso   1.00
C258   C     0.15684   0.45620   0.43043   0.00000  Uiso   1.00
H259   H     0.20223   0.40891   0.08339   0.00000  Uiso   1.00
H260   H     0.07415   0.35365   0.29053   0.00000  Uiso   1.00
H261   H     0.09986   0.37573   0.38051   0.00000  Uiso   1.00
H262   H     0.10369   0.41101   0.33909   0.00000  Uiso   1.00
H263   H     0.02421   0.40091   0.35140   0.00000  Uiso   1.00
H264   H     0.04061   0.42049   0.40188   0.00000  Uiso   1.00
H265   H     0.02017   0.36632   0.39431   0.00000  Uiso   1.00
H266   H     0.20532   0.55011   0.08770   0.00000  Uiso   1.00
H267   H     0.12804   0.65046   0.40208   0.00000  Uiso   1.00
H268   H     0.13813   0.64112   0.45290   0.00000  Uiso   1.00
H269   H     0.05218   0.64681   0.43054   0.00000  Uiso   1.00
H270   H     0.20019   0.33540   0.20740   0.00000  Uiso   1.00
H271   H     0.05239   0.62326   0.47970   0.00000  Uiso   1.00
H272   H     0.09203   0.35557   0.00707   0.00000  Uiso   1.00
H273   H     0.04156   0.36415   0.49832   0.00000  Uiso   1.00
H274   H     0.09049   0.37969   0.45808   0.00000  Uiso   1.00
H275   H     0.00837   0.53766   0.18116   0.00000  Uiso   1.00
H276   H     0.17416   0.39826   0.44153   0.00000  Uiso   1.00
H277   H     0.19499   0.38595   0.00775   0.00000  Uiso   1.00
H278   H     0.12531   0.55355   0.04851   0.00000  Uiso   1.00
H279   H     0.10168   0.59763   0.00720   0.00000  Uiso   1.00
H280   H     0.14974   0.44226   0.39955   0.00000  Uiso   1.00
H281   H     0.33011   0.46247   0.31970   0.00000  Uiso   1.00
H282   H     0.06188   0.65324   0.33436   0.00000  Uiso   1.00
O283   O     0.16667   0.50000   0.25000   0.00000  Uiso   1.00
O284   O     0.15451   0.45970   0.15458   0.00000  Uiso   1.00
O285   O     0.12940   0.53724   0.34968   0.00000  Uiso   1.00
O286   O     0.20824   0.51092   0.14606   0.00000  Uiso   1.00
O287   O     0.17451   0.49213   0.34968   0.00000  Uiso   1.00
O288   O     0.31310   0.47294   0.30206   0.00000  Uiso   1.00
O289   O     0.12591   0.66413   0.30603   0.00000  Uiso   1.00
O290   O     0.18591   0.54349   0.06762   0.00000  Uiso   1.00
O291   O     0.11045   0.58970   0.41676   0.00000  Uiso   1.00
O292   O     0.02341   0.52717   0.20067   0.00000  Uiso   1.00
O293   O     0.17930   0.41352   0.28213   0.00000  Uiso   1.00
O294   O     0.14632   0.59418   0.27013   0.00000  Uiso   1.00
O295   O     0.07412   0.46625   0.23413   0.00000  Uiso   1.00
O296   O     0.26693   0.52605   0.21360   0.00000  Uiso   1.00
O297   O     0.07071   0.52211   0.28213   0.00000  Uiso   1.00
O298   O     0.25491   0.48559   0.27013   0.00000  Uiso   1.00
O299   O     0.13760   0.40277   0.23413   0.00000  Uiso   1.00
O300   O     0.20345   0.58953   0.21360   0.00000  Uiso   1.00
Zn301  Zn    0.19338   0.47327   0.28734   0.00000  Uiso   1.00
Zn302  Zn    0.13379   0.45791   0.21875   0.00000  Uiso   1.00
Zn303  Zn    0.21056   0.53109   0.20657   0.00000  Uiso   1.00
Zn304  Zn    0.12893   0.53773   0.28733   0.00000  Uiso   1.00
C305   C     0.38623   0.49304   0.26027   0.00000  Uiso   1.00
C306   C     0.51553   0.50115   0.05508   0.00000  Uiso   1.00
C307   C     0.52902   0.43117   0.06347   0.00000  Uiso   1.00
C308   C     0.61411   0.50689   0.23996   0.00000  Uiso   1.00
C309   C     0.47296   0.52592   0.42080   0.00000  Uiso   1.00
C310   C     0.66028   0.50828   0.23545   0.00000  Uiso   1.00
C311   C     0.34086   0.49079   0.26540   0.00000  Uiso   1.00
C312   C     0.51087   0.65535   0.23611   0.00000  Uiso   1.00
C313   C     0.48413   0.34562   0.26587   0.00000  Uiso   1.00
C314   C     0.48985   0.38939   0.25989   0.00000  Uiso   1.00
C315   C     0.50954   0.61121   0.24041   0.00000  Uiso   1.00
C316   C     0.45081   0.57153   0.48872   0.00000  Uiso   1.00
C317   C     0.51819   0.48161   0.12931   0.00000  Uiso   1.00
C318   C     0.48113   0.51761   0.37127   0.00000  Uiso   1.00
C319   C     0.52396   0.41789   0.02086   0.00000  Uiso   1.00
C320   C     0.52446   0.47243   0.08100   0.00000  Uiso   1.00
C321   C     0.45687   0.56370   0.44205   0.00000  Uiso   1.00
C322   C     0.41865   0.34572   0.31918   0.00000  Uiso   1.00
C323   C     0.41827   0.38296   0.35459   0.00000  Uiso   1.00
C324   C     0.37291   0.39319   0.37685   0.00000  Uiso   1.00
C325   C     0.44807   0.63259   0.43198   0.00000  Uiso   1.00
C326   C     0.40395   0.64613   0.45577   0.00000  Uiso   1.00
C327   C     0.46560   0.54623   0.01269   0.00000  Uiso   1.00
C328   C     0.40741   0.35573   0.48132   0.00000  Uiso   1.00
C329   C     0.48541   0.51086   0.49157   0.00000  Uiso   1.00
C330   C     0.48349   0.49775   0.44688   0.00000  Uiso   1.00
C331   C     0.50355   0.48609   0.01485   0.00000  Uiso   1.00
C332   C     0.51064   0.44473   0.49670   0.00000  Uiso   1.00
C333   C     0.50322   0.43012   0.45512   0.00000  Uiso   1.00
C334   C     0.49017   0.45620   0.43043   0.00000  Uiso   1.00
H335   H     0.53556   0.40891   0.08339   0.00000  Uiso   1.00
H336   H     0.40749   0.35365   0.29053   0.00000  Uiso   1.00
H337   H     0.43320   0.37573   0.38051   0.00000  Uiso   1.00
H338   H     0.43702   0.41101   0.33909   0.00000  Uiso   1.00
H339   H     0.35754   0.40091   0.35140   0.00000  Uiso   1.00
H340   H     0.37395   0.42049   0.40188   0.00000  Uiso   1.00
H341   H     0.35351   0.36632   0.39431   0.00000  Uiso   1.00
H342   H     0.53865   0.55011   0.08770   0.00000  Uiso   1.00
H343   H     0.46137   0.65046   0.40208   0.00000  Uiso   1.00
H344   H     0.47147   0.64112   0.45290   0.00000  Uiso   1.00
H345   H     0.38552   0.64681   0.43054   0.00000  Uiso   1.00
H346   H     0.53353   0.33540   0.20740   0.00000  Uiso   1.00
H347   H     0.38572   0.62326   0.47970   0.00000  Uiso   1.00
H348   H     0.42536   0.35557   0.00707   0.00000  Uiso   1.00
H349   H     0.37490   0.36415   0.49832   0.00000  Uiso   1.00
H350   H     0.42382   0.37969   0.45808   0.00000  Uiso   1.00
H351   H     0.34171   0.53766   0.18116   0.00000  Uiso   1.00
H352   H     0.50750   0.39826   0.44153   0.00000  Uiso   1.00
H353   H     0.52832   0.38595   0.00775   0.00000  Uiso   1.00
H354   H     0.45864   0.55355   0.04851   0.00000  Uiso   1.00
H355   H     0.43502   0.59763   0.00720   0.00000  Uiso   1.00
H356   H     0.48307   0.44226   0.39955   0.00000  Uiso   1.00
H357   H     0.66344   0.46247   0.31970   0.00000  Uiso   1.00
H358   H     0.39521   0.65324   0.33436   0.00000  Uiso   1.00
O359   O     0.50000   0.50000   0.25000   0.00000  Uiso   1.00
O360   O     0.48784   0.45970   0.15458   0.00000  Uiso   1.00
O361   O     0.46274   0.53724   0.34968   0.00000  Uiso   1.00
O362   O     0.54157   0.51092   0.14606   0.00000  Uiso   1.00
O363   O     0.50785   0.49213   0.34968   0.00000  Uiso   1.00
O364   O     0.64643   0.47294   0.30206   0.00000  Uiso   1.00
O365   O     0.45925   0.66413   0.30603   0.00000  Uiso   1.00
O366   O     0.51925   0.54349   0.06762   0.00000  Uiso   1.00
O367   O     0.44378   0.58970   0.41676   0.00000  Uiso   1.00
O368   O     0.35674   0.52717   0.20067   0.00000  Uiso   1.00
O369   O     0.51264   0.41352   0.28213   0.00000  Uiso   1.00
O370   O     0.47965   0.59418   0.27013   0.00000  Uiso   1.00
O371   O     0.40745   0.46625   0.23413   0.00000  Uiso   1.00
O372   O     0.60026   0.52605   0.21360   0.00000  Uiso   1.00
O373   O     0.40405   0.52211   0.28213   0.00000  Uiso   1.00
O374   O     0.58824   0.48559   0.27013   0.00000  Uiso   1.00
O375   O     0.47093   0.40277   0.23413   0.00000  Uiso   1.00
O376   O     0.53678   0.58953   0.21360   0.00000  Uiso   1.00
Zn377  Zn    0.52672   0.47327   0.28734   0.00000  Uiso   1.00
Zn378  Zn    0.46713   0.45791   0.21875   0.00000  Uiso   1.00
Zn379  Zn    0.54389   0.53109   0.20657   0.00000  Uiso   1.00
Zn380  Zn    0.46226   0.53773   0.28733   0.00000  Uiso   1.00
C381   C     0.71956   0.49304   0.26027   0.00000  Uiso   1.00
C382   C     0.84887   0.50115   0.05508   0.00000  Uiso   1.00
C383   C     0.86235   0.43117   0.06347   0.00000  Uiso   1.00
C384   C     0.94744   0.50689   0.23996   0.00000  Uiso   1.00
C385   C     0.80629   0.52592   0.42080   0.00000  Uiso   1.00
C386   C     0.99361   0.50828   0.23545   0.00000  Uiso   1.00
C387   C     0.67419   0.49079   0.26540   0.00000  Uiso   1.00
C388   C     0.84420   0.65535   0.23611   0.00000  Uiso   1.00
C389   C     0.81746   0.34562   0.26587   0.00000  Uiso   1.00
C390   C     0.82318   0.38939   0.25989   0.00000  Uiso   1.00
C391   C     0.84287   0.61121   0.24041   0.00000  Uiso   1.00
C392   C     0.78414   0.57153   0.48872   0.00000  Uiso   1.00
C393   C     0.85153   0.48161   0.12931   0.00000  Uiso   1.00
C394   C     0.81446   0.51761   0.37127   0.00000  Uiso   1.00
C395   C     0.85730   0.41789   0.02086   0.00000  Uiso   1.00
C396   C     0.85779   0.47243   0.08100   0.00000  Uiso   1.00
C397   C     0.79020   0.56370   0.44205   0.00000  Uiso   1.00
C398   C     0.75199   0.34572   0.31918   0.00000  Uiso   1.00
C399   C     0.75160   0.38296   0.35459   0.00000  Uiso   1.00
C400   C     0.70624   0.39319   0.37685   0.00000  Uiso   1.00
C401   C     0.78140   0.63259   0.43198   0.00000  Uiso   1.00
C402   C     0.73728   0.64613   0.45577   0.00000  Uiso   1.00
C403   C     0.79893   0.54623   0.01269   0.00000  Uiso   1.00
C404   C     0.74074   0.35573   0.48132   0.00000  Uiso   1.00
C405   C     0.81874   0.51086   0.49157   0.00000  Uiso   1.00
C406   C     0.81683   0.49775   0.44688   0.00000  Uiso   1.00
C407   C     0.83688   0.48609   0.01485   0.00000  Uiso   1.00
C408   C     0.84397   0.44473   0.49670   0.00000  Uiso   1.00
C409   C     0.83655   0.43012   0.45512   0.00000  Uiso   1.00
C410   C     0.82350   0.45620   0.43043   0.00000  Uiso   1.00
H411   H     0.86889   0.40891   0.08339   0.00000  Uiso   1.00
H412   H     0.74082   0.35365   0.29053   0.00000  Uiso   1.00
H413   H     0.76653   0.37573   0.38051   0.00000  Uiso   1.00
H414   H     0.77035   0.41101   0.33909   0.00000  Uiso   1.00
H415   H     0.69088   0.40091   0.35140   0.00000  Uiso   1.00
H416   H     0.70728   0.42049   0.40188   0.00000  Uiso   1.00
H417   H     0.68684   0.36632   0.39431   0.00000  Uiso   1.00
H418   H     0.87199   0.55011   0.08770   0.00000  Uiso   1.00
H419   H     0.79471   0.65046   0.40208   0.00000  Uiso   1.00
H420   H     0.80480   0.64112   0.45290   0.00000  Uiso   1.00
H421   H     0.71885   0.64681   0.43054   0.00000  Uiso   1.00
H422   H     0.86686   0.33540   0.20740   0.00000  Uiso   1.00
H423   H     0.71906   0.62326   0.47970   0.00000  Uiso   1.00
H424   H     0.75870   0.35557   0.00707   0.00000  Uiso   1.00
H425   H     0.70823   0.36415   0.49832   0.00000  Uiso   1.00
H426   H     0.75715   0.37969   0.45808   0.00000  Uiso   1.00
H427   H     0.67504   0.53766   0.18116   0.00000  Uiso   1.00
H428   H     0.84083   0.39826   0.44153   0.00000  Uiso   1.00
H429   H     0.86165   0.38595   0.00775   0.00000  Uiso   1.00
H430   H     0.79197   0.55355   0.04851   0.00000  Uiso   1.00
H431   H     0.76835   0.59763   0.00720   0.00000  Uiso   1.00
H432   H     0.81640   0.44226   0.39955   0.00000  Uiso   1.00
H433   H     0.99678   0.46247   0.31970   0.00000  Uiso   1.00
H434   H     0.72854   0.65324   0.33436   0.00000  Uiso   1.00
O435   O     0.83333   0.50000   0.25000   0.00000  Uiso   1.00
O436   O     0.82118   0.45970   0.15458   0.00000  Uiso   1.00
O437   O     0.79607   0.53724   0.34968   0.00000  Uiso   1.00
O438   O     0.87491   0.51092   0.14606   0.00000  Uiso   1.00
O439   O     0.84118   0.49213   0.34968   0.00000  Uiso   1.00
O440   O     0.97977   0.47294   0.30206   0.00000  Uiso   1.00
O441   O     0.79258   0.66413   0.30603   0.00000  Uiso   1.00
O442   O     0.85258   0.54349   0.06762   0.00000  Uiso   1.00
O443   O     0.77711   0.58970   0.41676   0.00000  Uiso   1.00
O444   O     0.69007   0.52717   0.20067   0.00000  Uiso   1.00
O445   O     0.84597   0.41352   0.28213   0.00000  Uiso   1.00
O446   O     0.81298   0.59418   0.27013   0.00000  Uiso   1.00
O447   O     0.74078   0.46625   0.23413   0.00000  Uiso   1.00
O448   O     0.93360   0.52605   0.21360   0.00000  Uiso   1.00
O449   O     0.73738   0.52211   0.28213   0.00000  Uiso   1.00
O450   O     0.92158   0.48559   0.27013   0.00000  Uiso   1.00
O451   O     0.80426   0.40277   0.23413   0.00000  Uiso   1.00
O452   O     0.87012   0.58953   0.21360   0.00000  Uiso   1.00
Zn453  Zn    0.86005   0.47327   0.28734   0.00000  Uiso   1.00
Zn454  Zn    0.80046   0.45791   0.21875   0.00000  Uiso   1.00
Zn455  Zn    0.87723   0.53109   0.20657   0.00000  Uiso   1.00
Zn456  Zn    0.79560   0.53773   0.28733   0.00000  Uiso   1.00
C457   C     0.05290   0.82637   0.26027   0.00000  Uiso   1.00
C458   C     0.18220   0.83448   0.05508   0.00000  Uiso   1.00
C459   C     0.19568   0.76450   0.06347   0.00000  Uiso   1.00
C460   C     0.28078   0.84022   0.23996   0.00000  Uiso   1.00
C461   C     0.13963   0.85926   0.42080   0.00000  Uiso   1.00
C462   C     0.32694   0.84161   0.23545   0.00000  Uiso   1.00
C463   C     0.00752   0.82412   0.26540   0.00000  Uiso   1.00
C464   C     0.17753   0.98868   0.23611   0.00000  Uiso   1.00
C465   C     0.15080   0.67895   0.26587   0.00000  Uiso   1.00
C466   C     0.15652   0.72272   0.25989   0.00000  Uiso   1.00
C467   C     0.17621   0.94454   0.24041   0.00000  Uiso   1.00
C468   C     0.11748   0.90486   0.48872   0.00000  Uiso   1.00
C469   C     0.18486   0.81494   0.12931   0.00000  Uiso   1.00
C470   C     0.14780   0.85094   0.37127   0.00000  Uiso   1.00
C471   C     0.19063   0.75123   0.02086   0.00000  Uiso   1.00
C472   C     0.19113   0.80577   0.08100   0.00000  Uiso   1.00
C473   C     0.12354   0.89703   0.44205   0.00000  Uiso   1.00
C474   C     0.08532   0.67906   0.31918   0.00000  Uiso   1.00
C475   C     0.08494   0.71630   0.35459   0.00000  Uiso   1.00
C476   C     0.03958   0.72653   0.37685   0.00000  Uiso   1.00
C477   C     0.11474   0.96593   0.43198   0.00000  Uiso   1.00
C478   C     0.07062   0.97946   0.45577   0.00000  Uiso   1.00
C479   C     0.13226   0.87957   0.01269   0.00000  Uiso   1.00
C480   C     0.07408   0.68906   0.48132   0.00000  Uiso   1.00
C481   C     0.15208   0.84420   0.49157   0.00000  Uiso   1.00
C482   C     0.15016   0.83109   0.44688   0.00000  Uiso   1.00
C483   C     0.17022   0.81942   0.01485   0.00000  Uiso   1.00
C484   C     0.17730   0.77807   0.49670   0.00000  Uiso   1.00
C485   C     0.16989   0.76345   0.45512   0.00000  Uiso   1.00
C486   C     0.15684   0.78953   0.43043   0.00000  Uiso   1.00
H487   H     0.20223   0.74224   0.08339   0.00000  Uiso   1.00
H488   H     0.07415   0.68698   0.29053   0.00000  Uiso   1.00
H489   H     0.09986   0.70907   0.38051   0.00000  Uiso   1.00
H490   H     0.10369   0.74435   0.33909   0.00000  Uiso   1.00
H491   H     0.02421   0.73425   0.35140   0.00000  Uiso   1.00
H492   H     0.04061   0.75383   0.40188   0.00000  Uiso   1.00
H493   H     0.02017   0.69966   0.39431   0.00000  Uiso   1.00
H494   H     0.20532   0.88345   0.08770   0.00000  Uiso   1.00
H495   H     0.12804   0.98379   0.40208   0.00000  Uiso   1.00
H496   H     0.13813   0.97445   0.45290   0.00000  Uiso   1.00
H497   H     0.05218   0.98014   0.43054   0.00000  Uiso   1.00
H498   H     0.20019   0.66874   0.20740   0.00000  Uiso   1.00
H499   H     0.05239   0.95659   0.47970   0.00000  Uiso   1.00
H500   H     0.09203   0.68891   0.00707   0.00000  Uiso   1.00
H501   H     0.04156   0.69748   0.49832   0.00000  Uiso   1.00
H502   H     0.09049   0.71302   0.45808   0.00000  Uiso   1.00
H503   H     0.00837   0.87099   0.18116   0.00000  Uiso   1.00
H504   H     0.17416   0.73159   0.44153   0.00000  Uiso   1.00
H505   H     0.19499   0.71928   0.00775   0.00000  Uiso   1.00
H506   H     0.12531   0.88688   0.04851   0.00000  Uiso   1.00
H507   H     0.10168   0.93097   0.00720   0.00000  Uiso   1.00
H508   H     0.14974   0.77559   0.39955   0.00000  Uiso   1.00
H509   H     0.33011   0.79581   0.31970   0.00000  Uiso   1.00
H510   H     0.06188   0.98657   0.33436   0.00000  Uiso   1.00
O511   O     0.16667   0.83333   0.25000   0.00000  Uiso   1.00
O512   O     0.15451   0.79304   0.15458   0.00000  Uiso   1.00
O513   O     0.12940   0.87058   0.34968   0.00000  Uiso   1.00
O514   O     0.20824   0.84425   0.14606   0.00000  Uiso   1.00
O515   O     0.17451   0.82546   0.34968   0.00000  Uiso   1.00
O516   O     0.31310   0.80627   0.30206   0.00000  Uiso   1.00
O517   O     0.12591   0.99746   0.30603   0.00000  Uiso   1.00
O518   O     0.18591   0.87682   0.06762   0.00000  Uiso   1.00
O519   O     0.11045   0.92303   0.41676   0.00000  Uiso   1.00
O520   O     0.02341   0.86050   0.20067   0.00000  Uiso   1.00
O521   O     0.17930   0.74686   0.28213   0.00000  Uiso   1.00
O522   O     0.14632   0.92751   0.27013   0.00000  Uiso   1.00
O523   O     0.07412   0.79958   0.23413   0.00000  Uiso   1.00
O524   O     0.26693   0.85939   0.21360   0.00000  Uiso   1.00
O525   O     0.07071   0.85544   0.28213   0.00000  Uiso   1.00
O526   O     0.25491   0.81892   0.27013   0.00000  Uiso   1.00
O527   O     0.13760   0.73610   0.23413   0.00000  Uiso   1.00
O528   O     0.20345   0.92286   0.21360   0.00000  Uiso   1.00
Zn529  Zn    0.19338   0.80661   0.28734   0.00000  Uiso   1.00
Zn530  Zn    0.13379   0.79124   0.21875   0.00000  Uiso   1.00
Zn531  Zn    0.21056   0.86442   0.20657   0.00000  Uiso   1.00
Zn532  Zn    0.12893   0.87106   0.28733   0.00000  Uiso   1.00
C533   C     0.38623   0.82637   0.26027   0.00000  Uiso   1.00
C534   C     0.51553   0.83448   0.05508   0.00000  Uiso   1.00
C535   C     0.52902   0.76450   0.06347   0.00000  Uiso   1.00
C536   C     0.61411   0.84022   0.23996   0.00000  Uiso   1.00
C537   C     0.47296   0.85926   0.42080   0.00000  Uiso   1.00
C538   C     0.66028   0.84161   0.23545   0.00000  Uiso   1.00
C539   C     0.34086   0.82412   0.26540   0.00000  Uiso   1.00
C540   C     0.51087   0.98868   0.23611   0.00000  Uiso   1.00
C541   C     0.48413   0.67895   0.26587   0.00000  Uiso   1.00
C542   C     0.48985   0.72272   0.25989   0.00000  Uiso   1.00
C543   C     0.50954   0.94454   0.24041   0.00000  Uiso   1.00
C544   C     0.45081   0.90486   0.48872   0.00000  Uiso   1.00
C545   C     0.51819   0.81494   0.12931   0.00000  Uiso   1.00
C546   C     0.48113   0.85094   0.37127   0.00000  Uiso   1.00
C547   C     0.52396   0.75123   0.02086   0.00000  Uiso   1.00
C548   C     0.52446   0.80577   0.08100   0.00000  Uiso   1.00
C549   C     0.45687   0.89703   0.44205   0.00000  Uiso   1.00
C550   C     0.41865   0.67906   0.31918   0.00000  Uiso   1.00
C551   C     0.41827   0.71630   0.35459   0.00000  Uiso   1.00
C552   C     0.37291   0.72653   0.37685   0.00000  Uiso   1.00
C553   C     0.44807   0.96593   0.43198   0.00000  Uiso   1.00
C554   C     0.40395   0.97946   0.45577   0.00000  Uiso   1.00
C555   C     0.46560   0.87957   0.01269   0.00000  Uiso   1.00
C556   C     0.40741   0.68906   0.48132   0.00000  Uiso   1.00
C557   C     0.48541   0.84420   0.49157   0.00000  Uiso   1.00
C558   C     0.48349   0.83109   0.44688   0.00000  Uiso   1.00
C559   C     0.50355   0.81942   0.01485   0.00000  Uiso   1.00
C560   C     0.51064   0.77807   0.49670   0.00000  Uiso   1.00
C561   C     0.50322   0.76345   0.45512   0.00000  Uiso   1.00
C562   C     0.49017   0.78953   0.43043   0.00000  Uiso   1.00
H563   H     0.53556   0.74224   0.08339   0.00000  Uiso   1.00
H564   H     0.40749   0.68698   0.29053   0.00000  Uiso   1.00
H565   H     0.43320   0.70907   0.38051   0.00000  Uiso   1.00
H566   H     0.43702   0.74435   0.33909   0.00000  Uiso   1.00
H567   H     0.35754   0.73425   0.35140   0.00000  Uiso   1.00
H568   H     0.37395   0.75383   0.40188   0.00000  Uiso   1.00
H569   H     0.35351   0.69966   0.39431   0.00000  Uiso   1.00
H570   H     0.53865   0.88345   0.08770   0.00000  Uiso   1.00
H571   H     0.46137   0.98379   0.40208   0.00000  Uiso   1.00
H572   H     0.47147   0.97445   0.45290   0.00000  Uiso   1.00
H573   H     0.38552   0.98014   0.43054   0.00000  Uiso   1.00
H574   H     0.53353   0.66874   0.20740   0.00000  Uiso   1.00
H575   H     0.38572   0.95659   0.47970   0.00000  Uiso   1.00
H576   H     0.42536   0.68891   0.00707   0.00000  Uiso   1.00
H577   H     0.37490   0.69748   0.49832   0.00000  Uiso   1.00
H578   H     0.42382   0.71302   0.45808   0.00000  Uiso   1.00
H579   H     0.34171   0.87099   0.18116   0.00000  Uiso   1.00
H580   H     0.50750   0.73159   0.44153   0.00000  Uiso   1.00
H581   H     0.52832   0.71928   0.00775   0.00000  Uiso   1.00
H582   H     0.45864   0.88688   0.04851   0.00000  Uiso   1.00
H583   H     0.43502   0.93097   0.00720   0.00000  Uiso   1.00
H584   H     0.48307   0.77559   0.39955   0.00000  Uiso   1.00
H585   H     0.66344   0.79581   0.31970   0.00000  Uiso   1.00
H586   H     0.39521   0.98657   0.33436   0.00000  Uiso   1.00
O587   O     0.50000   0.83333   0.25000   0.00000  Uiso   1.00
O588   O     0.48784   0.79304   0.15458   0.00000  Uiso   1.00
O589   O     0.46274   0.87058   0.34968   0.00000  Uiso   1.00
O590   O     0.54157   0.84425   0.14606   0.00000  Uiso   1.00
O591   O     0.50785   0.82546   0.34968   0.00000  Uiso   1.00
O592   O     0.64643   0.80627   0.30206   0.00000  Uiso   1.00
O593   O     0.45925   0.99746   0.30603   0.00000  Uiso   1.00
O594   O     0.51925   0.87682   0.06762   0.00000  Uiso   1.00
O595   O     0.44378   0.92303   0.41676   0.00000  Uiso   1.00
O596   O     0.35674   0.86050   0.20067   0.00000  Uiso   1.00
O597   O     0.51264   0.74686   0.28213   0.00000  Uiso   1.00
O598   O     0.47965   0.92751   0.27013   0.00000  Uiso   1.00
O599   O     0.40745   0.79958   0.23413   0.00000  Uiso   1.00
O600   O     0.60026   0.85939   0.21360   0.00000  Uiso   1.00
O601   O     0.40405   0.85544   0.28213   0.00000  Uiso   1.00
O602   O     0.58824   0.81892   0.27013   0.00000  Uiso   1.00
O603   O     0.47093   0.73610   0.23413   0.00000  Uiso   1.00
O604   O     0.53678   0.92286   0.21360   0.00000  Uiso   1.00
Zn605  Zn    0.52672   0.80661   0.28734   0.00000  Uiso   1.00
Zn606  Zn    0.46713   0.79124   0.21875   0.00000  Uiso   1.00
Zn607  Zn    0.54389   0.86442   0.20657   0.00000  Uiso   1.00
Zn608  Zn    0.46226   0.87106   0.28733   0.00000  Uiso   1.00
C609   C     0.71956   0.82637   0.26027   0.00000  Uiso   1.00
C610   C     0.84887   0.83448   0.05508   0.00000  Uiso   1.00
C611   C     0.86235   0.76450   0.06347   0.00000  Uiso   1.00
C612   C     0.94744   0.84022   0.23996   0.00000  Uiso   1.00
C613   C     0.80629   0.85926   0.42080   0.00000  Uiso   1.00
C614   C     0.99361   0.84161   0.23545   0.00000  Uiso   1.00
C615   C     0.67419   0.82412   0.26540   0.00000  Uiso   1.00
C616   C     0.84420   0.98868   0.23611   0.00000  Uiso   1.00
C617   C     0.81746   0.67895   0.26587   0.00000  Uiso   1.00
C618   C     0.82318   0.72272   0.25989   0.00000  Uiso   1.00
C619   C     0.84287   0.94454   0.24041   0.00000  Uiso   1.00
C620   C     0.78414   0.90486   0.48872   0.00000  Uiso   1.00
C621   C     0.85153   0.81494   0.12931   0.00000  Uiso   1.00
C622   C     0.81446   0.85094   0.37127   0.00000  Uiso   1.00
C623   C     0.85730   0.75123   0.02086   0.00000  Uiso   1.00
C624   C     0.85779   0.80577   0.08100   0.00000  Uiso   1.00
C625   C     0.79020   0.89703   0.44205   0.00000  Uiso   1.00
C626   C     0.75199   0.67906   0.31918   0.00000  Uiso   1.00
C627   C     0.75160   0.71630   0.35459   0.00000  Uiso   1.00
C628   C     0.70624   0.72653   0.37685   0.00000  Uiso   1.00
C629   C     0.78140   0.96593   0.43198   0.00000  Uiso   1.00
C630   C     0.73728   0.97946   0.45577   0.00000  Uiso   1.00
C631   C     0.79893   0.87957   0.01269   0.00000  Uiso   1.00
C632   C     0.74074   0.68906   0.48132   0.00000  Uiso   1.00
C633   C     0.81874   0.84420   0.49157   0.00000  Uiso   1.00
C634   C     0.81683   0.83109   0.44688   0.00000  Uiso   1.00
C635   C     0.83688   0.81942   0.01485   0.00000  Uiso   1.00
C636   C     0.84397   0.77807   0.49670   0.00000  Uiso   1.00
C637   C     0.83655   0.76345   0.45512   0.00000  Uiso   1.00
C638   C     0.82350   0.78953   0.43043   0.00000  Uiso   1.00
H639   H     0.86889   0.74224   0.08339   0.00000  Uiso   1.00
H640   H     0.74082   0.68698   0.29053   0.00000  Uiso   1.00
H641   H     0.76653   0.70907   0.38051   0.00000  Uiso   1.00
H642   H     0.77035   0.74435   0.33909   0.00000  Uiso   1.00
H643   H     0.69088   0.73425   0.35140   0.00000  Uiso   1.00
H644   H     0.70728   0.75383   0.40188   0.00000  Uiso   1.00
H645   H     0.68684   0.69966   0.39431   0.00000  Uiso   1.00
H646   H     0.87199   0.88345   0.08770   0.00000  Uiso   1.00
H647   H     0.79471   0.98379   0.40208   0.00000  Uiso   1.00
H648   H     0.80480   0.97445   0.45290   0.00000  Uiso   1.00
H649   H     0.71885   0.98014   0.43054   0.00000  Uiso   1.00
H650   H     0.86686   0.66874   0.20740   0.00000  Uiso   1.00
H651   H     0.71906   0.95659   0.47970   0.00000  Uiso   1.00
H652   H     0.75870   0.68891   0.00707   0.00000  Uiso   1.00
H653   H     0.70823   0.69748   0.49832   0.00000  Uiso   1.00
H654   H     0.75715   0.71302   0.45808   0.00000  Uiso   1.00
H655   H     0.67504   0.87099   0.18116   0.00000  Uiso   1.00
H656   H     0.84083   0.73159   0.44153   0.00000  Uiso   1.00
H657   H     0.86165   0.71928   0.00775   0.00000  Uiso   1.00
H658   H     0.79197   0.88688   0.04851   0.00000  Uiso   1.00
H659   H     0.76835   0.93097   0.00720   0.00000  Uiso   1.00
H660   H     0.81640   0.77559   0.39955   0.00000  Uiso   1.00
H661   H     0.99678   0.79581   0.31970   0.00000  Uiso   1.00
H662   H     0.72854   0.98657   0.33436   0.00000  Uiso   1.00
O663   O     0.83333   0.83333   0.25000   0.00000  Uiso   1.00
O664   O     0.82118   0.79304   0.15458   0.00000  Uiso   1.00
O665   O     0.79607   0.87058   0.34968   0.00000  Uiso   1.00
O666   O     0.87491   0.84425   0.14606   0.00000  Uiso   1.00
O667   O     0.84118   0.82546   0.34968   0.00000  Uiso   1.00
O668   O     0.97977   0.80627   0.30206   0.00000  Uiso   1.00
O669   O     0.79258   0.99746   0.30603   0.00000  Uiso   1.00
O670   O     0.85258   0.87682   0.06762   0.00000  Uiso   1.00
O671   O     0.77711   0.92303   0.41676   0.00000  Uiso   1.00
O672   O     0.69007   0.86050   0.20067   0.00000  Uiso   1.00
O673   O     0.84597   0.74686   0.28213   0.00000  Uiso   1.00
O674   O     0.81298   0.92751   0.27013   0.00000  Uiso   1.00
O675   O     0.74078   0.79958   0.23413   0.00000  Uiso   1.00
O676   O     0.93360   0.85939   0.21360   0.00000  Uiso   1.00
O677   O     0.73738   0.85544   0.28213   0.00000  Uiso   1.00
O678   O     0.92158   0.81892   0.27013   0.00000  Uiso   1.00
O679   O     0.80426   0.73610   0.23413   0.00000  Uiso   1.00
O680   O     0.87012   0.92286   0.21360   0.00000  Uiso   1.00
Zn681  Zn    0.86005   0.80661   0.28734   0.00000  Uiso   1.00
Zn682  Zn    0.80046   0.79124   0.21875   0.00000  Uiso   1.00
Zn683  Zn    0.87723   0.86442   0.20657   0.00000  Uiso   1.00
Zn684  Zn    0.79560   0.87106   0.28733   0.00000  Uiso   1.00
C685   C     0.05290   0.15970   0.76027   0.00000  Uiso   1.00
C686   C     0.18220   0.16782   0.55508   0.00000  Uiso   1.00
C687   C     0.19568   0.09784   0.56347   0.00000  Uiso   1.00
C688   C     0.28078   0.17356   0.73996   0.00000  Uiso   1.00
C689   C     0.13963   0.19259   0.92080   0.00000  Uiso   1.00
C690   C     0.32694   0.17494   0.73545   0.00000  Uiso   1.00
C691   C     0.00752   0.15745   0.76540   0.00000  Uiso   1.00
C692   C     0.17753   0.32201   0.73611   0.00000  Uiso   1.00
C693   C     0.15080   0.01229   0.76587   0.00000  Uiso   1.00
C694   C     0.15652   0.05606   0.75989   0.00000  Uiso   1.00
C695   C     0.17621   0.27787   0.74041   0.00000  Uiso   1.00
C696   C     0.11748   0.23820   0.98872   0.00000  Uiso   1.00
C697   C     0.18486   0.14828   0.62931   0.00000  Uiso   1.00
C698   C     0.14780   0.18428   0.87127   0.00000  Uiso   1.00
C699   C     0.19063   0.08456   0.52086   0.00000  Uiso   1.00
C700   C     0.19113   0.13910   0.58100   0.00000  Uiso   1.00
C701   C     0.12354   0.23037   0.94205   0.00000  Uiso   1.00
C702   C     0.08532   0.01239   0.81918   0.00000  Uiso   1.00
C703   C     0.08494   0.04963   0.85459   0.00000  Uiso   1.00
C704   C     0.03958   0.05986   0.87685   0.00000  Uiso   1.00
C705   C     0.11474   0.29926   0.93198   0.00000  Uiso   1.00
C706   C     0.07062   0.31280   0.95577   0.00000  Uiso   1.00
C707   C     0.13226   0.21290   0.51269   0.00000  Uiso   1.00
C708   C     0.07408   0.02240   0.98132   0.00000  Uiso   1.00
C709   C     0.15208   0.17753   0.99157   0.00000  Uiso   1.00
C710   C     0.15016   0.16442   0.94688   0.00000  Uiso   1.00
C711   C     0.17022   0.15275   0.51485   0.00000  Uiso   1.00
C712   C     0.17730   0.11140   0.99670   0.00000  Uiso   1.00
C713   C     0.16989   0.09679   0.95512   0.00000  Uiso   1.00
C714   C     0.15684   0.12286   0.93043   0.00000  Uiso   1.00
H715   H     0.20223   0.07557   0.58339   0.00000  Uiso   1.00
H716   H     0.07415   0.02031   0.79053   0.00000  Uiso   1.00
H717   H     0.09986   0.04240   0.88051   0.00000  Uiso   1.00
H718   H     0.10369   0.07768   0.83909   0.00000  Uiso   1.00
H719   H     0.02421   0.06758   0.85140   0.00000  Uiso   1.00
H720   H     0.04061   0.08716   0.90188   0.00000  Uiso   1.00
H721   H     0.02017   0.03299   0.89431   0.00000  Uiso   1.00
H722   H     0.20532   0.21678   0.58770   0.00000  Uiso   1.00
H723   H     0.12804   0.31712   0.90208   0.00000  Uiso   1.00
H724   H     0.13813   0.30779   0.95290   0.00000  Uiso   1.00
H725   H     0.05218   0.31347   0.93054   0.00000  Uiso   1.00
H726   H     0.20019   0.00207   0.70740   0.00000  Uiso   1.00
H727   H     0.05239   0.28993   0.97970   0.00000  Uiso   1.00
H728   H     0.09203   0.02224   0.50707   0.00000  Uiso   1.00
H729   H     0.04156   0.03082   0.99832   0.00000  Uiso   1.00
H730   H     0.09049   0.04636   0.95808   0.00000  Uiso   1.00
H731   H     0.00837   0.20432   0.68116   0.00000  Uiso   1.00
H732   H     0.17416   0.06493   0.94153   0.00000  Uiso   1.00
H733   H     0.19499   0.05261   0.50775   0.00000  Uiso   1.00
H734   H     0.12531   0.22022   0.54851   0.00000  Uiso   1.00
H735   H     0.10168   0.26430   0.50720   0.00000  Uiso   1.00
H736   H     0.14974   0.10893   0.89955   0.00000  Uiso   1.00
H737   H     0.33011   0.12914   0.81970   0.00000  Uiso   1.00
H738   H     0.06188   0.31990   0.83436   0.00000  Uiso   1.00
O739   O     0.16667   0.16667   0.75000   0.00000  Uiso   1.00
O740   O     0.15451   0.12637   0.65458   0.00000  Uiso   1.00
O741   O     0.12940   0.20391   0.84968   0.00000  Uiso   1.00
O742   O     0.20824   0.17759   0.64606   0.00000  Uiso   1.00
O743   O     0.17451   0.15880   0.84968   0.00000  Uiso   1.00
O744   O     0.31310   0.13961   0.80206   0.00000  Uiso   1.00
O745   O     0.12591   0.33079   0.80603   0.00000  Uiso   1.00
O746   O     0.18591   0.21015   0.56762   0.00000  Uiso   1.00
O747   O     0.11045   0.25636   0.91676   0.00000  Uiso   1.00
O748   O     0.02341   0.19384   0.70067   0.00000  Uiso   1.00
O749   O     0.17930   0.08019   0.78213   0.00000  Uiso   1.00
O750   O     0.14632   0.26085   0.77013   0.00000  Uiso   1.00
O751   O     0.07412   0.13291   0.73413   0.00000  Uiso   1.00
O752   O     0.26693   0.19272   0.71360   0.00000  Uiso   1.00
O753   O     0.07071   0.18878   0.78213   0.00000  Uiso   1.00
O754   O     0.25491   0.15226   0.77013   0.00000  Uiso   1.00
O755   O     0.13760   0.06944   0.73413   0.00000  Uiso   1.00
O756   O     0.20345   0.25620   0.71360   0.00000  Uiso   1.00
Zn757  Zn    0.19338   0.13994   0.78734   0.00000  Uiso   1.00
Zn758  Zn    0.13379   0.12458   0.71875   0.00000  Uiso   1.00
Zn759  Zn    0.21056   0.19775   0.70657   0.00000  Uiso   1.00
Zn760  Zn    0.12893   0.20439   0.78733   0.00000  Uiso   1.00
C761   C     0.38623   0.15970   0.76027   0.00000  Uiso   1.00
C762   C     0.51553   0.16782   0.55508   0.00000  Uiso   1.00
C763   C     0.52902   0.09784   0.56347   0.00000  Uiso   1.00
C764   C     0.61411   0.17356   0.73996   0.00000  Uiso   1.00
C765   C     0.47296   0.19259   0.92080   0.00000  Uiso   1.00
C766   C     0.66028   0.17494   0.73545   0.00000  Uiso   1.00
C767   C     0.34086   0.15745   0.76540   0.00000  Uiso   1.00
C768   C     0.51087   0.32201   0.73611   0.00000  Uiso   1.00
C769   C     0.48413   0.01229   0.76587   0.00000  Uiso   1.00
C770   C     0.48985   0.05606   0.75989   0.00000  Uiso   1.00
C771   C     0.50954   0.27787   0.74041   0.00000  Uiso   1.00
C772   C     0.45081   0.23820   0.98872   0.00000  Uiso   1.00
C773   C     0.51819   0.14828   0.62931   0.00000  Uiso   1.00
C774   C     0.48113   0.18428   0.87127   0.00000  Uiso   1.00
C775   C     0.52396   0.08456   0.52086   0.00000  Uiso   1.00
C776   C     0.52446   0.13910   0.58100   0.00000  Uiso   1.00
C777   C     0.45687   0.23037   0.94205   0.00000  Uiso   1.00
C778   C     0.41865   0.01239   0.81918   0.00000  Uiso   1.00
C779   C     0.41827   0.04963   0.85459   0.00000  Uiso   1.00
C780   C     0.37291   0.05986   0.87685   0.00000  Uiso   1.00
C781   C     0.44807   0.29926   0.93198   0.00000  Uiso   1.00
C782   C     0.40395   0.31280   0.95577   0.00000  Uiso   1.00
C783   C     0.46560   0.21290   0.51269   0.00000  Uiso   1.00
C784   C     0.40741   0.02240   0.98132   0.00000  Uiso   1.00
C785   C     0.48541   0.17753   0.99157   0.00000  Uiso   1.00
C786   C     0.48349   0.16442   0.94688   0.00000  Uiso   1.00
C787   C     0.50355   0.15275   0.51485   0.00000  Uiso   1.00
C788   C     0.51064   0.11140   0.99670   0.00000  Uiso   1.00
C789   C     0.50322   0.09679   0.95512   0.00000  Uiso   1.00
C790   C     0.49017   0.12286   0.93043   0.00000  Uiso   1.00
H791   H     0.53556   0.07557   0.58339   0.00000  Uiso   1.00
H792   H     0.40749   0.02031   0.79053   0.00000  Uiso   1.00
H793   H     0.43320   0.04240   0.88051   0.00000  Uiso   1.00
H794   H     0.43702   0.07768   0.83909   0.00000  Uiso   1.00
H795   H     0.35754   0.06758   0.85140   0.00000  Uiso   1.00
H796   H     0.37395   0.08716   0.90188   0.00000  Uiso   1.00
H797   H     0.35351   0.03299   0.89431   0.00000  Uiso   1.00
H798   H     0.53865   0.21678   0.58770   0.00000  Uiso   1.00
H799   H     0.46137   0.31712   0.90208   0.00000  Uiso   1.00
H800   H     0.47147   0.30779   0.95290   0.00000  Uiso   1.00
H801   H     0.38552   0.31347   0.93054   0.00000  Uiso   1.00
H802   H     0.53353   0.00207   0.70740   0.00000  Uiso   1.00
H803   H     0.38572   0.28993   0.97970   0.00000  Uiso   1.00
H804   H     0.42536   0.02224   0.50707   0.00000  Uiso   1.00
H805   H     0.37490   0.03082   0.99832   0.00000  Uiso   1.00
H806   H     0.42382   0.04636   0.95808   0.00000  Uiso   1.00
H807   H     0.34171   0.20432   0.68116   0.00000  Uiso   1.00
H808   H     0.50750   0.06493   0.94153   0.00000  Uiso   1.00
H809   H     0.52832   0.05261   0.50775   0.00000  Uiso   1.00
H810   H     0.45864   0.22022   0.54851   0.00000  Uiso   1.00
H811   H     0.43502   0.26430   0.50720   0.00000  Uiso   1.00
H812   H     0.48307   0.10893   0.89955   0.00000  Uiso   1.00
H813   H     0.66344   0.12914   0.81970   0.00000  Uiso   1.00
H814   H     0.39521   0.31990   0.83436   0.00000  Uiso   1.00
O815   O     0.50000   0.16667   0.75000   0.00000  Uiso   1.00
O816   O     0.48784   0.12637   0.65458   0.00000  Uiso   1.00
O817   O     0.46274   0.20391   0.84968   0.00000  Uiso   1.00
O818   O     0.54157   0.17759   0.64606   0.00000  Uiso   1.00
O819   O     0.50785   0.15880   0.84968   0.00000  Uiso   1.00
O820   O     0.64643   0.13961   0.80206   0.00000  Uiso   1.00
O821   O     0.45925   0.33079   0.80603   0.00000  Uiso   1.00
O822   O     0.51925   0.21015   0.56762   0.00000  Uiso   1.00
O823   O     0.44378   0.25636   0.91676   0.00000  Uiso   1.00
O824   O     0.35674   0.19384   0.70067   0.00000  Uiso   1.00
O825   O     0.51264   0.08019   0.78213   0.00000  Uiso   1.00
O826   O     0.47965   0.26085   0.77013   0.00000  Uiso   1.00
O827   O     0.40745   0.13291   0.73413   0.00000  Uiso   1.00
O828   O     0.60026   0.19272   0.71360   0.00000  Uiso   1.00
O829   O     0.40405   0.18878   0.78213   0.00000  Uiso   1.00
O830   O     0.58824   0.15226   0.77013   0.00000  Uiso   1.00
O831   O     0.47093   0.06944   0.73413   0.00000  Uiso   1.00
O832   O     0.53678   0.25620   0.71360   0.00000  Uiso   1.00
Zn833  Zn    0.52672   0.13994   0.78734   0.00000  Uiso   1.00
Zn834  Zn    0.46713   0.12458   0.71875   0.00000  Uiso   1.00
Zn835  Zn    0.54389   0.19775   0.70657   0.00000  Uiso   1.00
Zn836  Zn    0.46226   0.20439   0.78733   0.00000  Uiso   1.00
C837   C     0.71956   0.15970   0.76027   0.00000  Uiso   1.00
C838   C     0.84887   0.16782   0.55508   0.00000  Uiso   1.00
C839   C     0.86235   0.09784   0.56347   0.00000  Uiso   1.00
C840   C     0.94744   0.17356   0.73996   0.00000  Uiso   1.00
C841   C     0.80629   0.19259   0.92080   0.00000  Uiso   1.00
C842   C     0.99361   0.17494   0.73545   0.00000  Uiso   1.00
C843   C     0.67419   0.15745   0.76540   0.00000  Uiso   1.00
C844   C     0.84420   0.32201   0.73611   0.00000  Uiso   1.00
C845   C     0.81746   0.01229   0.76587   0.00000  Uiso   1.00
C846   C     0.82318   0.05606   0.75989   0.00000  Uiso   1.00
C847   C     0.84287   0.27787   0.74041   0.00000  Uiso   1.00
C848   C     0.78414   0.23820   0.98872   0.00000  Uiso   1.00
C849   C     0.85153   0.14828   0.62931   0.00000  Uiso   1.00
C850   C     0.81446   0.18428   0.87127   0.00000  Uiso   1.00
C851   C     0.85730   0.08456   0.52086   0.00000  Uiso   1.00
C852   C     0.85779   0.13910   0.58100   0.00000  Uiso   1.00
C853   C     0.79020   0.23037   0.94205   0.00000  Uiso   1.00
C854   C     0.75199   0.01239   0.81918   0.00000  Uiso   1.00
C855   C     0.75160   0.04963   0.85459   0.00000  Uiso   1.00
C856   C     0.70624   0.05986   0.87685   0.00000  Uiso   1.00
C857   C     0.78140   0.29926   0.93198   0.00000  Uiso   1.00
C858   C     0.73728   0.31280   0.95577   0.00000  Uiso   1.00
C859   C     0.79893   0.21290   0.51269   0.00000  Uiso   1.00
C860   C     0.74074   0.02240   0.98132   0.00000  Uiso   1.00
C861   C     0.81874   0.17753   0.99157   0.00000  Uiso   1.00
C862   C     0.81683   0.16442   0.94688   0.00000  Uiso   1.00
C863   C     0.83688   0.15275   0.51485   0.00000  Uiso   1.00
C864   C     0.84397   0.11140   0.99670   0.00000  Uiso   1.00
C865   C     0.83655   0.09679   0.95512   0.00000  Uiso   1.00
C866   C     0.82350   0.12286   0.93043   0.00000  Uiso   1.00
H867   H     0.86889   0.07557   0.58339   0.00000  Uiso   1.00
H868   H     0.74082   0.02031   0.79053   0.00000  Uiso   1.00
H869   H     0.76653   0.04240   0.88051   0.00000  Uiso   1.00
H870   H     0.77035   0.07768   0.83909   0.00000  Uiso   1.00
H871   H     0.69088   0.06758   0.85140   0.00000  Uiso   1.00
H872   H     0.70728   0.08716   0.90188   0.00000  Uiso   1.00
H873   H     0.68684   0.03299   0.89431   0.00000  Uiso   1.00
H874   H     0.87199   0.21678   0.58770   0.00000  Uiso   1.00
H875   H     0.79471   0.31712   0.90208   0.00000  Uiso   1.00
H876   H     0.80480   0.30779   0.95290   0.00000  Uiso   1.00
H877   H     0.71885   0.31347   0.93054   0.00000  Uiso   1.00
H878   H     0.86686   0.00207   0.70740   0.00000  Uiso   1.00
H879   H     0.71906   0.28993   0.97970   0.00000  Uiso   1.00
H880   H     0.75870   0.02224   0.50707   0.00000  Uiso   1.00
H881   H     0.70823   0.03082   0.99832   0.00000  Uiso   1.00
H882   H     0.75715   0.04636   0.95808   0.00000  Uiso   1.00
H883   H     0.67504   0.20432   0.68116   0.00000  Uiso   1.00
H884   H     0.84083   0.06493   0.94153   0.00000  Uiso   1.00
H885   H     0.86165   0.05261   0.50775   0.00000  Uiso   1.00
H886   H     0.79197   0.22022   0.54851   0.00000  Uiso   1.00
H887   H     0.76835   0.26430   0.50720   0.00000  Uiso   1.00
H888   H     0.81640   0.10893   0.89955   0.00000  Uiso   1.00
H889   H     0.99678   0.12914   0.81970   0.00000  Uiso   1.00
H890   H     0.72854   0.31990   0.83436   0.00000  Uiso   1.00
O891   O     0.83333   0.16667   0.75000   0.00000  Uiso   1.00
O892   O     0.82118   0.12637   0.65458   0.00000  Uiso   1.00
O893   O     0.79607   0.20391   0.84968   0.00000  Uiso   1.00
O894   O     0.87491   0.17759   0.64606   0.00000  Uiso   1.00
O895   O     0.84118   0.15880   0.84968   0.00000  Uiso   1.00
O896   O     0.97977   0.13961   0.80206   0.00000  Uiso   1.00
O897   O     0.79258   0.33079   0.80603   0.00000  Uiso   1.00
O898   O     0.85258   0.21015   0.56762   0.00000  Uiso   1.00
O899   O     0.77711   0.25636   0.91676   0.00000  Uiso   1.00
O900   O     0.69007   0.19384   0.70067   0.00000  Uiso   1.00
O901   O     0.84597   0.08019   0.78213   0.00000  Uiso   1.00
O902   O     0.81298   0.26085   0.77013   0.00000  Uiso   1.00
O903   O     0.74078   0.13291   0.73413   0.00000  Uiso   1.00
O904   O     0.93360   0.19272   0.71360   0.00000  Uiso   1.00
O905   O     0.73738   0.18878   0.78213   0.00000  Uiso   1.00
O906   O     0.92158   0.15226   0.77013   0.00000  Uiso   1.00
O907   O     0.80426   0.06944   0.73413   0.00000  Uiso   1.00
O908   O     0.87012   0.25620   0.71360   0.00000  Uiso   1.00
Zn909  Zn    0.86005   0.13994   0.78734   0.00000  Uiso   1.00
Zn910  Zn    0.80046   0.12458   0.71875   0.00000  Uiso   1.00
Zn911  Zn    0.87723   0.19775   0.70657   0.00000  Uiso   1.00
Zn912  Zn    0.79560   0.20439   0.78733   0.00000  Uiso   1.00
C913   C     0.05290   0.49304   0.76027   0.00000  Uiso   1.00
C914   C     0.18220   0.50115   0.55508   0.00000  Uiso   1.00
C915   C     0.19568   0.43117   0.56347   0.00000  Uiso   1.00
C916   C     0.28078   0.50689   0.73996   0.00000  Uiso   1.00
C917   C     0.13963   0.52592   0.92080   0.00000  Uiso   1.00
C918   C     0.32694   0.50828   0.73545   0.00000  Uiso   1.00
C919   C     0.00752   0.49079   0.76540   0.00000  Uiso   1.00
C920   C     0.17753   0.65535   0.73611   0.00000  Uiso   1.00
C921   C     0.15080   0.34562   0.76587   0.00000  Uiso   1.00
C922   C     0.15652   0.38939   0.75989   0.00000  Uiso   1.00
C923   C     0.17621   0.61121   0.74041   0.00000  Uiso   1.00
C924   C     0.11748   0.57153   0.98872   0.00000  Uiso   1.00
C925   C     0.18486   0.48161   0.62931   0.00000  Uiso   1.00
C926   C     0.14780   0.51761   0.87127   0.00000  Uiso   1.00
C927   C     0.19063   0.41789   0.52086   0.00000  Uiso   1.00
C928   C     0.19113   0.47243   0.58100   0.00000  Uiso   1.00
C929   C     0.12354   0.56370   0.94205   0.00000  Uiso   1.00
C930   C     0.08532   0.34572   0.81918   0.00000  Uiso   1.00
C931   C     0.08494   0.38296   0.85459   0.00000  Uiso   1.00
C932   C     0.03958   0.39319   0.87685   0.00000  Uiso   1.00
C933   C     0.11474   0.63259   0.93198   0.00000  Uiso   1.00
C934   C     0.07062   0.64613   0.95577   0.00000  Uiso   1.00
C935   C     0.13226   0.54623   0.51269   0.00000  Uiso   1.00
C936   C     0.07408   0.35573   0.98132   0.00000  Uiso   1.00
C937   C     0.15208   0.51086   0.99157   0.00000  Uiso   1.00
C938   C     0.15016   0.49775   0.94688   0.00000  Uiso   1.00
C939   C     0.17022   0.48609   0.51485   0.00000  Uiso   1.00
C940   C     0.17730   0.44473   0.99670   0.00000  Uiso   1.00
C941   C     0.16989   0.43012   0.95512   0.00000  Uiso   1.00
C942   C     0.15684   0.45620   0.93043   0.00000  Uiso   1.00
H943   H     0.20223   0.40891   0.58339   0.00000  Uiso   1.00
H944   H     0.07415   0.35365   0.79053   0.00000  Uiso   1.00
H945   H     0.09986   0.37573   0.88051   0.00000  Uiso   1.00
H946   H     0.10369   0.41101   0.83909   0.00000  Uiso   1.00
H947   H     0.02421   0.40091   0.85140   0.00000  Uiso   1.00
H948   H     0.04061   0.42049   0.90188   0.00000  Uiso   1.00
H949   H     0.02017   0.36632   0.89431   0.00000  Uiso   1.00
H950   H     0.20532   0.55011   0.58770   0.00000  Uiso   1.00
H951   H     0.12804   0.65046   0.90208   0.00000  Uiso   1.00
H952   H     0.13813   0.64112   0.95290   0.00000  Uiso   1.00
H953   H     0.05218   0.64681   0.93054   0.00000  Uiso   1.00
H954   H     0.20019   0.33540   0.70740   0.00000  Uiso   1.00
H955   H     0.05239   0.62326   0.97970   0.00000  Uiso   1.00
H956   H     0.09203   0.35557   0.50707   0.00000  Uiso   1.00
H957   H     0.04156   0.36415   0.99832   0.00000  Uiso   1.00
H958   H     0.09049   0.37969   0.95808   0.00000  Uiso   1.00
H959   H     0.00837   0.53766   0.68116   0.00000  Uiso   1.00
H960   H     0.17416   0.39826   0.94153   0.00000  Uiso   1.00
H961   H     0.19499   0.38595   0.50775   0.00000  Uiso   1.00
H962   H     0.12531   0.55355   0.54851   0.00000  Uiso   1.00
H963   H     0.10168   0.59763   0.50720   0.00000  Uiso   1.00
H964   H     0.14974   0.44226   0.89955   0.00000  Uiso   1.00
H965   H     0.33011   0.46247   0.81970   0.00000  Uiso   1.00
H966   H     0.06188   0.65324   0.83436   0.00000  Uiso   1.00
O967   O     0.16667   0.50000   0.75000   0.00000  Uiso   1.00
O968   O     0.15451   0.45970   0.65458   0.00000  Uiso   1.00
O969   O     0.12940   0.53724   0.84968   0.00000  Uiso   1.00
O970   O     0.20824   0.51092   0.64606   0.00000  Uiso   1.00
O971   O     0.17451   0.49213   0.84968   0.00000  Uiso   1.00
O972   O     0.31310   0.47294   0.80206   0.00000  Uiso   1.00
O973   O     0.12591   0.66413   0.80603   0.00000  Uiso   1.00
O974   O     0.18591   0.54349   0.56762   0.00000  Uiso   1.00
O975   O     0.11045   0.58970   0.91676   0.00000  Uiso   1.00
O976   O     0.02341   0.52717   0.70067   0.00000  Uiso   1.00
O977   O     0.17930   0.41352   0.78213   0.00000  Uiso   1.00
O978   O     0.14632   0.59418   0.77013   0.00000  Uiso   1.00
O979   O     0.07412   0.46625   0.73413   0.00000  Uiso   1.00
O980   O     0.26693   0.52605   0.71360   0.00000  Uiso   1.00
O981   O     0.07071   0.52211   0.78213   0.00000  Uiso   1.00
O982   O     0.25491   0.48559   0.77013   0.00000  Uiso   1.00
O983   O     0.13760   0.40277   0.73413   0.00000  Uiso   1.00
O984   O     0.20345   0.58953   0.71360   0.00000  Uiso   1.00
Zn985  Zn    0.19338   0.47327   0.78734   0.00000  Uiso   1.00
Zn986  Zn    0.13379   0.45791   0.71875   0.00000  Uiso   1.00
Zn987  Zn    0.21056   0.53109   0.70657   0.00000  Uiso   1.00
Zn988  Zn    0.12893   0.53773   0.78733   0.00000  Uiso   1.00
C989   C     0.38623   0.49304   0.76027   0.00000  Uiso   1.00
C990   C     0.51553   0.50115   0.55508   0.00000  Uiso   1.00
C991   C     0.52902   0.43117   0.56347   0.00000  Uiso   1.00
C992   C     0.61411   0.50689   0.73996   0.00000  Uiso   1.00
C993   C     0.47296   0.52592   0.92080   0.00000  Uiso   1.00
C994   C     0.66028   0.50828   0.73545   0.00000  Uiso   1.00
C995   C     0.34086   0.49079   0.76540   0.00000  Uiso   1.00
C996   C     0.51087   0.65535   0.73611   0.00000  Uiso   1.00
C997   C     0.48413   0.34562   0.76587   0.00000  Uiso   1.00
C998   C     0.48985   0.38939   0.75989   0.00000  Uiso   1.00
C999   C     0.50954   0.61121   0.74041   0.00000  Uiso   1.00
C1000  C     0.45081   0.57153   0.98872   0.00000  Uiso   1.00
C1001  C     0.51819   0.48161   0.62931   0.00000  Uiso   1.00
C1002  C     0.48113   0.51761   0.87127   0.00000  Uiso   1.00
C1003  C     0.52396   0.41789   0.52086   0.00000  Uiso   1.00
C1004  C     0.52446   0.47243   0.58100   0.00000  Uiso   1.00
C1005  C     0.45687   0.56370   0.94205   0.00000  Uiso   1.00
C1006  C     0.41865   0.34572   0.81918   0.00000  Uiso   1.00
C1007  C     0.41827   0.38296   0.85459   0.00000  Uiso   1.00
C1008  C     0.37291   0.39319   0.87685   0.00000  Uiso   1.00
C1009  C     0.44807   0.63259   0.93198   0.00000  Uiso   1.00
C1010  C     0.40395   0.64613   0.95577   0.00000  Uiso   1.00
C1011  C     0.46560   0.54623   0.51269   0.00000  Uiso   1.00
C1012  C     0.40741   0.35573   0.98132   0.00000  Uiso   1.00
C1013  C     0.48541   0.51086   0.99157   0.00000  Uiso   1.00
C1014  C     0.48349   0.49775   0.94688   0.00000  Uiso   1.00
C1015  C     0.50355   0.48609   0.51485   0.00000  Uiso   1.00
C1016  C     0.51064   0.44473   0.99670   0.00000  Uiso   1.00
C1017  C     0.50322   0.43012   0.95512   0.00000  Uiso   1.00
C1018  C     0.49017   0.45620   0.93043   0.00000  Uiso   1.00
H1019  H     0.53556   0.40891   0.58339   0.00000  Uiso   1.00
H1020  H     0.40749   0.35365   0.79053   0.00000  Uiso   1.00
H1021  H     0.43320   0.37573   0.88051   0.00000  Uiso   1.00
H1022  H     0.43702   0.41101   0.83909   0.00000  Uiso   1.00
H1023  H     0.35754   0.40091   0.85140   0.00000  Uiso   1.00
H1024  H     0.37395   0.42049   0.90188   0.00000  Uiso   1.00
H1025  H     0.35351   0.36632   0.89431   0.00000  Uiso   1.00
H1026  H     0.53865   0.55011   0.58770   0.00000  Uiso   1.00
H1027  H     0.46137   0.65046   0.90208   0.00000  Uiso   1.00
H1028  H     0.47147   0.64112   0.95290   0.00000  Uiso   1.00
H1029  H     0.38552   0.64681   0.93054   0.00000  Uiso   1.00
H1030  H     0.53353   0.33540   0.70740   0.00000  Uiso   1.00
H1031  H     0.38572   0.62326   0.97970   0.00000  Uiso   1.00
H1032  H     0.42536   0.35557   0.50707   0.00000  Uiso   1.00
H1033  H     0.37490   0.36415   0.99832   0.00000  Uiso   1.00
H1034  H     0.42382   0.37969   0.95808   0.00000  Uiso   1.00
H1035  H     0.34171   0.53766   0.68116   0.00000  Uiso   1.00
H1036  H     0.50750   0.39826   0.94153   0.00000  Uiso   1.00
H1037  H     0.52832   0.38595   0.50775   0.00000  Uiso   1.00
H1038  H     0.45864   0.55355   0.54851   0.00000  Uiso   1.00
H1039  H     0.43502   0.59763   0.50720   0.00000  Uiso   1.00
H1040  H     0.48307   0.44226   0.89955   0.00000  Uiso   1.00
H1041  H     0.66344   0.46247   0.81970   0.00000  Uiso   1.00
H1042  H     0.39521   0.65324   0.83436   0.00000  Uiso   1.00
O1043  O     0.50000   0.50000   0.75000   0.00000  Uiso   1.00
O1044  O     0.48784   0.45970   0.65458   0.00000  Uiso   1.00
O1045  O     0.46274   0.53724   0.84968   0.00000  Uiso   1.00
O1046  O     0.54157   0.51092   0.64606   0.00000  Uiso   1.00
O1047  O     0.50785   0.49213   0.84968   0.00000  Uiso   1.00
O1048  O     0.64643   0.47294   0.80206   0.00000  Uiso   1.00
O1049  O     0.45925   0.66413   0.80603   0.00000  Uiso   1.00
O1050  O     0.51925   0.54349   0.56762   0.00000  Uiso   1.00
O1051  O     0.44378   0.58970   0.91676   0.00000  Uiso   1.00
O1052  O     0.35674   0.52717   0.70067   0.00000  Uiso   1.00
O1053  O     0.51264   0.41352   0.78213   0.00000  Uiso   1.00
O1054  O     0.47965   0.59418   0.77013   0.00000  Uiso   1.00
O1055  O     0.40745   0.46625   0.73413   0.00000  Uiso   1.00
O1056  O     0.60026   0.52605   0.71360   0.00000  Uiso   1.00
O1057  O     0.40405   0.52211   0.78213   0.00000  Uiso   1.00
O1058  O     0.58824   0.48559   0.77013   0.00000  Uiso   1.00
O1059  O     0.47093   0.40277   0.73413   0.00000  Uiso   1.00
O1060  O     0.53678   0.58953   0.71360   0.00000  Uiso   1.00
Zn1061 Zn    0.52672   0.47327   0.78734   0.00000  Uiso   1.00
Zn1062 Zn    0.46713   0.45791   0.71875   0.00000  Uiso   1.00
Zn1063 Zn    0.54389   0.53109   0.70657   0.00000  Uiso   1.00
Zn1064 Zn    0.46226   0.53773   0.78733   0.00000  Uiso   1.00
C1065  C     0.71956   0.49304   0.76027   0.00000  Uiso   1.00
C1066  C     0.84887   0.50115   0.55508   0.00000  Uiso   1.00
C1067  C     0.86235   0.43117   0.56347   0.00000  Uiso   1.00
C1068  C     0.94744   0.50689   0.73996   0.00000  Uiso   1.00
C1069  C     0.80629   0.52592   0.92080   0.00000  Uiso   1.00
C1070  C     0.99361   0.50828   0.73545   0.00000  Uiso   1.00
C1071  C     0.67419   0.49079   0.76540   0.00000  Uiso   1.00
C1072  C     0.84420   0.65535   0.73611   0.00000  Uiso   1.00
C1073  C     0.81746   0.34562   0.76587   0.00000  Uiso   1.00
C1074  C     0.82318   0.38939   0.75989   0.00000  Uiso   1.00
C1075  C     0.84287   0.61121   0.74041   0.00000  Uiso   1.00
C1076  C     0.78414   0.57153   0.98872   0.00000  Uiso   1.00
C1077  C     0.85153   0.48161   0.62931   0.00000  Uiso   1.00
C1078  C     0.81446   0.51761   0.87127   0.00000  Uiso   1.00
C1079  C     0.85730   0.41789   0.52086   0.00000  Uiso   1.00
C1080  C     0.85779   0.47243   0.58100   0.00000  Uiso   1.00
C1081  C     0.79020   0.56370   0.94205   0.00000  Uiso   1.00
C1082  C     0.75199   0.34572   0.81918   0.00000  Uiso   1.00
C1083  C     0.75160   0.38296   0.85459   0.00000  Uiso   1.00
C1084  C     0.70624   0.39319   0.87685   0.00000  Uiso   1.00
C1085  C     0.78140   0.63259   0.93198   0.00000  Uiso   1.00
C1086  C     0.73728   0.64613   0.95577   0.00000  Uiso   1.00
C1087  C     0.79893   0.54623   0.51269   0.00000  Uiso   1.00
C1088  C     0.74074   0.35573   0.98132   0.00000  Uiso   1.00
C1089  C     0.81874   0.51086   0.99157   0.00000  Uiso   1.00
C1090  C     0.81683   0.49775   0.94688   0.00000  Uiso   1.00
C1091  C     0.83688   0.48609   0.51485   0.00000  Uiso   1.00
C1092  C     0.84397   0.44473   0.99670   0.00000  Uiso   1.00
C1093  C     0.83655   0.43012   0.95512   0.00000  Uiso   1.00
C1094  C     0.82350   0.45620   0.93043   0.00000  Uiso   1.00
H1095  H     0.86889   0.40891   0.58339   0.00000  Uiso   1.00
H1096  H     0.74082   0.35365   0.79053   0.00000  Uiso   1.00
H1097  H     0.76653   0.37573   0.88051   0.00000  Uiso   1.00
H1098  H     0.77035   0.41101   0.83909   0.00000  Uiso   1.00
H1099  H     0.69088   0.40091   0.85140   0.00000  Uiso   1.00
H1100  H     0.70728   0.42049   0.90188   0.00000  Uiso   1.00
H1101  H     0.68684   0.36632   0.89431   0.00000  Uiso   1.00
H1102  H     0.87199   0.55011   0.58770   0.00000  Uiso   1.00
H1103  H     0.79471   0.65046   0.90208   0.00000  Uiso   1.00
H1104  H     0.80480   0.64112   0.95290   0.00000  Uiso   1.00
H1105  H     0.71885   0.64681   0.93054   0.00000  Uiso   1.00
H1106  H     0.86686   0.33540   0.70740   0.00000  Uiso   1.00
H1107  H     0.71906   0.62326   0.97970   0.00000  Uiso   1.00
H1108  H     0.75870   0.35557   0.50707   0.00000  Uiso   1.00
H1109  H     0.70823   0.36415   0.99832   0.00000  Uiso   1.00
H1110  H     0.75715   0.37969   0.95808   0.00000  Uiso   1.00
H1111  H     0.67504   0.53766   0.68116   0.00000  Uiso   1.00
H1112  H     0.84083   0.39826   0.94153   0.00000  Uiso   1.00
H1113  H     0.86165   0.38595   0.50775   0.00000  Uiso   1.00
H1114  H     0.79197   0.55355   0.54851   0.00000  Uiso   1.00
H1115  H     0.76835   0.59763   0.50720   0.00000  Uiso   1.00
H1116  H     0.81640   0.44226   0.89955   0.00000  Uiso   1.00
H1117  H     0.99678   0.46247   0.81970   0.00000  Uiso   1.00
H1118  H     0.72854   0.65324   0.83436   0.00000  Uiso   1.00
O1119  O     0.83333   0.50000   0.75000   0.00000  Uiso   1.00
O1120  O     0.82118   0.45970   0.65458   0.00000  Uiso   1.00
O1121  O     0.79607   0.53724   0.84968   0.00000  Uiso   1.00
O1122  O     0.87491   0.51092   0.64606   0.00000  Uiso   1.00
O1123  O     0.84118   0.49213   0.84968   0.00000  Uiso   1.00
O1124  O     0.97977   0.47294   0.80206   0.00000  Uiso   1.00
O1125  O     0.79258   0.66413   0.80603   0.00000  Uiso   1.00
O1126  O     0.85258   0.54349   0.56762   0.00000  Uiso   1.00
O1127  O     0.77711   0.58970   0.91676   0.00000  Uiso   1.00
O1128  O     0.69007   0.52717   0.70067   0.00000  Uiso   1.00
O1129  O     0.84597   0.41352   0.78213   0.00000  Uiso   1.00
O1130  O     0.81298   0.59418   0.77013   0.00000  Uiso   1.00
O1131  O     0.74078   0.46625   0.73413   0.00000  Uiso   1.00
O1132  O     0.93360   0.52605   0.71360   0.00000  Uiso   1.00
O1133  O     0.73738   0.52211   0.78213   0.00000  Uiso   1.00
O1134  O     0.92158   0.48559   0.77013   0.00000  Uiso   1.00
O1135  O     0.80426   0.40277   0.73413   0.00000  Uiso   1.00
O1136  O     0.87012   0.58953   0.71360   0.00000  Uiso   1.00
Zn1137 Zn    0.86005   0.47327   0.78734   0.00000  Uiso   1.00
Zn1138 Zn    0.80046   0.45791   0.71875   0.00000  Uiso   1.00
Zn1139 Zn    0.87723   0.53109   0.70657   0.00000  Uiso   1.00
Zn1140 Zn    0.79560   0.53773   0.78733   0.00000  Uiso   1.00
C1141  C     0.05290   0.82637   0.76027   0.00000  Uiso   1.00
C1142  C     0.18220   0.83448   0.55508   0.00000  Uiso   1.00
C1143  C     0.19568   0.76450   0.56347   0.00000  Uiso   1.00
C1144  C     0.28078   0.84022   0.73996   0.00000  Uiso   1.00
C1145  C     0.13963   0.85926   0.92080   0.00000  Uiso   1.00
C1146  C     0.32694   0.84161   0.73545   0.00000  Uiso   1.00
C1147  C     0.00752   0.82412   0.76540   0.00000  Uiso   1.00
C1148  C     0.17753   0.98868   0.73611   0.00000  Uiso   1.00
C1149  C     0.15080   0.67895   0.76587   0.00000  Uiso   1.00
C1150  C     0.15652   0.72272   0.75989   0.00000  Uiso   1.00
C1151  C     0.17621   0.94454   0.74041   0.00000  Uiso   1.00
C1152  C     0.11748   0.90486   0.98872   0.00000  Uiso   1.00
C1153  C     0.18486   0.81494   0.62931   0.00000  Uiso   1.00
C1154  C     0.14780   0.85094   0.87127   0.00000  Uiso   1.00
C1155  C     0.19063   0.75123   0.52086   0.00000  Uiso   1.00
C1156  C     0.19113   0.80577   0.58100   0.00000  Uiso   1.00
C1157  C     0.12354   0.89703   0.94205   0.00000  Uiso   1.00
C1158  C     0.08532   0.67906   0.81918   0.00000  Uiso   1.00
C1159  C     0.08494   0.71630   0.85459   0.00000  Uiso   1.00
C1160  C     0.03958   0.72653   0.87685   0.00000  Uiso   1.00
C1161  C     0.11474   0.96593   0.93198   0.00000  Uiso   1.00
C1162  C     0.07062   0.97946   0.95577   0.00000  Uiso   1.00
C1163  C     0.13226   0.87957   0.51269   0.00000  Uiso   1.00
C1164  C     0.07408   0.68906   0.98132   0.00000  Uiso   1.00
C1165  C     0.15208   0.84420   0.99157   0.00000  Uiso   1.00
C1166  C     0.15016   0.83109   0.94688   0.00000  Uiso   1.00
C1167  C     0.17022   0.81942   0.51485   0.00000  Uiso   1.00
C1168  C     0.17730   0.77807   0.99670   0.00000  Uiso   1.00
C1169  C     0.16989   0.76345   0.95512   0.00000  Uiso   1.00
C1170  C     0.15684   0.78953   0.93043   0.00000  Uiso   1.00
H1171  H     0.20223   0.74224   0.58339   0.00000  Uiso   1.00
H1172  H     0.07415   0.68698   0.79053   0.00000  Uiso   1.00
H1173  H     0.09986   0.70907   0.88051   0.00000  Uiso   1.00
H1174  H     0.10369   0.74435   0.83909   0.00000  Uiso   1.00
H1175  H     0.02421   0.73425   0.85140   0.00000  Uiso   1.00
H1176  H     0.04061   0.75383   0.90188   0.00000  Uiso   1.00
H1177  H     0.02017   0.69966   0.89431   0.00000  Uiso   1.00
H1178  H     0.20532   0.88345   0.58770   0.00000  Uiso   1.00
H1179  H     0.12804   0.98379   0.90208   0.00000  Uiso   1.00
H1180  H     0.13813   0.97445   0.95290   0.00000  Uiso   1.00
H1181  H     0.05218   0.98014   0.93054   0.00000  Uiso   1.00
H1182  H     0.20019   0.66874   0.70740   0.00000  Uiso   1.00
H1183  H     0.05239   0.95659   0.97970   0.00000  Uiso   1.00
H1184  H     0.09203   0.68891   0.50707   0.00000  Uiso   1.00
H1185  H     0.04156   0.69748   0.99832   0.00000  Uiso   1.00
H1186  H     0.09049   0.71302   0.95808   0.00000  Uiso   1.00
H1187  H     0.00837   0.87099   0.68116   0.00000  Uiso   1.00
H1188  H     0.17416   0.73159   0.94153   0.00000  Uiso   1.00
H1189  H     0.19499   0.71928   0.50775   0.00000  Uiso   1.00
H1190  H     0.12531   0.88688   0.54851   0.00000  Uiso   1.00
H1191  H     0.10168   0.93097   0.50720   0.00000  Uiso   1.00
H1192  H     0.14974   0.77559   0.89955   0.00000  Uiso   1.00
H1193  H     0.33011   0.79581   0.81970   0.00000  Uiso   1.00
H1194  H     0.06188   0.98657   0.83436   0.00000  Uiso   1.00
O1195  O     0.16667   0.83333   0.75000   0.00000  Uiso   1.00
O1196  O     0.15451   0.79304   0.65458   0.00000  Uiso   1.00
O1197  O     0.12940   0.87058   0.84968   0.00000  Uiso   1.00
O1198  O     0.20824   0.84425   0.64606   0.00000  Uiso   1.00
O1199  O     0.17451   0.82546   0.84968   0.00000  Uiso   1.00
O1200  O     0.31310   0.80627   0.80206   0.00000  Uiso   1.00
O1201  O     0.12591   0.99746   0.80603   0.00000  Uiso   1.00
O1202  O     0.18591   0.87682   0.56762   0.00000  Uiso   1.00
O1203  O     0.11045   0.92303   0.91676   0.00000  Uiso   1.00
O1204  O     0.02341   0.86050   0.70067   0.00000  Uiso   1.00
O1205  O     0.17930   0.74686   0.78213   0.00000  Uiso   1.00
O1206  O     0.14632   0.92751   0.77013   0.00000  Uiso   1.00
O1207  O     0.07412   0.79958   0.73413   0.00000  Uiso   1.00
O1208  O     0.26693   0.85939   0.71360   0.00000  Uiso   1.00
O1209  O     0.07071   0.85544   0.78213   0.00000  Uiso   1.00
O1210  O     0.25491   0.81892   0.77013   0.00000  Uiso   1.00
O1211  O     0.13760   0.73610   0.73413   0.00000  Uiso   1.00
O1212  O     0.20345   0.92286   0.71360   0.00000  Uiso   1.00
Zn1213 Zn    0.19338   0.80661   0.78734   0.00000  Uiso   1.00
Zn1214 Zn    0.13379   0.79124   0.71875   0.00000  Uiso   1.00
Zn1215 Zn    0.21056   0.86442   0.70657   0.00000  Uiso   1.00
Zn1216 Zn    0.12893   0.87106   0.78733   0.00000  Uiso   1.00
C1217  C     0.38623   0.82637   0.76027   0.00000  Uiso   1.00
C1218  C     0.51553   0.83448   0.55508   0.00000  Uiso   1.00
C1219  C     0.52902   0.76450   0.56347   0.00000  Uiso   1.00
C1220  C     0.61411   0.84022   0.73996   0.00000  Uiso   1.00
C1221  C     0.47296   0.85926   0.92080   0.00000  Uiso   1.00
C1222  C     0.66028   0.84161   0.73545   0.00000  Uiso   1.00
C1223  C     0.34086   0.82412   0.76540   0.00000  Uiso   1.00
C1224  C     0.51087   0.98868   0.73611   0.00000  Uiso   1.00
C1225  C     0.48413   0.67895   0.76587   0.00000  Uiso   1.00
C1226  C     0.48985   0.72272   0.75989   0.00000  Uiso   1.00
C1227  C     0.50954   0.94454   0.74041   0.00000  Uiso   1.00
C1228  C     0.45081   0.90486   0.98872   0.00000  Uiso   1.00
C1229  C     0.51819   0.81494   0.62931   0.00000  Uiso   1.00
C1230  C     0.48113   0.85094   0.87127   0.00000  Uiso   1.00
C1231  C     0.52396   0.75123   0.52086   0.00000  Uiso   1.00
C1232  C     0.52446   0.80577   0.58100   0.00000  Uiso   1.00
C1233  C     0.45687   0.89703   0.94205   0.00000  Uiso   1.00
C1234  C     0.41865   0.67906   0.81918   0.00000  Uiso   1.00
C1235  C     0.41827   0.71630   0.85459   0.00000  Uiso   1.00
C1236  C     0.37291   0.72653   0.87685   0.00000  Uiso   1.00
C1237  C     0.44807   0.96593   0.93198   0.00000  Uiso   1.00
C1238  C     0.40395   0.97946   0.95577   0.00000  Uiso   1.00
C1239  C     0.46560   0.87957   0.51269   0.00000  Uiso   1.00
C1240  C     0.40741   0.68906   0.98132   0.00000  Uiso   1.00
C1241  C     0.48541   0.84420   0.99157   0.00000  Uiso   1.00
C1242  C     0.48349   0.83109   0.94688   0.00000  Uiso   1.00
C1243  C     0.50355   0.81942   0.51485   0.00000  Uiso   1.00
C1244  C     0.51064   0.77807   0.99670   0.00000  Uiso   1.00
C1245  C     0.50322   0.76345   0.95512   0.00000  Uiso   1.00
C1246  C     0.49017   0.78953   0.93043   0.00000  Uiso   1.00
H1247  H     0.53556   0.74224   0.58339   0.00000  Uiso   1.00
H1248  H     0.40749   0.68698   0.79053   0.00000  Uiso   1.00
H1249  H     0.43320   0.70907   0.88051   0.00000  Uiso   1.00
H1250  H     0.43702   0.74435   0.83909   0.00000  Uiso   1.00
H1251  H     0.35754   0.73425   0.85140   0.00000  Uiso   1.00
H1252  H     0.37395   0.75383   0.90188   0.00000  Uiso   1.00
H1253  H     0.35351   0.69966   0.89431   0.00000  Uiso   1.00
H1254  H     0.53865   0.88345   0.58770   0.00000  Uiso   1.00
H1255  H     0.46137   0.98379   0.90208   0.00000  Uiso   1.00
H1256  H     0.47147   0.97445   0.95290   0.00000  Uiso   1.00
H1257  H     0.38552   0.98014   0.93054   0.00000  Uiso   1.00
H1258  H     0.53353   0.66874   0.70740   0.00000  Uiso   1.00
H1259  H     0.38572   0.95659   0.97970   0.00000  Uiso   1.00
H1260  H     0.42536   0.68891   0.50707   0.00000  Uiso   1.00
H1261  H     0.37490   0.69748   0.99832   0.00000  Uiso   1.00
H1262  H     0.42382   0.71302   0.95808   0.00000  Uiso   1.00
H1263  H     0.34171   0.87099   0.68116   0.00000  Uiso   1.00
H1264  H     0.50750   0.73159   0.94153   0.00000  Uiso   1.00
H1265  H     0.52832   0.71928   0.50775   0.00000  Uiso   1.00
H1266  H     0.45864   0.88688   0.54851   0.00000  Uiso   1.00
H1267  H     0.43502   0.93097   0.50720   0.00000  Uiso   1.00
H1268  H     0.48307   0.77559   0.89955   0.00000  Uiso   1.00
H1269  H     0.66344   0.79581   0.81970   0.00000  Uiso   1.00
H1270  H     0.39521   0.98657   0.83436   0.00000  Uiso   1.00
O1271  O     0.50000   0.83333   0.75000   0.00000  Uiso   1.00
O1272  O     0.48784   0.79304   0.65458   0.00000  Uiso   1.00
O1273  O     0.46274   0.87058   0.84968   0.00000  Uiso   1.00
O1274  O     0.54157   0.84425   0.64606   0.00000  Uiso   1.00
O1275  O     0.50785   0.82546   0.84968   0.00000  Uiso   1.00
O1276  O     0.64643   0.80627   0.80206   0.00000  Uiso   1.00
O1277  O     0.45925   0.99746   0.80603   0.00000  Uiso   1.00
O1278  O     0.51925   0.87682   0.56762   0.00000  Uiso   1.00
O1279  O     0.44378   0.92303   0.91676   0.00000  Uiso   1.00
O1280  O     0.35674   0.86050   0.70067   0.00000  Uiso   1.00
O1281  O     0.51264   0.74686   0.78213   0.00000  Uiso   1.00
O1282  O     0.47965   0.92751   0.77013   0.00000  Uiso   1.00
O1283  O     0.40745   0.79958   0.73413   0.00000  Uiso   1.00
O1284  O     0.60026   0.85939   0.71360   0.00000  Uiso   1.00
O1285  O     0.40405   0.85544   0.78213   0.00000  Uiso   1.00
O1286  O     0.58824   0.81892   0.77013   0.00000  Uiso   1.00
O1287  O     0.47093   0.73610   0.73413   0.00000  Uiso   1.00
O1288  O     0.53678   0.92286   0.71360   0.00000  Uiso   1.00
Zn1289 Zn    0.52672   0.80661   0.78734   0.00000  Uiso   1.00
Zn1290 Zn    0.46713   0.79124   0.71875   0.00000  Uiso   1.00
Zn1291 Zn    0.54389   0.86442   0.70657   0.00000  Uiso   1.00
Zn1292 Zn    0.46226   0.87106   0.78733   0.00000  Uiso   1.00
C1293  C     0.71956   0.82637   0.76027   0.00000  Uiso   1.00
C1294  C     0.84887   0.83448   0.55508   0.00000  Uiso   1.00
C1295  C     0.86235   0.76450   0.56347   0.00000  Uiso   1.00
C1296  C     0.94744   0.84022   0.73996   0.00000  Uiso   1.00
C1297  C     0.80629   0.85926   0.92080   0.00000  Uiso   1.00
C1298  C     0.99361   0.84161   0.73545   0.00000  Uiso   1.00
C1299  C     0.67419   0.82412   0.76540   0.00000  Uiso   1.00
C1300  C     0.84420   0.98868   0.73611   0.00000  Uiso   1.00
C1301  C     0.81746   0.67895   0.76587   0.00000  Uiso   1.00
C1302  C     0.82318   0.72272   0.75989   0.00000  Uiso   1.00
C1303  C     0.84287   0.94454   0.74041   0.00000  Uiso   1.00
C1304  C     0.78414   0.90486   0.98872   0.00000  Uiso   1.00
C1305  C     0.85153   0.81494   0.62931   0.00000  Uiso   1.00
C1306  C     0.81446   0.85094   0.87127   0.00000  Uiso   1.00
C1307  C     0.85730   0.75123   0.52086   0.00000  Uiso   1.00
C1308  C     0.85779   0.80577   0.58100   0.00000  Uiso   1.00
C1309  C     0.79020   0.89703   0.94205   0.00000  Uiso   1.00
C1310  C     0.75199   0.67906   0.81918   0.00000  Uiso   1.00
C1311  C     0.75160   0.71630   0.85459   0.00000  Uiso   1.00
C1312  C     0.70624   0.72653   0.87685   0.00000  Uiso   1.00
C1313  C     0.78140   0.96593   0.93198   0.00000  Uiso   1.00
C1314  C     0.73728   0.97946   0.95577   0.00000  Uiso   1.00
C1315  C     0.79893   0.87957   0.51269   0.00000  Uiso   1.00
C1316  C     0.74074   0.68906   0.98132   0.00000  Uiso   1.00
C1317  C     0.81874   0.84420   0.99157   0.00000  Uiso   1.00
C1318  C     0.81683   0.83109   0.94688   0.00000  Uiso   1.00
C1319  C     0.83688   0.81942   0.51485   0.00000  Uiso   1.00
C1320  C     0.84397   0.77807   0.99670   0.00000  Uiso   1.00
C1321  C     0.83655   0.76345   0.95512   0.00000  Uiso   1.00
C1322  C     0.82350   0.78953   0.93043   0.00000  Uiso   1.00
H1323  H     0.86889   0.74224   0.58339   0.00000  Uiso   1.00
H1324  H     0.74082   0.68698   0.79053   0.00000  Uiso   1.00
H1325  H     0.76653   0.70907   0.88051   0.00000  Uiso   1.00
H1326  H     0.77035   0.74435   0.83909   0.00000  Uiso   1.00
H1327  H     0.69088   0.73425   0.85140   0.00000  Uiso   1.00
H1328  H     0.70728   0.75383   0.90188   0.00000  Uiso   1.00
H1329  H     0.68684   0.69966   0.89431   0.00000  Uiso   1.00
H1330  H     0.87199   0.88345   0.58770   0.00000  Uiso   1.00
H1331  H     0.79471   0.98379   0.90208   0.00000  Uiso   1.00
H1332  H     0.80480   0.97445   0.95290   0.00000  Uiso   1.00
H1333  H     0.71885   0.98014   0.93054   0.00000  Uiso   1.00
H1334  H     0.86686   0.66874   0.70740   0.00000  Uiso   1.00
H1335  H     0.71906   0.95659   0.97970   0.00000  Uiso   1.00
H1336  H     0.75870   0.68891   0.50707   0.00000  Uiso   1.00
H1337  H     0.70823   0.69748   0.99832   0.00000  Uiso   1.00
H1338  H     0.75715   0.71302   0.95808   0.00000  Uiso   1.00
H1339  H     0.67504   0.87099   0.68116   0.00000  Uiso   1.00
H1340  H     0.84083   0.73159   0.94153   0.00000  Uiso   1.00
H1341  H     0.86165   0.71928   0.50775   0.00000  Uiso   1.00
H1342  H     0.79197   0.88688   0.54851   0.00000  Uiso   1.00
H1343  H     0.76835   0.93097   0.50720   0.00000  Uiso   1.00
H1344  H     0.81640   0.77559   0.89955   0.00000  Uiso   1.00
H1345  H     0.99678   0.79581   0.81970   0.00000  Uiso   1.00
H1346  H     0.72854   0.98657   0.83436   0.00000  Uiso   1.00
O1347  O     0.83333   0.83333   0.75000   0.00000  Uiso   1.00
O1348  O     0.82118   0.79304   0.65458   0.00000  Uiso   1.00
O1349  O     0.79607   0.87058   0.84968   0.00000  Uiso   1.00
O1350  O     0.87491   0.84425   0.64606   0.00000  Uiso   1.00
O1351  O     0.84118   0.82546   0.84968   0.00000  Uiso   1.00
O1352  O     0.97977   0.80627   0.80206   0.00000  Uiso   1.00
O1353  O     0.79258   0.99746   0.80603   0.00000  Uiso   1.00
O1354  O     0.85258   0.87682   0.56762   0.00000  Uiso   1.00
O1355  O     0.77711   0.92303   0.91676   0.00000  Uiso   1.00
O1356  O     0.69007   0.86050   0.70067   0.00000  Uiso   1.00
O1357  O     0.84597   0.74686   0.78213   0.00000  Uiso   1.00
O1358  O     0.81298   0.92751   0.77013   0.00000  Uiso   1.00
O1359  O     0.74078   0.79958   0.73413   0.00000  Uiso   1.00
O1360  O     0.93360   0.85939   0.71360   0.00000  Uiso   1.00
O1361  O     0.73738   0.85544   0.78213   0.00000  Uiso   1.00
O1362  O     0.92158   0.81892   0.77013   0.00000  Uiso   1.00
O1363  O     0.80426   0.73610   0.73413   0.00000  Uiso   1.00
O1364  O     0.87012   0.92286   0.71360   0.00000  Uiso   1.00
Zn1365 Zn    0.86005   0.80661   0.78734   0.00000  Uiso   1.00
Zn1366 Zn    0.80046   0.79124   0.71875   0.00000  Uiso   1.00
Zn1367 Zn    0.87723   0.86442   0.70657   0.00000  Uiso   1.00
Zn1368 Zn    0.79560   0.87106   0.78733   0.00000  Uiso   1.00
loop_
_geom_bond_atom_site_label_1
_geom_bond_atom_site_label_2
_geom_bond_distance
_geom_bond_site_symmetry_2
_ccdc_geom_bond_type
C1     O69     1.262   .     A
C1     C7      1.440   .     S
C1     O67     1.266   .     A
C2     C27     1.419   .     A
C2     C16     1.410   .     A
C2     O62     1.382   .     S
C3     H31     1.084   .     S
C3     C15     1.387   .     A
C3     C16     1.399   .     A
C4     O70     1.282   .     A
C4     C6      1.472   .     S
C4     O68     1.289   .     A
C5     C17     1.424   .     A
C5     C14     1.488   .     S
C5     C26     1.425   .     A
C6     C83     1.349   .     S
C6     O140    1.387   .     S
C7     C158    1.349   1_455 S
C7     O212    1.385   1_455 S
C8     C11     1.451   .     S
C8     C237    1.342   .     S
C8     H270    1.088   .     S
C9     C10     1.437   .     S
C9     C464    1.342   1_545 S
C9     O517    1.395   1_545 S
C10    O71     1.278   .     A
C10    O65     1.274   .     A
C11    O66     1.267   .     A
C11    O72     1.276   .     A
C12    C17     1.407   .     A
C12    C707    1.384   .     S
C12    H735    1.080   .     S
C13    O56     1.276   .     A
C13    O58     1.283   .     A
C13    C16     1.460   .     S
C14    O59     1.289   .     A
C14    O57     1.282   .     A
C15    H49     1.084   .     S
C15    C712    1.398   1_554 S
C17    O63     1.398   .     S
C18    C19     1.534   .     S
C18    H32     1.116   .     S
C18    H510    1.111   1_545 S
C18    O517    1.418   1_545 S
C19    C20     1.525   .     S
C19    H33     1.108   .     S
C19    H34     1.109   .     S
C20    H35     1.111   .     S
C20    H37     1.111   .     S
C20    H36     1.111   .     S
C21    C22     1.535   .     S
C21    H39     1.110   .     S
C21    H40     1.115   .     S
C21    O63     1.418   .     S
C22    H41     1.111   .     S
C22    H43     1.110   .     S
C22    C252    1.526   .     S
C23    H50     1.079   .     S
C23    C696    1.384   1_554 S
C23    C709    1.407   1_554 S
C24    H45     1.110   .     S
C24    H46     1.108   .     S
C24    C478    1.526   1_545 S
C24    H728    1.111   .     S
C25    C26     1.417   .     A
C25    C707    1.407   .     S
C25    C711    1.424   .     S
C26    C30     1.412   .     A
C27    C709    1.424   1_554 S
C27    C712    1.420   1_554 S
C28    C29     1.392   .     A
C28    C711    1.420   .     S
C28    C699    1.398   .     S
C29    H48     1.085   .     S
C29    C30     1.386   .     A
C30    H52     1.078   .     S
H38    O62     0.988   .     S
H42    C464    1.088   1_545 S
H44    C708    1.111   1_554 S
H47    O64     0.990   .     S
H51    C696    1.080   1_554 S
H53    O60     0.992   .     S
H54    C246    1.111   .     S
O55    Zn74    1.945   .     S
O55    Zn75    1.946   .     S
O55    Zn73    1.964   .     S
O55    Zn76    1.924   .     S
O56    Zn74    1.933   .     S
O57    Zn76    1.943   .     S
O58    Zn75    1.933   .     S
O59    Zn73    1.923   .     S
O60    C83     1.385   .     S
O61    C246    1.418   .     S
O61    C237    1.395   .     S
O64    C158    1.387   1_455 S
O65    Zn73    1.929   .     S
O66    Zn76    1.938   .     S
O67    Zn74    1.931   .     S
O68    Zn75    1.942   .     S
O69    Zn76    1.941   .     S
O70    Zn73    1.933   .     S
O71    Zn74    1.939   .     S
O72    Zn75    1.927   .     S
C77    O145    1.262   .     A
C77    C83     1.440   .     S
C77    O143    1.266   .     A
C78    C103    1.419   .     A
C78    C92     1.410   .     A
C78    O138    1.382   .     S
C79    H107    1.084   .     S
C79    C91     1.387   .     A
C79    C92     1.399   .     A
C80    O146    1.282   .     A
C80    C82     1.472   .     S
C80    O144    1.289   .     A
C81    C93     1.424   .     A
C81    C90     1.488   .     S
C81    C102    1.425   .     A
C82    C159    1.349   .     S
C82    O216    1.387   .     S
C84    C87     1.451   .     S
C84    C313    1.342   .     S
C84    H346    1.088   .     S
C85    C86     1.437   .     S
C85    C540    1.342   1_545 S
C85    O593    1.395   1_545 S
C86    O147    1.278   .     A
C86    O141    1.274   .     A
C87    O142    1.267   .     A
C87    O148    1.276   .     A
C88    C93     1.407   .     A
C88    C783    1.384   .     S
C88    H811    1.080   .     S
C89    O132    1.276   .     A
C89    O134    1.283   .     A
C89    C92     1.460   .     S
C90    O135    1.289   .     A
C90    O133    1.282   .     A
C91    H125    1.084   .     S
C91    C788    1.398   1_554 S
C93    O139    1.398   .     S
C94    C95     1.534   .     S
C94    H108    1.116   .     S
C94    H586    1.111   1_545 S
C94    O593    1.418   1_545 S
C95    C96     1.525   .     S
C95    H109    1.108   .     S
C95    H110    1.109   .     S
C96    H111    1.111   .     S
C96    H113    1.111   .     S
C96    H112    1.111   .     S
C97    C98     1.535   .     S
C97    H115    1.110   .     S
C97    H116    1.115   .     S
C97    O139    1.418   .     S
C98    H117    1.111   .     S
C98    H119    1.110   .     S
C98    C328    1.526   .     S
C99    H126    1.079   .     S
C99    C772    1.384   1_554 S
C99    C785    1.407   1_554 S
C100   H121    1.110   .     S
C100   H122    1.108   .     S
C100   C554    1.526   1_545 S
C100   H804    1.111   .     S
C101   C102    1.417   .     A
C101   C783    1.407   .     S
C101   C787    1.424   .     S
C102   C106    1.412   .     A
C103   C785    1.424   1_554 S
C103   C788    1.420   1_554 S
C104   C105    1.392   .     A
C104   C787    1.420   .     S
C104   C775    1.398   .     S
C105   H124    1.085   .     S
C105   C106    1.386   .     A
C106   H128    1.078   .     S
H114   O138    0.988   .     S
H118   C540    1.088   1_545 S
H120   C784    1.111   1_554 S
H123   O140    0.990   .     S
H127   C772    1.080   1_554 S
H129   O136    0.992   .     S
H130   C322    1.111   .     S
O131   Zn150   1.945   .     S
O131   Zn151   1.946   .     S
O131   Zn149   1.964   .     S
O131   Zn152   1.924   .     S
O132   Zn150   1.933   .     S
O133   Zn152   1.943   .     S
O134   Zn151   1.933   .     S
O135   Zn149   1.923   .     S
O136   C159    1.385   .     S
O137   C322    1.418   .     S
O137   C313    1.395   .     S
O141   Zn149   1.929   .     S
O142   Zn152   1.938   .     S
O143   Zn150   1.931   .     S
O144   Zn151   1.942   .     S
O145   Zn152   1.941   .     S
O146   Zn149   1.933   .     S
O147   Zn150   1.939   .     S
O148   Zn151   1.927   .     S
C153   O221    1.262   .     A
C153   C159    1.440   .     S
C153   O219    1.266   .     A
C154   C179    1.419   .     A
C154   C168    1.410   .     A
C154   O214    1.382   .     S
C155   H183    1.084   .     S
C155   C167    1.387   .     A
C155   C168    1.399   .     A
C156   O222    1.282   .     A
C156   C158    1.472   .     S
C156   O220    1.289   .     A
C157   C169    1.424   .     A
C157   C166    1.488   .     S
C157   C178    1.425   .     A
C158   C7      1.349   1_655 S
C158   O64     1.387   1_655 S
C160   C163    1.451   .     S
C160   C389    1.342   .     S
C160   H422    1.088   .     S
C161   C162    1.437   .     S
C161   C616    1.342   1_545 S
C161   O669    1.395   1_545 S
C162   O223    1.278   .     A
C162   O217    1.274   .     A
C163   O218    1.267   .     A
C163   O224    1.276   .     A
C164   C169    1.407   .     A
C164   C859    1.384   .     S
C164   H887    1.080   .     S
C165   O208    1.276   .     A
C165   O210    1.283   .     A
C165   C168    1.460   .     S
C166   O211    1.289   .     A
C166   O209    1.282   .     A
C167   H201    1.084   .     S
C167   C864    1.398   1_554 S
C169   O215    1.398   .     S
C170   C171    1.534   .     S
C170   H184    1.116   .     S
C170   H662    1.111   1_545 S
C170   O669    1.418   1_545 S
C171   C172    1.525   .     S
C171   H185    1.108   .     S
C171   H186    1.109   .     S
C172   H187    1.111   .     S
C172   H189    1.111   .     S
C172   H188    1.111   .     S
C173   C174    1.535   .     S
C173   H191    1.110   .     S
C173   H192    1.115   .     S
C173   O215    1.418   .     S
C174   H193    1.111   .     S
C174   H195    1.110   .     S
C174   C404    1.526   .     S
C175   H202    1.079   .     S
C175   C848    1.384   1_554 S
C175   C861    1.407   1_554 S
C176   H197    1.110   .     S
C176   H198    1.108   .     S
C176   C630    1.526   1_545 S
C176   H880    1.111   .     S
C177   C178    1.417   .     A
C177   C859    1.407   .     S
C177   C863    1.424   .     S
C178   C182    1.412   .     A
C179   C861    1.424   1_554 S
C179   C864    1.420   1_554 S
C180   C181    1.392   .     A
C180   C863    1.420   .     S
C180   C851    1.398   .     S
C181   H200    1.085   .     S
C181   C182    1.386   .     A
C182   H204    1.078   .     S
H190   O214    0.988   .     S
H194   C616    1.088   1_545 S
H196   C860    1.111   1_554 S
H199   O216    0.990   .     S
H203   C848    1.080   1_554 S
H205   O212    0.992   .     S
H206   C398    1.111   .     S
O207   Zn226   1.945   .     S
O207   Zn227   1.946   .     S
O207   Zn225   1.964   .     S
O207   Zn228   1.924   .     S
O208   Zn226   1.933   .     S
O209   Zn228   1.943   .     S
O210   Zn227   1.933   .     S
O211   Zn225   1.923   .     S
O212   C7      1.385   1_655 S
O213   C398    1.418   .     S
O213   C389    1.395   .     S
O217   Zn225   1.929   .     S
O218   Zn228   1.938   .     S
O219   Zn226   1.931   .     S
O220   Zn227   1.942   .     S
O221   Zn228   1.941   .     S
O222   Zn225   1.933   .     S
O223   Zn226   1.939   .     S
O224   Zn227   1.927   .     S
C229   O297    1.262   .     A
C229   C235    1.440   .     S
C229   O295    1.266   .     A
C230   C255    1.419   .     A
C230   C244    1.410   .     A
C230   O290    1.382   .     S
C231   H259    1.084   .     S
C231   C243    1.387   .     A
C231   C244    1.399   .     A
C232   O298    1.282   .     A
C232   C234    1.472   .     S
C232   O296    1.289   .     A
C233   C245    1.424   .     A
C233   C242    1.488   .     S
C233   C254    1.425   .     A
C234   C311    1.349   .     S
C234   O368    1.387   .     S
C235   C386    1.349   1_455 S
C235   O440    1.385   1_455 S
C236   C239    1.451   .     S
C236   C465    1.342   .     S
C236   H498    1.088   .     S
C237   C238    1.437   .     S
C238   O299    1.278   .     A
C238   O293    1.274   .     A
C239   O294    1.267   .     A
C239   O300    1.276   .     A
C240   C245    1.407   .     A
C240   C935    1.384   .     S
C240   H963    1.080   .     S
C241   O284    1.276   .     A
C241   O286    1.283   .     A
C241   C244    1.460   .     S
C242   O287    1.289   .     A
C242   O285    1.282   .     A
C243   H277    1.084   .     S
C243   C940    1.398   1_554 S
C245   O291    1.398   .     S
C246   C247    1.534   .     S
C246   H260    1.116   .     S
C247   C248    1.525   .     S
C247   H261    1.108   .     S
C247   H262    1.109   .     S
C248   H263    1.111   .     S
C248   H265    1.111   .     S
C248   H264    1.111   .     S
C249   C250    1.535   .     S
C249   H267    1.110   .     S
C249   H268    1.115   .     S
C249   O291    1.418   .     S
C250   H269    1.111   .     S
C250   H271    1.110   .     S
C250   C480    1.526   .     S
C251   H278    1.079   .     S
C251   C924    1.384   1_554 S
C251   C937    1.407   1_554 S
C252   H273    1.110   .     S
C252   H274    1.108   .     S
C252   H956    1.111   .     S
C253   C254    1.417   .     A
C253   C935    1.407   .     S
C253   C939    1.424   .     S
C254   C258    1.412   .     A
C255   C937    1.424   1_554 S
C255   C940    1.420   1_554 S
C256   C257    1.392   .     A
C256   C939    1.420   .     S
C256   C927    1.398   .     S
C257   H276    1.085   .     S
C257   C258    1.386   .     A
C258   H280    1.078   .     S
H266   O290    0.988   .     S
H272   C936    1.111   1_554 S
H275   O292    0.990   .     S
H279   C924    1.080   1_554 S
H281   O288    0.992   .     S
H282   C474    1.111   .     S
O283   Zn302   1.945   .     S
O283   Zn303   1.946   .     S
O283   Zn301   1.964   .     S
O283   Zn304   1.924   .     S
O284   Zn302   1.933   .     S
O285   Zn304   1.943   .     S
O286   Zn303   1.933   .     S
O287   Zn301   1.923   .     S
O288   C311    1.385   .     S
O289   C474    1.418   .     S
O289   C465    1.395   .     S
O292   C386    1.387   1_455 S
O293   Zn301   1.929   .     S
O294   Zn304   1.938   .     S
O295   Zn302   1.931   .     S
O296   Zn303   1.942   .     S
O297   Zn304   1.941   .     S
O298   Zn301   1.933   .     S
O299   Zn302   1.939   .     S
O300   Zn303   1.927   .     S
C305   O373    1.262   .     A
C305   C311    1.440   .     S
C305   O371    1.266   .     A
C306   C331    1.419   .     A
C306   C320    1.410   .     A
C306   O366    1.382   .     S
C307   H335    1.084   .     S
C307   C319    1.387   .     A
C307   C320    1.399   .     A
C308   O374    1.282   .     A
C308   C310    1.472   .     S
C308   O372    1.289   .     A
C309   C321    1.424   .     A
C309   C318    1.488   .     S
C309   C330    1.425   .     A
C310   C387    1.349   .     S
C310   O444    1.387   .     S
C312   C315    1.451   .     S
C312   C541    1.342   .     S
C312   H574    1.088   .     S
C313   C314    1.437   .     S
C314   O375    1.278   .     A
C314   O369    1.274   .     A
C315   O370    1.267   .     A
C315   O376    1.276   .     A
C316   C321    1.407   .     A
C316   C1011   1.384   .     S
C316   H1039   1.080   .     S
C317   O360    1.276   .     A
C317   O362    1.283   .     A
C317   C320    1.460   .     S
C318   O363    1.289   .     A
C318   O361    1.282   .     A
C319   H353    1.084   .     S
C319   C1016   1.398   1_554 S
C321   O367    1.398   .     S
C322   C323    1.534   .     S
C322   H336    1.116   .     S
C323   C324    1.525   .     S
C323   H337    1.108   .     S
C323   H338    1.109   .     S
C324   H339    1.111   .     S
C324   H341    1.111   .     S
C324   H340    1.111   .     S
C325   C326    1.535   .     S
C325   H343    1.110   .     S
C325   H344    1.115   .     S
C325   O367    1.418   .     S
C326   H345    1.111   .     S
C326   H347    1.110   .     S
C326   C556    1.526   .     S
C327   H354    1.079   .     S
C327   C1000   1.384   1_554 S
C327   C1013   1.407   1_554 S
C328   H349    1.110   .     S
C328   H350    1.108   .     S
C328   H1032   1.111   .     S
C329   C330    1.417   .     A
C329   C1011   1.407   .     S
C329   C1015   1.424   .     S
C330   C334    1.412   .     A
C331   C1013   1.424   1_554 S
C331   C1016   1.420   1_554 S
C332   C333    1.392   .     A
C332   C1015   1.420   .     S
C332   C1003   1.398   .     S
C333   H352    1.085   .     S
C333   C334    1.386   .     A
C334   H356    1.078   .     S
H342   O366    0.988   .     S
H348   C1012   1.111   1_554 S
H351   O368    0.990   .     S
H355   C1000   1.080   1_554 S
H357   O364    0.992   .     S
H358   C550    1.111   .     S
O359   Zn378   1.945   .     S
O359   Zn379   1.946   .     S
O359   Zn377   1.964   .     S
O359   Zn380   1.924   .     S
O360   Zn378   1.933   .     S
O361   Zn380   1.943   .     S
O362   Zn379   1.933   .     S
O363   Zn377   1.923   .     S
O364   C387    1.385   .     S
O365   C550    1.418   .     S
O365   C541    1.395   .     S
O369   Zn377   1.929   .     S
O370   Zn380   1.938   .     S
O371   Zn378   1.931   .     S
O372   Zn379   1.942   .     S
O373   Zn380   1.941   .     S
O374   Zn377   1.933   .     S
O375   Zn378   1.939   .     S
O376   Zn379   1.927   .     S
C381   O449    1.262   .     A
C381   C387    1.440   .     S
C381   O447    1.266   .     A
C382   C407    1.419   .     A
C382   C396    1.410   .     A
C382   O442    1.382   .     S
C383   H411    1.084   .     S
C383   C395    1.387   .     A
C383   C396    1.399   .     A
C384   O450    1.282   .     A
C384   C386    1.472   .     S
C384   O448    1.289   .     A
C385   C397    1.424   .     A
C385   C394    1.488   .     S
C385   C406    1.425   .     A
C386   C235    1.349   1_655 S
C386   O292    1.387   1_655 S
C388   C391    1.451   .     S
C388   C617    1.342   .     S
C388   H650    1.088   .     S
C389   C390    1.437   .     S
C390   O451    1.278   .     A
C390   O445    1.274   .     A
C391   O446    1.267   .     A
C391   O452    1.276   .     A
C392   C397    1.407   .     A
C392   C1087   1.384   .     S
C392   H1115   1.080   .     S
C393   O436    1.276   .     A
C393   O438    1.283   .     A
C393   C396    1.460   .     S
C394   O439    1.289   .     A
C394   O437    1.282   .     A
C395   H429    1.084   .     S
C395   C1092   1.398   1_554 S
C397   O443    1.398   .     S
C398   C399    1.534   .     S
C398   H412    1.116   .     S
C399   C400    1.525   .     S
C399   H413    1.108   .     S
C399   H414    1.109   .     S
C400   H415    1.111   .     S
C400   H417    1.111   .     S
C400   H416    1.111   .     S
C401   C402    1.535   .     S
C401   H419    1.110   .     S
C401   H420    1.115   .     S
C401   O443    1.418   .     S
C402   H421    1.111   .     S
C402   H423    1.110   .     S
C402   C632    1.526   .     S
C403   H430    1.079   .     S
C403   C1076   1.384   1_554 S
C403   C1089   1.407   1_554 S
C404   H425    1.110   .     S
C404   H426    1.108   .     S
C404   H1108   1.111   .     S
C405   C406    1.417   .     A
C405   C1087   1.407   .     S
C405   C1091   1.424   .     S
C406   C410    1.412   .     A
C407   C1089   1.424   1_554 S
C407   C1092   1.420   1_554 S
C408   C409    1.392   .     A
C408   C1091   1.420   .     S
C408   C1079   1.398   .     S
C409   H428    1.085   .     S
C409   C410    1.386   .     A
C410   H432    1.078   .     S
H418   O442    0.988   .     S
H424   C1088   1.111   1_554 S
H427   O444    0.990   .     S
H431   C1076   1.080   1_554 S
H433   O440    0.992   .     S
H434   C626    1.111   .     S
O435   Zn454   1.945   .     S
O435   Zn455   1.946   .     S
O435   Zn453   1.964   .     S
O435   Zn456   1.924   .     S
O436   Zn454   1.933   .     S
O437   Zn456   1.943   .     S
O438   Zn455   1.933   .     S
O439   Zn453   1.923   .     S
O440   C235    1.385   1_655 S
O441   C626    1.418   .     S
O441   C617    1.395   .     S
O445   Zn453   1.929   .     S
O446   Zn456   1.938   .     S
O447   Zn454   1.931   .     S
O448   Zn455   1.942   .     S
O449   Zn456   1.941   .     S
O450   Zn453   1.933   .     S
O451   Zn454   1.939   .     S
O452   Zn455   1.927   .     S
C457   O525    1.262   .     A
C457   C463    1.440   .     S
C457   O523    1.266   .     A
C458   C483    1.419   .     A
C458   C472    1.410   .     A
C458   O518    1.382   .     S
C459   H487    1.084   .     S
C459   C471    1.387   .     A
C459   C472    1.399   .     A
C460   O526    1.282   .     A
C460   C462    1.472   .     S
C460   O524    1.289   .     A
C461   C473    1.424   .     A
C461   C470    1.488   .     S
C461   C482    1.425   .     A
C462   C539    1.349   .     S
C462   O596    1.387   .     S
C463   C614    1.349   1_455 S
C463   O668    1.385   1_455 S
C464   C467    1.451   .     S
C464   C9      1.342   1_565 S
C464   H42     1.088   1_565 S
C465   C466    1.437   .     S
C466   O527    1.278   .     A
C466   O521    1.274   .     A
C467   O522    1.267   .     A
C467   O528    1.276   .     A
C468   C473    1.407   .     A
C468   C1163   1.384   .     S
C468   H1191   1.080   .     S
C469   O512    1.276   .     A
C469   O514    1.283   .     A
C469   C472    1.460   .     S
C470   O515    1.289   .     A
C470   O513    1.282   .     A
C471   H505    1.084   .     S
C471   C1168   1.398   1_554 S
C473   O519    1.398   .     S
C474   C475    1.534   .     S
C474   H488    1.116   .     S
C475   C476    1.525   .     S
C475   H489    1.108   .     S
C475   H490    1.109   .     S
C476   H491    1.111   .     S
C476   H493    1.111   .     S
C476   H492    1.111   .     S
C477   C478    1.535   .     S
C477   H495    1.110   .     S
C477   H496    1.115   .     S
C477   O519    1.418   .     S
C478   H497    1.111   .     S
C478   H499    1.110   .     S
C478   C24     1.526   1_565 S
C479   H506    1.079   .     S
C479   C1152   1.384   1_554 S
C479   C1165   1.407   1_554 S
C480   H501    1.110   .     S
C480   H502    1.108   .     S
C480   H1184   1.111   .     S
C481   C482    1.417   .     A
C481   C1163   1.407   .     S
C481   C1167   1.424   .     S
C482   C486    1.412   .     A
C483   C1165   1.424   1_554 S
C483   C1168   1.420   1_554 S
C484   C485    1.392   .     A
C484   C1167   1.420   .     S
C484   C1155   1.398   .     S
C485   H504    1.085   .     S
C485   C486    1.386   .     A
C486   H508    1.078   .     S
H494   O518    0.988   .     S
H500   C1164   1.111   1_554 S
H503   O520    0.990   .     S
H507   C1152   1.080   1_554 S
H509   O516    0.992   .     S
H510   C18     1.111   1_565 S
O511   Zn530   1.945   .     S
O511   Zn531   1.946   .     S
O511   Zn529   1.964   .     S
O511   Zn532   1.924   .     S
O512   Zn530   1.933   .     S
O513   Zn532   1.943   .     S
O514   Zn531   1.933   .     S
O515   Zn529   1.923   .     S
O516   C539    1.385   .     S
O517   C18     1.418   1_565 S
O517   C9      1.395   1_565 S
O520   C614    1.387   1_455 S
O521   Zn529   1.929   .     S
O522   Zn532   1.938   .     S
O523   Zn530   1.931   .     S
O524   Zn531   1.942   .     S
O525   Zn532   1.941   .     S
O526   Zn529   1.933   .     S
O527   Zn530   1.939   .     S
O528   Zn531   1.927   .     S
C533   O601    1.262   .     A
C533   C539    1.440   .     S
C533   O599    1.266   .     A
C534   C559    1.419   .     A
C534   C548    1.410   .     A
C534   O594    1.382   .     S
C535   H563    1.084   .     S
C535   C547    1.387   .     A
C535   C548    1.399   .     A
C536   O602    1.282   .     A
C536   C538    1.472   .     S
C536   O600    1.289   .     A
C537   C549    1.424   .     A
C537   C546    1.488   .     S
C537   C558    1.425   .     A
C538   C615    1.349   .     S
C538   O672    1.387   .     S
C540   C543    1.451   .     S
C540   C85     1.342   1_565 S
C540   H118    1.088   1_565 S
C541   C542    1.437   .     S
C542   O603    1.278   .     A
C542   O597    1.274   .     A
C543   O598    1.267   .     A
C543   O604    1.276   .     A
C544   C549    1.407   .     A
C544   C1239   1.384   .     S
C544   H1267   1.080   .     S
C545   O588    1.276   .     A
C545   O590    1.283   .     A
C545   C548    1.460   .     S
C546   O591    1.289   .     A
C546   O589    1.282   .     A
C547   H581    1.084   .     S
C547   C1244   1.398   1_554 S
C549   O595    1.398   .     S
C550   C551    1.534   .     S
C550   H564    1.116   .     S
C551   C552    1.525   .     S
C551   H565    1.108   .     S
C551   H566    1.109   .     S
C552   H567    1.111   .     S
C552   H569    1.111   .     S
C552   H568    1.111   .     S
C553   C554    1.535   .     S
C553   H571    1.110   .     S
C553   H572    1.115   .     S
C553   O595    1.418   .     S
C554   H573    1.111   .     S
C554   H575    1.110   .     S
C554   C100    1.526   1_565 S
C555   H582    1.079   .     S
C555   C1228   1.384   1_554 S
C555   C1241   1.407   1_554 S
C556   H577    1.110   .     S
C556   H578    1.108   .     S
C556   H1260   1.111   .     S
C557   C558    1.417   .     A
C557   C1239   1.407   .     S
C557   C1243   1.424   .     S
C558   C562    1.412   .     A
C559   C1241   1.424   1_554 S
C559   C1244   1.420   1_554 S
C560   C561    1.392   .     A
C560   C1243   1.420   .     S
C560   C1231   1.398   .     S
C561   H580    1.085   .     S
C561   C562    1.386   .     A
C562   H584    1.078   .     S
H570   O594    0.988   .     S
H576   C1240   1.111   1_554 S
H579   O596    0.990   .     S
H583   C1228   1.080   1_554 S
H585   O592    0.992   .     S
H586   C94     1.111   1_565 S
O587   Zn606   1.945   .     S
O587   Zn607   1.946   .     S
O587   Zn605   1.964   .     S
O587   Zn608   1.924   .     S
O588   Zn606   1.933   .     S
O589   Zn608   1.943   .     S
O590   Zn607   1.933   .     S
O591   Zn605   1.923   .     S
O592   C615    1.385   .     S
O593   C94     1.418   1_565 S
O593   C85     1.395   1_565 S
O597   Zn605   1.929   .     S
O598   Zn608   1.938   .     S
O599   Zn606   1.931   .     S
O600   Zn607   1.942   .     S
O601   Zn608   1.941   .     S
O602   Zn605   1.933   .     S
O603   Zn606   1.939   .     S
O604   Zn607   1.927   .     S
C609   O677    1.262   .     A
C609   C615    1.440   .     S
C609   O675    1.266   .     A
C610   C635    1.419   .     A
C610   C624    1.410   .     A
C610   O670    1.382   .     S
C611   H639    1.084   .     S
C611   C623    1.387   .     A
C611   C624    1.399   .     A
C612   O678    1.282   .     A
C612   C614    1.472   .     S
C612   O676    1.289   .     A
C613   C625    1.424   .     A
C613   C622    1.488   .     S
C613   C634    1.425   .     A
C614   C463    1.349   1_655 S
C614   O520    1.387   1_655 S
C616   C619    1.451   .     S
C616   C161    1.342   1_565 S
C616   H194    1.088   1_565 S
C617   C618    1.437   .     S
C618   O679    1.278   .     A
C618   O673    1.274   .     A
C619   O674    1.267   .     A
C619   O680    1.276   .     A
C620   C625    1.407   .     A
C620   C1315   1.384   .     S
C620   H1343   1.080   .     S
C621   O664    1.276   .     A
C621   O666    1.283   .     A
C621   C624    1.460   .     S
C622   O667    1.289   .     A
C622   O665    1.282   .     A
C623   H657    1.084   .     S
C623   C1320   1.398   1_554 S
C625   O671    1.398   .     S
C626   C627    1.534   .     S
C626   H640    1.116   .     S
C627   C628    1.525   .     S
C627   H641    1.108   .     S
C627   H642    1.109   .     S
C628   H643    1.111   .     S
C628   H645    1.111   .     S
C628   H644    1.111   .     S
C629   C630    1.535   .     S
C629   H647    1.110   .     S
C629   H648    1.115   .     S
C629   O671    1.418   .     S
C630   H649    1.111   .     S
C630   H651    1.110   .     S
C630   C176    1.526   1_565 S
C631   H658    1.079   .     S
C631   C1304   1.384   1_554 S
C631   C1317   1.407   1_554 S
C632   H653    1.110   .     S
C632   H654    1.108   .     S
C632   H1336   1.111   .     S
C633   C634    1.417   .     A
C633   C1315   1.407   .     S
C633   C1319   1.424   .     S
C634   C638    1.412   .     A
C635   C1317   1.424   1_554 S
C635   C1320   1.420   1_554 S
C636   C637    1.392   .     A
C636   C1319   1.420   .     S
C636   C1307   1.398   .     S
C637   H656    1.085   .     S
C637   C638    1.386   .     A
C638   H660    1.078   .     S
H646   O670    0.988   .     S
H652   C1316   1.111   1_554 S
H655   O672    0.990   .     S
H659   C1304   1.080   1_554 S
H661   O668    0.992   .     S
H662   C170    1.111   1_565 S
O663   Zn682   1.945   .     S
O663   Zn683   1.946   .     S
O663   Zn681   1.964   .     S
O663   Zn684   1.924   .     S
O664   Zn682   1.933   .     S
O665   Zn684   1.943   .     S
O666   Zn683   1.933   .     S
O667   Zn681   1.923   .     S
O668   C463    1.385   1_655 S
O669   C170    1.418   1_565 S
O669   C161    1.395   1_565 S
O673   Zn681   1.929   .     S
O674   Zn684   1.938   .     S
O675   Zn682   1.931   .     S
O676   Zn683   1.942   .     S
O677   Zn684   1.941   .     S
O678   Zn681   1.933   .     S
O679   Zn682   1.939   .     S
O680   Zn683   1.927   .     S
C685   O753    1.262   .     A
C685   C691    1.440   .     S
C685   O751    1.266   .     A
C686   C711    1.419   .     A
C686   C700    1.410   .     A
C686   O746    1.382   .     S
C687   H715    1.084   .     S
C687   C699    1.387   .     A
C687   C700    1.399   .     A
C688   O754    1.282   .     A
C688   C690    1.472   .     S
C688   O752    1.289   .     A
C689   C701    1.424   .     A
C689   C698    1.488   .     S
C689   C710    1.425   .     A
C690   C767    1.349   .     S
C690   O824    1.387   .     S
C691   C842    1.349   1_455 S
C691   O896    1.385   1_455 S
C692   C695    1.451   .     S
C692   C921    1.342   .     S
C692   H954    1.088   .     S
C693   C694    1.437   .     S
C693   C1148   1.342   1_545 S
C693   O1201   1.395   1_545 S
C694   O755    1.278   .     A
C694   O749    1.274   .     A
C695   O750    1.267   .     A
C695   O756    1.276   .     A
C696   C701    1.407   .     A
C696   C23     1.384   1_556 S
C696   H51     1.080   1_556 S
C697   O740    1.276   .     A
C697   O742    1.283   .     A
C697   C700    1.460   .     S
C698   O743    1.289   .     A
C698   O741    1.282   .     A
C699   H733    1.084   .     S
C701   O747    1.398   .     S
C702   C703    1.534   .     S
C702   H716    1.116   .     S
C702   H1194   1.111   1_545 S
C702   O1201   1.418   1_545 S
C703   C704    1.525   .     S
C703   H717    1.108   .     S
C703   H718    1.109   .     S
C704   H719    1.111   .     S
C704   H721    1.111   .     S
C704   H720    1.111   .     S
C705   C706    1.535   .     S
C705   H723    1.110   .     S
C705   H724    1.115   .     S
C705   O747    1.418   .     S
C706   H725    1.111   .     S
C706   H727    1.110   .     S
C706   C936    1.526   .     S
C707   H734    1.079   .     S
C708   H729    1.110   .     S
C708   H730    1.108   .     S
C708   C1162   1.526   1_545 S
C708   H44     1.111   1_556 S
C709   C710    1.417   .     A
C709   C23     1.407   1_556 S
C709   C27     1.424   1_556 S
C710   C714    1.412   .     A
C712   C713    1.392   .     A
C712   C27     1.420   1_556 S
C712   C15     1.398   1_556 S
C713   H732    1.085   .     S
C713   C714    1.386   .     A
C714   H736    1.078   .     S
H722   O746    0.988   .     S
H726   C1148   1.088   1_545 S
H731   O748    0.990   .     S
H737   O744    0.992   .     S
H738   C930    1.111   .     S
O739   Zn758   1.945   .     S
O739   Zn759   1.946   .     S
O739   Zn757   1.964   .     S
O739   Zn760   1.924   .     S
O740   Zn758   1.933   .     S
O741   Zn760   1.943   .     S
O742   Zn759   1.933   .     S
O743   Zn757   1.923   .     S
O744   C767    1.385   .     S
O745   C930    1.418   .     S
O745   C921    1.395   .     S
O748   C842    1.387   1_455 S
O749   Zn757   1.929   .     S
O750   Zn760   1.938   .     S
O751   Zn758   1.931   .     S
O752   Zn759   1.942   .     S
O753   Zn760   1.941   .     S
O754   Zn757   1.933   .     S
O755   Zn758   1.939   .     S
O756   Zn759   1.927   .     S
C761   O829    1.262   .     A
C761   C767    1.440   .     S
C761   O827    1.266   .     A
C762   C787    1.419   .     A
C762   C776    1.410   .     A
C762   O822    1.382   .     S
C763   H791    1.084   .     S
C763   C775    1.387   .     A
C763   C776    1.399   .     A
C764   O830    1.282   .     A
C764   C766    1.472   .     S
C764   O828    1.289   .     A
C765   C777    1.424   .     A
C765   C774    1.488   .     S
C765   C786    1.425   .     A
C766   C843    1.349   .     S
C766   O900    1.387   .     S
C768   C771    1.451   .     S
C768   C997    1.342   .     S
C768   H1030   1.088   .     S
C769   C770    1.437   .     S
C769   C1224   1.342   1_545 S
C769   O1277   1.395   1_545 S
C770   O831    1.278   .     A
C770   O825    1.274   .     A
C771   O826    1.267   .     A
C771   O832    1.276   .     A
C772   C777    1.407   .     A
C772   C99     1.384   1_556 S
C772   H127    1.080   1_556 S
C773   O816    1.276   .     A
C773   O818    1.283   .     A
C773   C776    1.460   .     S
C774   O819    1.289   .     A
C774   O817    1.282   .     A
C775   H809    1.084   .     S
C777   O823    1.398   .     S
C778   C779    1.534   .     S
C778   H792    1.116   .     S
C778   H1270   1.111   1_545 S
C778   O1277   1.418   1_545 S
C779   C780    1.525   .     S
C779   H793    1.108   .     S
C779   H794    1.109   .     S
C780   H795    1.111   .     S
C780   H797    1.111   .     S
C780   H796    1.111   .     S
C781   C782    1.535   .     S
C781   H799    1.110   .     S
C781   H800    1.115   .     S
C781   O823    1.418   .     S
C782   H801    1.111   .     S
C782   H803    1.110   .     S
C782   C1012   1.526   .     S
C783   H810    1.079   .     S
C784   H805    1.110   .     S
C784   H806    1.108   .     S
C784   C1238   1.526   1_545 S
C784   H120    1.111   1_556 S
C785   C786    1.417   .     A
C785   C99     1.407   1_556 S
C785   C103    1.424   1_556 S
C786   C790    1.412   .     A
C788   C789    1.392   .     A
C788   C103    1.420   1_556 S
C788   C91     1.398   1_556 S
C789   H808    1.085   .     S
C789   C790    1.386   .     A
C790   H812    1.078   .     S
H798   O822    0.988   .     S
H802   C1224   1.088   1_545 S
H807   O824    0.990   .     S
H813   O820    0.992   .     S
H814   C1006   1.111   .     S
O815   Zn834   1.945   .     S
O815   Zn835   1.946   .     S
O815   Zn833   1.964   .     S
O815   Zn836   1.924   .     S
O816   Zn834   1.933   .     S
O817   Zn836   1.943   .     S
O818   Zn835   1.933   .     S
O819   Zn833   1.923   .     S
O820   C843    1.385   .     S
O821   C1006   1.418   .     S
O821   C997    1.395   .     S
O825   Zn833   1.929   .     S
O826   Zn836   1.938   .     S
O827   Zn834   1.931   .     S
O828   Zn835   1.942   .     S
O829   Zn836   1.941   .     S
O830   Zn833   1.933   .     S
O831   Zn834   1.939   .     S
O832   Zn835   1.927   .     S
C837   O905    1.262   .     A
C837   C843    1.440   .     S
C837   O903    1.266   .     A
C838   C863    1.419   .     A
C838   C852    1.410   .     A
C838   O898    1.382   .     S
C839   H867    1.084   .     S
C839   C851    1.387   .     A
C839   C852    1.399   .     A
C840   O906    1.282   .     A
C840   C842    1.472   .     S
C840   O904    1.289   .     A
C841   C853    1.424   .     A
C841   C850    1.488   .     S
C841   C862    1.425   .     A
C842   C691    1.349   1_655 S
C842   O748    1.387   1_655 S
C844   C847    1.451   .     S
C844   C1073   1.342   .     S
C844   H1106   1.088   .     S
C845   C846    1.437   .     S
C845   C1300   1.342   1_545 S
C845   O1353   1.395   1_545 S
C846   O907    1.278   .     A
C846   O901    1.274   .     A
C847   O902    1.267   .     A
C847   O908    1.276   .     A
C848   C853    1.407   .     A
C848   C175    1.384   1_556 S
C848   H203    1.080   1_556 S
C849   O892    1.276   .     A
C849   O894    1.283   .     A
C849   C852    1.460   .     S
C850   O895    1.289   .     A
C850   O893    1.282   .     A
C851   H885    1.084   .     S
C853   O899    1.398   .     S
C854   C855    1.534   .     S
C854   H868    1.116   .     S
C854   H1346   1.111   1_545 S
C854   O1353   1.418   1_545 S
C855   C856    1.525   .     S
C855   H869    1.108   .     S
C855   H870    1.109   .     S
C856   H871    1.111   .     S
C856   H873    1.111   .     S
C856   H872    1.111   .     S
C857   C858    1.535   .     S
C857   H875    1.110   .     S
C857   H876    1.115   .     S
C857   O899    1.418   .     S
C858   H877    1.111   .     S
C858   H879    1.110   .     S
C858   C1088   1.526   .     S
C859   H886    1.079   .     S
C860   H881    1.110   .     S
C860   H882    1.108   .     S
C860   C1314   1.526   1_545 S
C860   H196    1.111   1_556 S
C861   C862    1.417   .     A
C861   C175    1.407   1_556 S
C861   C179    1.424   1_556 S
C862   C866    1.412   .     A
C864   C865    1.392   .     A
C864   C179    1.420   1_556 S
C864   C167    1.398   1_556 S
C865   H884    1.085   .     S
C865   C866    1.386   .     A
C866   H888    1.078   .     S
H874   O898    0.988   .     S
H878   C1300   1.088   1_545 S
H883   O900    0.990   .     S
H889   O896    0.992   .     S
H890   C1082   1.111   .     S
O891   Zn910   1.945   .     S
O891   Zn911   1.946   .     S
O891   Zn909   1.964   .     S
O891   Zn912   1.924   .     S
O892   Zn910   1.933   .     S
O893   Zn912   1.943   .     S
O894   Zn911   1.933   .     S
O895   Zn909   1.923   .     S
O896   C691    1.385   1_655 S
O897   C1082   1.418   .     S
O897   C1073   1.395   .     S
O901   Zn909   1.929   .     S
O902   Zn912   1.938   .     S
O903   Zn910   1.931   .     S
O904   Zn911   1.942   .     S
O905   Zn912   1.941   .     S
O906   Zn909   1.933   .     S
O907   Zn910   1.939   .     S
O908   Zn911   1.927   .     S
C913   O981    1.262   .     A
C913   C919    1.440   .     S
C913   O979    1.266   .     A
C914   C939    1.419   .     A
C914   C928    1.410   .     A
C914   O974    1.382   .     S
C915   H943    1.084   .     S
C915   C927    1.387   .     A
C915   C928    1.399   .     A
C916   O982    1.282   .     A
C916   C918    1.472   .     S
C916   O980    1.289   .     A
C917   C929    1.424   .     A
C917   C926    1.488   .     S
C917   C938    1.425   .     A
C918   C995    1.349   .     S
C918   O1052   1.387   .     S
C919   C1070   1.349   1_455 S
C919   O1124   1.385   1_455 S
C920   C923    1.451   .     S
C920   C1149   1.342   .     S
C920   H1182   1.088   .     S
C921   C922    1.437   .     S
C922   O983    1.278   .     A
C922   O977    1.274   .     A
C923   O978    1.267   .     A
C923   O984    1.276   .     A
C924   C929    1.407   .     A
C924   C251    1.384   1_556 S
C924   H279    1.080   1_556 S
C925   O968    1.276   .     A
C925   O970    1.283   .     A
C925   C928    1.460   .     S
C926   O971    1.289   .     A
C926   O969    1.282   .     A
C927   H961    1.084   .     S
C929   O975    1.398   .     S
C930   C931    1.534   .     S
C930   H944    1.116   .     S
C931   C932    1.525   .     S
C931   H945    1.108   .     S
C931   H946    1.109   .     S
C932   H947    1.111   .     S
C932   H949    1.111   .     S
C932   H948    1.111   .     S
C933   C934    1.535   .     S
C933   H951    1.110   .     S
C933   H952    1.115   .     S
C933   O975    1.418   .     S
C934   H953    1.111   .     S
C934   H955    1.110   .     S
C934   C1164   1.526   .     S
C935   H962    1.079   .     S
C936   H957    1.110   .     S
C936   H958    1.108   .     S
C936   H272    1.111   1_556 S
C937   C938    1.417   .     A
C937   C251    1.407   1_556 S
C937   C255    1.424   1_556 S
C938   C942    1.412   .     A
C940   C941    1.392   .     A
C940   C255    1.420   1_556 S
C940   C243    1.398   1_556 S
C941   H960    1.085   .     S
C941   C942    1.386   .     A
C942   H964    1.078   .     S
H950   O974    0.988   .     S
H959   O976    0.990   .     S
H965   O972    0.992   .     S
H966   C1158   1.111   .     S
O967   Zn986   1.945   .     S
O967   Zn987   1.946   .     S
O967   Zn985   1.964   .     S
O967   Zn988   1.924   .     S
O968   Zn986   1.933   .     S
O969   Zn988   1.943   .     S
O970   Zn987   1.933   .     S
O971   Zn985   1.923   .     S
O972   C995    1.385   .     S
O973   C1158   1.418   .     S
O973   C1149   1.395   .     S
O976   C1070   1.387   1_455 S
O977   Zn985   1.929   .     S
O978   Zn988   1.938   .     S
O979   Zn986   1.931   .     S
O980   Zn987   1.942   .     S
O981   Zn988   1.941   .     S
O982   Zn985   1.933   .     S
O983   Zn986   1.939   .     S
O984   Zn987   1.927   .     S
C989   O1057   1.262   .     A
C989   C995    1.440   .     S
C989   O1055   1.266   .     A
C990   C1015   1.419   .     A
C990   C1004   1.410   .     A
C990   O1050   1.382   .     S
C991   H1019   1.084   .     S
C991   C1003   1.387   .     A
C991   C1004   1.399   .     A
C992   O1058   1.282   .     A
C992   C994    1.472   .     S
C992   O1056   1.289   .     A
C993   C1005   1.424   .     A
C993   C1002   1.488   .     S
C993   C1014   1.425   .     A
C994   C1071   1.349   .     S
C994   O1128   1.387   .     S
C996   C999    1.451   .     S
C996   C1225   1.342   .     S
C996   H1258   1.088   .     S
C997   C998    1.437   .     S
C998   O1059   1.278   .     A
C998   O1053   1.274   .     A
C999   O1054   1.267   .     A
C999   O1060   1.276   .     A
C1000  C1005   1.407   .     A
C1000  C327    1.384   1_556 S
C1000  H355    1.080   1_556 S
C1001  O1044   1.276   .     A
C1001  O1046   1.283   .     A
C1001  C1004   1.460   .     S
C1002  O1047   1.289   .     A
C1002  O1045   1.282   .     A
C1003  H1037   1.084   .     S
C1005  O1051   1.398   .     S
C1006  C1007   1.534   .     S
C1006  H1020   1.116   .     S
C1007  C1008   1.525   .     S
C1007  H1021   1.108   .     S
C1007  H1022   1.109   .     S
C1008  H1023   1.111   .     S
C1008  H1025   1.111   .     S
C1008  H1024   1.111   .     S
C1009  C1010   1.535   .     S
C1009  H1027   1.110   .     S
C1009  H1028   1.115   .     S
C1009  O1051   1.418   .     S
C1010  H1029   1.111   .     S
C1010  H1031   1.110   .     S
C1010  C1240   1.526   .     S
C1011  H1038   1.079   .     S
C1012  H1033   1.110   .     S
C1012  H1034   1.108   .     S
C1012  H348    1.111   1_556 S
C1013  C1014   1.417   .     A
C1013  C327    1.407   1_556 S
C1013  C331    1.424   1_556 S
C1014  C1018   1.412   .     A
C1016  C1017   1.392   .     A
C1016  C331    1.420   1_556 S
C1016  C319    1.398   1_556 S
C1017  H1036   1.085   .     S
C1017  C1018   1.386   .     A
C1018  H1040   1.078   .     S
H1026  O1050   0.988   .     S
H1035  O1052   0.990   .     S
H1041  O1048   0.992   .     S
H1042  C1234   1.111   .     S
O1043  Zn1062  1.945   .     S
O1043  Zn1063  1.946   .     S
O1043  Zn1061  1.964   .     S
O1043  Zn1064  1.924   .     S
O1044  Zn1062  1.933   .     S
O1045  Zn1064  1.943   .     S
O1046  Zn1063  1.933   .     S
O1047  Zn1061  1.923   .     S
O1048  C1071   1.385   .     S
O1049  C1234   1.418   .     S
O1049  C1225   1.395   .     S
O1053  Zn1061  1.929   .     S
O1054  Zn1064  1.938   .     S
O1055  Zn1062  1.931   .     S
O1056  Zn1063  1.942   .     S
O1057  Zn1064  1.941   .     S
O1058  Zn1061  1.933   .     S
O1059  Zn1062  1.939   .     S
O1060  Zn1063  1.927   .     S
C1065  O1133   1.262   .     A
C1065  C1071   1.440   .     S
C1065  O1131   1.266   .     A
C1066  C1091   1.419   .     A
C1066  C1080   1.410   .     A
C1066  O1126   1.382   .     S
C1067  H1095   1.084   .     S
C1067  C1079   1.387   .     A
C1067  C1080   1.399   .     A
C1068  O1134   1.282   .     A
C1068  C1070   1.472   .     S
C1068  O1132   1.289   .     A
C1069  C1081   1.424   .     A
C1069  C1078   1.488   .     S
C1069  C1090   1.425   .     A
C1070  C919    1.349   1_655 S
C1070  O976    1.387   1_655 S
C1072  C1075   1.451   .     S
C1072  C1301   1.342   .     S
C1072  H1334   1.088   .     S
C1073  C1074   1.437   .     S
C1074  O1135   1.278   .     A
C1074  O1129   1.274   .     A
C1075  O1130   1.267   .     A
C1075  O1136   1.276   .     A
C1076  C1081   1.407   .     A
C1076  C403    1.384   1_556 S
C1076  H431    1.080   1_556 S
C1077  O1120   1.276   .     A
C1077  O1122   1.283   .     A
C1077  C1080   1.460   .     S
C1078  O1123   1.289   .     A
C1078  O1121   1.282   .     A
C1079  H1113   1.084   .     S
C1081  O1127   1.398   .     S
C1082  C1083   1.534   .     S
C1082  H1096   1.116   .     S
C1083  C1084   1.525   .     S
C1083  H1097   1.108   .     S
C1083  H1098   1.109   .     S
C1084  H1099   1.111   .     S
C1084  H1101   1.111   .     S
C1084  H1100   1.111   .     S
C1085  C1086   1.535   .     S
C1085  H1103   1.110   .     S
C1085  H1104   1.115   .     S
C1085  O1127   1.418   .     S
C1086  H1105   1.111   .     S
C1086  H1107   1.110   .     S
C1086  C1316   1.526   .     S
C1087  H1114   1.079   .     S
C1088  H1109   1.110   .     S
C1088  H1110   1.108   .     S
C1088  H424    1.111   1_556 S
C1089  C1090   1.417   .     A
C1089  C403    1.407   1_556 S
C1089  C407    1.424   1_556 S
C1090  C1094   1.412   .     A
C1092  C1093   1.392   .     A
C1092  C407    1.420   1_556 S
C1092  C395    1.398   1_556 S
C1093  H1112   1.085   .     S
C1093  C1094   1.386   .     A
C1094  H1116   1.078   .     S
H1102  O1126   0.988   .     S
H1111  O1128   0.990   .     S
H1117  O1124   0.992   .     S
H1118  C1310   1.111   .     S
O1119  Zn1138  1.945   .     S
O1119  Zn1139  1.946   .     S
O1119  Zn1137  1.964   .     S
O1119  Zn1140  1.924   .     S
O1120  Zn1138  1.933   .     S
O1121  Zn1140  1.943   .     S
O1122  Zn1139  1.933   .     S
O1123  Zn1137  1.923   .     S
O1124  C919    1.385   1_655 S
O1125  C1310   1.418   .     S
O1125  C1301   1.395   .     S
O1129  Zn1137  1.929   .     S
O1130  Zn1140  1.938   .     S
O1131  Zn1138  1.931   .     S
O1132  Zn1139  1.942   .     S
O1133  Zn1140  1.941   .     S
O1134  Zn1137  1.933   .     S
O1135  Zn1138  1.939   .     S
O1136  Zn1139  1.927   .     S
C1141  O1209   1.262   .     A
C1141  C1147   1.440   .     S
C1141  O1207   1.266   .     A
C1142  C1167   1.419   .     A
C1142  C1156   1.410   .     A
C1142  O1202   1.382   .     S
C1143  H1171   1.084   .     S
C1143  C1155   1.387   .     A
C1143  C1156   1.399   .     A
C1144  O1210   1.282   .     A
C1144  C1146   1.472   .     S
C1144  O1208   1.289   .     A
C1145  C1157   1.424   .     A
C1145  C1154   1.488   .     S
C1145  C1166   1.425   .     A
C1146  C1223   1.349   .     S
C1146  O1280   1.387   .     S
C1147  C1298   1.349   1_455 S
C1147  O1352   1.385   1_455 S
C1148  C1151   1.451   .     S
C1148  C693    1.342   1_565 S
C1148  H726    1.088   1_565 S
C1149  C1150   1.437   .     S
C1150  O1211   1.278   .     A
C1150  O1205   1.274   .     A
C1151  O1206   1.267   .     A
C1151  O1212   1.276   .     A
C1152  C1157   1.407   .     A
C1152  C479    1.384   1_556 S
C1152  H507    1.080   1_556 S
C1153  O1196   1.276   .     A
C1153  O1198   1.283   .     A
C1153  C1156   1.460   .     S
C1154  O1199   1.289   .     A
C1154  O1197   1.282   .     A
C1155  H1189   1.084   .     S
C1157  O1203   1.398   .     S
C1158  C1159   1.534   .     S
C1158  H1172   1.116   .     S
C1159  C1160   1.525   .     S
C1159  H1173   1.108   .     S
C1159  H1174   1.109   .     S
C1160  H1175   1.111   .     S
C1160  H1177   1.111   .     S
C1160  H1176   1.111   .     S
C1161  C1162   1.535   .     S
C1161  H1179   1.110   .     S
C1161  H1180   1.115   .     S
C1161  O1203   1.418   .     S
C1162  H1181   1.111   .     S
C1162  H1183   1.110   .     S
C1162  C708    1.526   1_565 S
C1163  H1190   1.079   .     S
C1164  H1185   1.110   .     S
C1164  H1186   1.108   .     S
C1164  H500    1.111   1_556 S
C1165  C1166   1.417   .     A
C1165  C479    1.407   1_556 S
C1165  C483    1.424   1_556 S
C1166  C1170   1.412   .     A
C1168  C1169   1.392   .     A
C1168  C483    1.420   1_556 S
C1168  C471    1.398   1_556 S
C1169  H1188   1.085   .     S
C1169  C1170   1.386   .     A
C1170  H1192   1.078   .     S
H1178  O1202   0.988   .     S
H1187  O1204   0.990   .     S
H1193  O1200   0.992   .     S
H1194  C702    1.111   1_565 S
O1195  Zn1214  1.945   .     S
O1195  Zn1215  1.946   .     S
O1195  Zn1213  1.964   .     S
O1195  Zn1216  1.924   .     S
O1196  Zn1214  1.933   .     S
O1197  Zn1216  1.943   .     S
O1198  Zn1215  1.933   .     S
O1199  Zn1213  1.923   .     S
O1200  C1223   1.385   .     S
O1201  C702    1.418   1_565 S
O1201  C693    1.395   1_565 S
O1204  C1298   1.387   1_455 S
O1205  Zn1213  1.929   .     S
O1206  Zn1216  1.938   .     S
O1207  Zn1214  1.931   .     S
O1208  Zn1215  1.942   .     S
O1209  Zn1216  1.941   .     S
O1210  Zn1213  1.933   .     S
O1211  Zn1214  1.939   .     S
O1212  Zn1215  1.927   .     S
C1217  O1285   1.262   .     A
C1217  C1223   1.440   .     S
C1217  O1283   1.266   .     A
C1218  C1243   1.419   .     A
C1218  C1232   1.410   .     A
C1218  O1278   1.382   .     S
C1219  H1247   1.084   .     S
C1219  C1231   1.387   .     A
C1219  C1232   1.399   .     A
C1220  O1286   1.282   .     A
C1220  C1222   1.472   .     S
C1220  O1284   1.289   .     A
C1221  C1233   1.424   .     A
C1221  C1230   1.488   .     S
C1221  C1242   1.425   .     A
C1222  C1299   1.349   .     S
C1222  O1356   1.387   .     S
C1224  C1227   1.451   .     S
C1224  C769    1.342   1_565 S
C1224  H802    1.088   1_565 S
C1225  C1226   1.437   .     S
C1226  O1287   1.278   .     A
C1226  O1281   1.274   .     A
C1227  O1282   1.267   .     A
C1227  O1288   1.276   .     A
C1228  C1233   1.407   .     A
C1228  C555    1.384   1_556 S
C1228  H583    1.080   1_556 S
C1229  O1272   1.276   .     A
C1229  O1274   1.283   .     A
C1229  C1232   1.460   .     S
C1230  O1275   1.289   .     A
C1230  O1273   1.282   .     A
C1231  H1265   1.084   .     S
C1233  O1279   1.398   .     S
C1234  C1235   1.534   .     S
C1234  H1248   1.116   .     S
C1235  C1236   1.525   .     S
C1235  H1249   1.108   .     S
C1235  H1250   1.109   .     S
C1236  H1251   1.111   .     S
C1236  H1253   1.111   .     S
C1236  H1252   1.111   .     S
C1237  C1238   1.535   .     S
C1237  H1255   1.110   .     S
C1237  H1256   1.115   .     S
C1237  O1279   1.418   .     S
C1238  H1257   1.111   .     S
C1238  H1259   1.110   .     S
C1238  C784    1.526   1_565 S
C1239  H1266   1.079   .     S
C1240  H1261   1.110   .     S
C1240  H1262   1.108   .     S
C1240  H576    1.111   1_556 S
C1241  C1242   1.417   .     A
C1241  C555    1.407   1_556 S
C1241  C559    1.424   1_556 S
C1242  C1246   1.412   .     A
C1244  C1245   1.392   .     A
C1244  C559    1.420   1_556 S
C1244  C547    1.398   1_556 S
C1245  H1264   1.085   .     S
C1245  C1246   1.386   .     A
C1246  H1268   1.078   .     S
H1254  O1278   0.988   .     S
H1263  O1280   0.990   .     S
H1269  O1276   0.992   .     S
H1270  C778    1.111   1_565 S
O1271  Zn1290  1.945   .     S
O1271  Zn1291  1.946   .     S
O1271  Zn1289  1.964   .     S
O1271  Zn1292  1.924   .     S
O1272  Zn1290  1.933   .     S
O1273  Zn1292  1.943   .     S
O1274  Zn1291  1.933   .     S
O1275  Zn1289  1.923   .     S
O1276  C1299   1.385   .     S
O1277  C778    1.418   1_565 S
O1277  C769    1.395   1_565 S
O1281  Zn1289  1.929   .     S
O1282  Zn1292  1.938   .     S
O1283  Zn1290  1.931   .     S
O1284  Zn1291  1.942   .     S
O1285  Zn1292  1.941   .     S
O1286  Zn1289  1.933   .     S
O1287  Zn1290  1.939   .     S
O1288  Zn1291  1.927   .     S
C1293  O1361   1.262   .     A
C1293  C1299   1.440   .     S
C1293  O1359   1.266   .     A
C1294  C1319   1.419   .     A
C1294  C1308   1.410   .     A
C1294  O1354   1.382   .     S
C1295  H1323   1.084   .     S
C1295  C1307   1.387   .     A
C1295  C1308   1.399   .     A
C1296  O1362   1.282   .     A
C1296  C1298   1.472   .     S
C1296  O1360   1.289   .     A
C1297  C1309   1.424   .     A
C1297  C1306   1.488   .     S
C1297  C1318   1.425   .     A
C1298  C1147   1.349   1_655 S
C1298  O1204   1.387   1_655 S
C1300  C1303   1.451   .     S
C1300  C845    1.342   1_565 S
C1300  H878    1.088   1_565 S
C1301  C1302   1.437   .     S
C1302  O1363   1.278   .     A
C1302  O1357   1.274   .     A
C1303  O1358   1.267   .     A
C1303  O1364   1.276   .     A
C1304  C1309   1.407   .     A
C1304  C631    1.384   1_556 S
C1304  H659    1.080   1_556 S
C1305  O1348   1.276   .     A
C1305  O1350   1.283   .     A
C1305  C1308   1.460   .     S
C1306  O1351   1.289   .     A
C1306  O1349   1.282   .     A
C1307  H1341   1.084   .     S
C1309  O1355   1.398   .     S
C1310  C1311   1.534   .     S
C1310  H1324   1.116   .     S
C1311  C1312   1.525   .     S
C1311  H1325   1.108   .     S
C1311  H1326   1.109   .     S
C1312  H1327   1.111   .     S
C1312  H1329   1.111   .     S
C1312  H1328   1.111   .     S
C1313  C1314   1.535   .     S
C1313  H1331   1.110   .     S
C1313  H1332   1.115   .     S
C1313  O1355   1.418   .     S
C1314  H1333   1.111   .     S
C1314  H1335   1.110   .     S
C1314  C860    1.526   1_565 S
C1315  H1342   1.079   .     S
C1316  H1337   1.110   .     S
C1316  H1338   1.108   .     S
C1316  H652    1.111   1_556 S
C1317  C1318   1.417   .     A
C1317  C631    1.407   1_556 S
C1317  C635    1.424   1_556 S
C1318  C1322   1.412   .     A
C1320  C1321   1.392   .     A
C1320  C635    1.420   1_556 S
C1320  C623    1.398   1_556 S
C1321  H1340   1.085   .     S
C1321  C1322   1.386   .     A
C1322  H1344   1.078   .     S
H1330  O1354   0.988   .     S
H1339  O1356   0.990   .     S
H1345  O1352   0.992   .     S
H1346  C854    1.111   1_565 S
O1347  Zn1366  1.945   .     S
O1347  Zn1367  1.946   .     S
O1347  Zn1365  1.964   .     S
O1347  Zn1368  1.924   .     S
O1348  Zn1366  1.933   .     S
O1349  Zn1368  1.943   .     S
O1350  Zn1367  1.933   .     S
O1351  Zn1365  1.923   .     S
O1352  C1147   1.385   1_655 S
O1353  C854    1.418   1_565 S
O1353  C845    1.395   1_565 S
O1357  Zn1365  1.929   .     S
O1358  Zn1368  1.938   .     S
O1359  Zn1366  1.931   .     S
O1360  Zn1367  1.942   .     S
O1361  Zn1368  1.941   .     S
O1362  Zn1365  1.933   .     S
O1363  Zn1366  1.939   .     S
O1364  Zn1367  1.927   .     S
